@<TRIPOS>MOLECULE
outputs/IAG933/test6/raw/output_5604_IAG933_linker_design_.xyz
 43 47 0 0 0
SMALL
GASTEIGER

@<TRIPOS>ATOM
      1 C         -24.8550   -1.0120   30.1430 C.3     1  UNL1        0.1144
      2 C         -24.9730   -2.5050   29.7880 C.2     1  UNL1       -0.0029
      3 C         -23.9060   -3.1730   29.1460 C.2     1  UNL1       -0.0026
      4 C         -23.9890   -4.5490   28.8530 C.2     1  UNL1       -0.0003
      5 C         -25.1370   -5.2800   29.2050 C.2     1  UNL1       -0.0000
      6 C         -26.2320   -4.6110   29.7840 C.2     1  UNL1       -0.0003
      7 C         -26.1550   -3.2320   30.0650 C.2     1  UNL1       -0.0026
      8 C         -25.3870   -0.6790   31.5710 C.3     1  UNL1        0.0951
      9 C         -25.1890    0.7730   32.0280 C.3     1  UNL1        0.0209
     10 C         -25.3360    0.6840   33.5440 C.3     1  UNL1        0.0203
     11 C         -24.8290   -0.7150   33.9050 C.3     1  UNL1        0.0888
     12 N         -24.7580   -1.4810   32.6460 N.3     1  UNL1       -0.2174
     13 C         -25.6880    1.6140   26.4610 C.2     1  UNL1        0.0358
     14 C         -26.2500    2.9200   26.3950 C.2     1  UNL1        0.0763
     15 C         -25.6420    4.0930   27.1230 C.2     1  UNL1        0.2664
     16 N         -25.6140    5.2520   26.4490 N.am    1  UNL1       -0.1997
     17 C         -25.0260    6.4790   26.9630 C.3     1  UNL1        0.1388
     18 O         -25.1430    3.9660   28.2430 O.2     1  UNL1       -0.2683
     19 C         -27.4380    3.0910   25.6450 C.2     1  UNL1        0.1067
     20 N         -28.0750    2.0890   25.0030 N.2     1  UNL1       -0.2081
     21 C         -27.5430    0.8490   25.0790 C.2     1  UNL1        0.2533
     22 O         -28.1930   -0.2080   24.4770 O.2     1  UNL1       -0.4558
     23 C         -29.4600    0.0050   23.8660 C.3     1  UNL1        0.2426
     24 C         -30.0650   -1.3770   23.5730 C.3     1  UNL1        0.2292
     25 O         -30.7290   -1.8780   24.7210 O.3     1  UNL1       -0.2162
     26 C         -26.3540    0.5760   25.7770 C.2     1  UNL1        0.1928
     27 F         -25.8600   -0.6810   25.7950 F       1  UNL1       -0.1992
     28 C         -24.5108    1.1846   27.2000 C.2     1  UNL1        0.0029
     29 C         -29.6472    1.4014   28.1120 C.3     1  UNL1        0.0005
     30 C         -24.3054    0.6214   28.3591 C.3     1  UNL1        0.1479
     31 F         -22.3199    0.4265   29.6576 F       1  UNL1       -0.2070
     32 O         -26.8517    1.6051   29.6860 O.2     1  UNL1       -0.2748
     33 C         -27.7680   -0.2329   28.4965 C.3     1  UNL1        0.0853
     34 N         -25.2889    0.0057   29.1415 N.am    1  UNL1       -0.2680
     35 C         -29.2319    0.6414   30.4414 C.3     1  UNL1        0.0005
     36 C         -23.0559    1.7369   25.0868 C.3     1  UNL1        0.1686
     37 C         -23.3351    1.4859   26.4690 C.2     1  UNL1        0.0056
     38 C         -22.9132    0.7896   28.5969 C.2     1  UNL1        0.1380
     39 O         -21.7847    2.1634   25.1786 O.3     1  UNL1       -0.3442
     40 C         -22.3205    1.4371   27.3382 C.2     1  UNL1        0.0307
     41 C         -26.5831    0.5467   29.1010 C.2     1  UNL1        0.2263
     42 C         -21.3354    2.0843   26.6068 C.3     1  UNL1        0.1708
     43 C         -29.0976    0.4413   29.0713 C.3     1  UNL1        0.0091
@<TRIPOS>BOND
     1     1    34    1
     2     2     7    1
     3     2     1    1
     4     3     2    2
     5     4     3    1
     6     4     5    2
     7     5     6    1
     8     6     7    2
     9     8     1    1
    10     8     9    1
    11     8    12    1
    12     9    10    1
    13    10    11    1
    14    12    11    1
    15    13    28    1
    16    14    13    1
    17    14    15    1
    18    15    18    2
    19    16    17    1
    20    16    15    1
    21    19    14    2
    22    20    21    2
    23    20    19    1
    24    21    26    1
    25    22    21    1
    26    23    22    1
    27    24    23    1
    28    24    25    1
    29    26    27    1
    30    26    13    2
    31    28    30    1
    32    29    43    1
    33    30    38    1
    34    30    34    1
    35    33    43    1
    36    33    41    1
    37    36    39    1
    38    36    37    1
    39    37    28    2
    40    37    40    1
    41    38    31    1
    42    39    42    1
    43    40    38    2
    44    41    34   am
    45    41    32    2
    46    42    40    1
    47    43    35    1
