@<TRIPOS>MOLECULE
No_561-gen_results/8p0m/2024-11-27-11-27-31/
 16 17 0 0 0
SMALL
GASTEIGER

@<TRIPOS>ATOM
      1 C         -28.0162   -0.8135   28.8779 C.ar    1  UNL1       -0.0000
      2 C         -28.4690   -0.7850   29.8287 C.ar    1  UNL1       -0.0000
      3 C         -28.1960    0.3478   28.0550 C.ar    1  UNL1       -0.0000
      4 C         -27.4421    0.5100   26.7947 C.ar    1  UNL1       -0.0000
      5 C         -26.1689   -0.0794   26.6787 C.ar    1  UNL1       -0.0000
      6 C         -25.7312   -0.9607   27.6875 C.ar    1  UNL1       -0.0000
      7 C         -26.5043   -1.2222   28.7582 C.ar    1  UNL1       -0.0003
      8 C         -28.3432   -2.0040   30.7789 C.ar    1  UNL1       -0.0000
      9 C         -27.1022   -2.6901   30.6797 C.ar    1  UNL1       -0.0003
     10 C         -26.1200   -2.3552   29.6514 C.ar    1  UNL1       -0.0039
     11 C         -24.9752   -3.1271   29.4458 C.2     1  UNL1       -0.0198
     12 C         -23.8019   -2.6251   29.0905 C.2     1  UNL1       -0.0045
     13 C         -25.2051   -4.5220   29.3429 C.3     1  UNL1        0.0577
     14 C         -26.4247   -5.1944   29.5031 C.3     1  UNL1        0.0076
     15 C         -24.0993   -5.3696   28.9221 C.3     1  UNL1        0.1975
     16 F         -23.0289   -4.8242   28.5430 F       1  UNL1       -0.2340
@<TRIPOS>BOND
     1    10    11    1
     2    11    12    2
     3    11    13    1
     4    13    14    1
     5    13    15    1
     6    15    16    1
     7     1     2   ar
     8     2     8   ar
     9     8     9   ar
    10     9    10   ar
    11    10     7   ar
    12     1     3   ar
    13     3     4   ar
    14     4     5   ar
    15     5     6   ar
    16     6     7   ar
    17     7     1   ar
