@<TRIPOS>MOLECULE
outputs/IAG933/test6/raw/output_5611_IAG933_linker_design_.xyz
 41 44 0 0 0
SMALL
GASTEIGER

@<TRIPOS>ATOM
      1 C         -24.8550   -1.0120   30.1430 C.3     1  UNL1        0.0437
      2 C         -24.9730   -2.5050   29.7880 C.2     1  UNL1       -0.0208
      3 C         -23.9060   -3.1730   29.1460 C.2     1  UNL1       -0.0042
      4 C         -23.9890   -4.5490   28.8530 C.2     1  UNL1       -0.0003
      5 C         -25.1370   -5.2800   29.2050 C.2     1  UNL1       -0.0000
      6 C         -26.2320   -4.6110   29.7840 C.2     1  UNL1       -0.0003
      7 C         -26.1550   -3.2320   30.0650 C.2     1  UNL1       -0.0042
      8 C         -25.3870   -0.6790   31.5710 C.3     1  UNL1        0.0771
      9 C         -25.1890    0.7730   32.0280 C.3     1  UNL1        0.0184
     10 C         -25.3360    0.6840   33.5440 C.3     1  UNL1        0.0202
     11 C         -24.8290   -0.7150   33.9050 C.3     1  UNL1        0.0887
     12 N         -24.7580   -1.4810   32.6460 N.3     1  UNL1       -0.2191
     13 C         -25.6880    1.6140   26.4610 C.2     1  UNL1        0.1035
     14 C         -26.2500    2.9200   26.3950 C.2     1  UNL1        0.0914
     15 C         -25.6420    4.0930   27.1230 C.2     1  UNL1        0.2677
     16 N         -25.6140    5.2520   26.4490 N.am    1  UNL1       -0.1997
     17 C         -25.0260    6.4790   26.9630 C.3     1  UNL1        0.1388
     18 O         -25.1430    3.9660   28.2430 O.2     1  UNL1       -0.2683
     19 C         -27.4380    3.0910   25.6450 C.2     1  UNL1        0.1080
     20 N         -28.0750    2.0890   25.0030 N.2     1  UNL1       -0.2080
     21 C         -27.5430    0.8490   25.0790 C.2     1  UNL1        0.2546
     22 O         -28.1930   -0.2080   24.4770 O.2     1  UNL1       -0.4558
     23 C         -29.4600    0.0050   23.8660 C.3     1  UNL1        0.2426
     24 C         -30.0650   -1.3770   23.5730 C.3     1  UNL1        0.2292
     25 O         -30.7290   -1.8780   24.7210 O.3     1  UNL1       -0.2162
     26 C         -26.3540    0.5760   25.7770 C.2     1  UNL1        0.2078
     27 F         -25.8600   -0.6810   25.7950 F       1  UNL1       -0.1979
     28 O         -21.3533    1.6297   27.2077 O.3     1  UNL1       -0.1902
     29 O         -24.6224    4.5743   32.8784 O.co2   1  UNL1       -0.2457
     30 C         -22.0857    2.4106   24.5040 C.3     1  UNL1        0.1770
     31 C         -22.9220    1.5603   28.9775 C.3     1  UNL1        0.1774
     32 C         -24.8503    2.8932   31.0795 C.3     1  UNL1        0.1060
     33 C         -22.5746    1.9674   26.8261 C.3     1  UNL1        0.2914
     34 C         -26.0847    2.0545   31.4052 C.3     1  UNL1        0.0128
     35 C         -23.5213    1.5677   27.6890 C.3     1  UNL1        0.1817
     36 O         -21.5425    1.2947   28.6410 O.3     1  UNL1       -0.2188
     37 O         -26.0764    4.9296   31.1971 O.co2   1  UNL1       -0.2457
     38 C         -23.6801    1.9619   30.3277 C.3     1  UNL1        0.0461
     39 C         -25.1742    4.2351   31.8290 C.2     1  UNL1        0.3644
     40 O         -22.8932    2.6550   25.6233 O.3     1  UNL1       -0.3245
     41 N         -24.7163    1.0682   27.2555 N.pl3   1  UNL1       -0.2288
@<TRIPOS>BOND
     1     2     7    1
     2     2     1    1
     3     3     2    2
     4     4     3    1
     5     4     5    2
     6     5     6    1
     7     6     7    2
     8     8     1    1
     9     8     9    1
    10     8    12    1
    11     9    34    1
    12     9    10    1
    13    10    11    1
    14    12    11    1
    15    13    41    1
    16    14    13    1
    17    14    15    1
    18    15    18    2
    19    16    17    1
    20    16    15    1
    21    19    14    2
    22    20    21    2
    23    20    19    1
    24    21    26    1
    25    22    21    1
    26    23    22    1
    27    24    23    1
    28    24    25    1
    29    26    27    1
    30    26    13    2
    31    28    36    1
    32    30    40    1
    33    31    38    1
    34    32    38    1
    35    32    34    1
    36    32    39    1
    37    33    40    1
    38    33    28    1
    39    33    35    1
    40    35    41    1
    41    35    31    1
    42    36    31    1
    43    37    39   ar
    44    39    29   ar
