@<TRIPOS>MOLECULE
outputs/IAG933/test6/raw/output_5612_IAG933_linker_design_.xyz
 59 65 0 0 0
SMALL
GASTEIGER

@<TRIPOS>ATOM
      1 C         -24.8550   -1.0120   30.1430 C.3     1  UNL1        0.0572
      2 C         -24.9730   -2.5050   29.7880 C.2     1  UNL1       -0.0195
      3 C         -23.9060   -3.1730   29.1460 C.2     1  UNL1       -0.0042
      4 C         -23.9890   -4.5490   28.8530 C.2     1  UNL1       -0.0003
      5 C         -25.1370   -5.2800   29.2050 C.2     1  UNL1       -0.0000
      6 C         -26.2320   -4.6110   29.7840 C.2     1  UNL1       -0.0003
      7 C         -26.1550   -3.2320   30.0650 C.2     1  UNL1       -0.0042
      8 C         -25.3870   -0.6790   31.5710 C.3     1  UNL1        0.0784
      9 C         -25.1890    0.7730   32.0280 C.3     1  UNL1        0.0192
     10 C         -25.3360    0.6840   33.5440 C.3     1  UNL1        0.0202
     11 C         -24.8290   -0.7150   33.9050 C.3     1  UNL1        0.0887
     12 N         -24.7580   -1.4810   32.6460 N.3     1  UNL1       -0.2191
     13 C         -25.6880    1.6140   26.4610 C.2     1  UNL1        0.0320
     14 C         -26.2500    2.9200   26.3950 C.2     1  UNL1        0.0739
     15 C         -25.6420    4.0930   27.1230 C.2     1  UNL1        0.2662
     16 N         -25.6140    5.2520   26.4490 N.am    1  UNL1       -0.1997
     17 C         -25.0260    6.4790   26.9630 C.3     1  UNL1        0.1388
     18 O         -25.1430    3.9660   28.2430 O.2     1  UNL1       -0.2683
     19 C         -27.4380    3.0910   25.6450 C.2     1  UNL1        0.1065
     20 N         -28.0750    2.0890   25.0030 N.2     1  UNL1       -0.2081
     21 C         -27.5430    0.8490   25.0790 C.2     1  UNL1        0.2530
     22 O         -28.1930   -0.2080   24.4770 O.2     1  UNL1       -0.4560
     23 C         -29.4600    0.0050   23.8660 C.3     1  UNL1        0.2391
     24 C         -30.0650   -1.3770   23.5730 C.3     1  UNL1        0.1894
     25 O         -30.7290   -1.8780   24.7210 O.3     1  UNL1       -0.3497
     26 C         -26.3540    0.5760   25.7770 C.2     1  UNL1        0.1904
     27 F         -25.8600   -0.6810   25.7950 F       1  UNL1       -0.1995
     28 C         -30.0148    0.6547   29.6536 C.2     1  UNL1       -0.0248
     29 C         -32.4605   -2.5990   26.2041 C.3     1  UNL1        0.0585
     30 O         -33.2583   -2.2630   32.3193 O.3     1  UNL1       -0.2188
     31 C         -28.2890   -1.0889   30.1376 C.2     1  UNL1       -0.0033
     32 C         -32.1521   -2.0938   24.8115 C.3     1  UNL1        0.1444
     33 N         -32.5830   -0.4534   30.2449 N.3     1  UNL1       -0.2158
     34 C         -32.9830   -3.7496   28.0531 C.2     1  UNL1        0.2258
     35 O         -22.4318    0.0544   29.5375 O.3     1  UNL1       -0.2005
     36 N         -32.6464   -2.5941   28.4126 N.am    1  UNL1       -0.2779
     37 CA        -33.7732   -1.2551   30.2698 C.3     1  UNL1        0.1254
     38 C         -25.6134   -0.2258   29.0409 C.3     1  UNL1        0.0879
     39 C         -29.6210   -0.6250   30.3028 C.2     1  UNL1       -0.0048
     40 C         -31.2301    1.3998   29.9396 C.3     1  UNL1        0.0432
     41 C         -33.6981    5.7311   31.2666 C.3     1  UNL1        0.0738
     42 C         -32.9819    2.8089   31.6310 C.2     1  UNL1       -0.0228
     43 C         -29.0821    1.2058   28.8033 C.2     1  UNL1       -0.0260
     44 C         -27.2375   -0.2782   29.4256 C.2     1  UNL1       -0.0077
     45 C         -32.9684   -2.3301   29.5746 C.3     1  UNL1        0.1134
     46 C         -29.5473    1.9479   27.6742 C.3     1  UNL1        0.0307
     47 O         -33.1651   -4.7771   28.8671 O.2     1  UNL1       -0.2749
     48 C         -23.1379   -0.2343   28.3843 C.3     1  UNL1        0.2594
     49 N         -24.4522    0.6392   28.3574 N.3     1  UNL1       -0.2380
     50 C         -32.2397    3.4678   30.6222 C.2     1  UNL1       -0.0008
     51 S         -32.4387    5.1541   30.2780 S.3     1  UNL1       -0.1174
     52 C         -32.8586    1.4031   31.7325 C.3     1  UNL1        0.0439
     53 C         -32.2579    0.7890   30.6328 C.3     1  UNL1        0.0815
     54 C         -27.7360    0.9136   28.9169 C.2     1  UNL1       -0.0075
     55 C         -24.3154    1.4148   27.0519 C.3     1  UNL1        0.1040
     56 C         -33.0019   -3.7752   26.6219 C.3     1  UNL1        0.0895
     57 C         -31.4393    2.7745   29.6907 C.3     1  UNL1        0.0380
     58 C         -34.1320   -1.4301   31.6515 C.3     1  UNL1        0.2010
     59 C         -32.1375   -1.8322   27.3135 C.3     1  UNL1        0.0964
@<TRIPOS>BOND
     1     1     2    1
     2     2     7    1
     3     3     2    2
     4     4     3    1
     5     4     5    2
     6     5     6    1
     7     6     7    2
     8     8     1    1
     9     8     9    1
    10     8    12    1
    11     9    10    1
    12    10    11    1
    13    12    11    1
    14    13    55    1
    15    14    13    1
    16    14    15    1
    17    15    18    2
    18    16    17    1
    19    16    15    1
    20    19    14    2
    21    20    21    2
    22    20    19    1
    23    21    26    1
    24    22    21    1
    25    23    22    1
    26    24    23    1
    27    24    25    1
    28    25    32    1
    29    26    27    1
    30    26    13    2
    31    28    40    1
    32    28    39    1
    33    29    32    1
    34    29    56    1
    35    29    59    1
    36    31    39    2
    37    33    37    1
    38    33    53    1
    39    34    36   am
    40    34    47    2
    41    36    45    1
    42    37    58    1
    43    38    44    1
    44    38     1    1
    45    40    57    1
    46    40    53    1
    47    42    52    1
    48    43    54    1
    49    43    28    2
    50    44    31    1
    51    45    37    1
    52    46    43    1
    53    48    35    1
    54    49    48    1
    55    49    38    1
    56    50    42    2
    57    51    50    1
    58    51    41    1
    59    53    52    1
    60    54    44    2
    61    55    49    1
    62    56    34    1
    63    57    50    1
    64    58    30    1
    65    59    36    1
