@<TRIPOS>MOLECULE
outputs/IAG933/test6/raw/output_5613_IAG933_linker_design_.xyz
 44 47 0 0 0
SMALL
GASTEIGER

@<TRIPOS>ATOM
      1 C         -24.8550   -1.0120   30.1430 C.3     1  UNL1        0.0625
      2 C         -24.9730   -2.5050   29.7880 C.2     1  UNL1       -0.0191
      3 C         -23.9060   -3.1730   29.1460 C.2     1  UNL1       -0.0042
      4 C         -23.9890   -4.5490   28.8530 C.2     1  UNL1       -0.0003
      5 C         -25.1370   -5.2800   29.2050 C.2     1  UNL1       -0.0000
      6 C         -26.2320   -4.6110   29.7840 C.2     1  UNL1       -0.0003
      7 C         -26.1550   -3.2320   30.0650 C.2     1  UNL1       -0.0042
      8 C         -25.3870   -0.6790   31.5710 C.3     1  UNL1        0.0788
      9 C         -25.1890    0.7730   32.0280 C.3     1  UNL1        0.0193
     10 C         -25.3360    0.6840   33.5440 C.3     1  UNL1        0.0202
     11 C         -24.8290   -0.7150   33.9050 C.3     1  UNL1        0.0887
     12 N         -24.7580   -1.4810   32.6460 N.3     1  UNL1       -0.2191
     13 C         -25.6880    1.6140   26.4610 C.2     1  UNL1        0.0378
     14 C         -26.2500    2.9200   26.3950 C.2     1  UNL1        0.0765
     15 C         -25.6420    4.0930   27.1230 C.2     1  UNL1        0.2664
     16 N         -25.6140    5.2520   26.4490 N.am    1  UNL1       -0.1997
     17 C         -25.0260    6.4790   26.9630 C.3     1  UNL1        0.1388
     18 O         -25.1430    3.9660   28.2430 O.2     1  UNL1       -0.2683
     19 C         -27.4380    3.0910   25.6450 C.2     1  UNL1        0.1067
     20 N         -28.0750    2.0890   25.0030 N.2     1  UNL1       -0.2081
     21 C         -27.5430    0.8490   25.0790 C.2     1  UNL1        0.2533
     22 O         -28.1930   -0.2080   24.4770 O.2     1  UNL1       -0.4558
     23 C         -29.4600    0.0050   23.8660 C.3     1  UNL1        0.2426
     24 C         -30.0650   -1.3770   23.5730 C.3     1  UNL1        0.2292
     25 O         -30.7290   -1.8780   24.7210 O.3     1  UNL1       -0.2162
     26 C         -26.3540    0.5760   25.7770 C.2     1  UNL1        0.1930
     27 F         -25.8600   -0.6810   25.7950 F       1  UNL1       -0.1992
     28 O         -32.1984   -0.4095   29.8114 O.3     1  UNL1       -0.2131
     29 C         -24.2043    0.7154   28.2620 C.2     1  UNL1       -0.0021
     30 C         -28.5457    0.2413   29.7808 C.3     1  UNL1        0.0900
     31 C         -29.6067   -0.0822   28.6771 C.3     1  UNL1        0.0522
     32 C         -25.2059   -0.0305   28.9768 C.3     1  UNL1        0.1228
     33 O         -29.3703   -2.4839   29.7267 O.2     1  UNL1       -0.2689
     34 C         -30.4038   -1.8928   30.1117 C.2     1  UNL1        0.2912
     35 N         -31.2570   -2.4745   30.8416 N.am    1  UNL1       -0.0856
     36 O         -27.6207    2.1085   28.9982 O.2     1  UNL1       -0.2733
     37 N         -26.4999   -0.0198   28.5162 N.am    1  UNL1       -0.2023
     38 C         -27.4959    0.8227   29.1159 C.2     1  UNL1        0.2417
     39 C         -21.8288    1.3010   27.9567 C.2     1  UNL1       -0.0003
     40 C         -23.3501    1.8375   26.1847 C.2     1  UNL1       -0.0002
     41 C         -30.7232   -0.4109   29.7461 C.3     1  UNL1        0.2312
     42 C         -22.8710    0.8086   28.7308 C.2     1  UNL1       -0.0026
     43 C         -22.0481    1.8040   26.6653 C.2     1  UNL1       -0.0000
     44 C         -24.3748    1.3541   26.9993 C.2     1  UNL1        0.0002
@<TRIPOS>BOND
     1     1    32    1
     2     2     7    1
     3     2     1    1
     4     3     2    2
     5     4     3    1
     6     4     5    2
     7     5     6    1
     8     6     7    2
     9     8     1    1
    10     8     9    1
    11     8    12    1
    12     9    10    1
    13    10    11    1
    14    12    11    1
    15    13    44    1
    16    14    13    1
    17    14    15    1
    18    15    18    2
    19    16    17    1
    20    16    15    1
    21    19    14    2
    22    20    21    2
    23    20    19    1
    24    21    26    1
    25    22    21    1
    26    23    22    1
    27    24    23    1
    28    24    25    1
    29    26    27    1
    30    26    13    2
    31    29    42    1
    32    29    32    1
    33    31    41    1
    34    31    30    1
    35    32    37    1
    36    33    34    2
    37    34    35    1
    38    36    38    2
    39    37    38    1
    40    38    30    1
    41    39    42    2
    42    40    43    2
    43    40    44    1
    44    41    28    1
    45    41    34    1
    46    43    39    1
    47    44    29    2
