@<TRIPOS>MOLECULE
outputs/IAG933/test6/raw/output_5614_IAG933_linker_design_.xyz
 41 44 0 0 0
SMALL
GASTEIGER

@<TRIPOS>ATOM
      1 C         -24.8550   -1.0120   30.1430 C.3     1  UNL1        0.1277
      2 C         -24.9730   -2.5050   29.7880 C.2     1  UNL1       -0.0040
      3 C         -23.9060   -3.1730   29.1460 C.2     1  UNL1       -0.0029
      4 C         -23.9890   -4.5490   28.8530 C.2     1  UNL1       -0.0003
      5 C         -25.1370   -5.2800   29.2050 C.2     1  UNL1       -0.0000
      6 C         -26.2320   -4.6110   29.7840 C.2     1  UNL1       -0.0003
      7 C         -26.1550   -3.2320   30.0650 C.2     1  UNL1       -0.0029
      8 C         -25.3870   -0.6790   31.5710 C.3     1  UNL1        0.0940
      9 C         -25.1890    0.7730   32.0280 C.3     1  UNL1        0.0207
     10 C         -25.3360    0.6840   33.5440 C.3     1  UNL1        0.0203
     11 C         -24.8290   -0.7150   33.9050 C.3     1  UNL1        0.0888
     12 N         -24.7580   -1.4810   32.6460 N.3     1  UNL1       -0.2177
     13 C         -25.6880    1.6140   26.4610 C.2     1  UNL1        0.0477
     14 C         -26.2500    2.9200   26.3950 C.2     1  UNL1        0.0752
     15 C         -25.6420    4.0930   27.1230 C.2     1  UNL1        0.2662
     16 N         -25.6140    5.2520   26.4490 N.am    1  UNL1       -0.1997
     17 C         -25.0260    6.4790   26.9630 C.3     1  UNL1        0.1388
     18 O         -25.1430    3.9660   28.2430 O.2     1  UNL1       -0.2683
     19 C         -27.4380    3.0910   25.6450 C.2     1  UNL1        0.1065
     20 N         -28.0750    2.0890   25.0030 N.2     1  UNL1       -0.2081
     21 C         -27.5430    0.8490   25.0790 C.2     1  UNL1        0.2531
     22 O         -28.1930   -0.2080   24.4770 O.2     1  UNL1       -0.4558
     23 C         -29.4600    0.0050   23.8660 C.3     1  UNL1        0.2426
     24 C         -30.0650   -1.3770   23.5730 C.3     1  UNL1        0.2292
     25 O         -30.7290   -1.8780   24.7210 O.3     1  UNL1       -0.2162
     26 C         -26.3540    0.5760   25.7770 C.2     1  UNL1        0.1917
     27 F         -25.8600   -0.6810   25.7950 F       1  UNL1       -0.1995
     28 C         -23.2590    1.6520   26.8323 C.2     1  UNL1        0.1259
     29 C         -24.6060    1.1531   27.3484 C.3     1  UNL1        0.1773
     30 C         -21.8917    1.5966   27.0119 C.1     1  UNL1       -0.0567
     31 O         -24.4353    1.4091   28.6952 O.3     1  UNL1       -0.3313
     32 O         -23.2769    2.9468   24.9016 O.co2   1  UNL1       -0.2401
     33 C         -20.6548    1.7484   27.3990 C.2     1  UNL1        0.2155
     34 O         -23.4479    0.7765   24.8331 O.co2   1  UNL1       -0.2401
     35 O         -19.9531    0.7500   27.9615 O.2     1  UNL1       -0.4654
     36 C         -23.3102    1.8070   25.4829 C.2     1  UNL1        0.3935
     37 O         -22.7348   -0.5171   30.9008 O.3     1  UNL1       -0.1154
     38 C         -23.2444    0.4970   29.1848 C.3     1  UNL1        0.2065
     39 C         -20.8336   -0.0546   28.5513 C.3     1  UNL1        0.2104
     40 C         -21.8497    0.4163   29.0222 C.3     1  UNL1        0.0963
     41 N         -23.5842   -0.3315   29.9356 N.3     1  UNL1       -0.1030
@<TRIPOS>BOND
     1     1    41    1
     2     2     7    1
     3     2     1    1
     4     3     2    2
     5     4     3    1
     6     4     5    2
     7     5     6    1
     8     6     7    2
     9     8     1    1
    10     8     9    1
    11     8    12    1
    12     9    10    1
    13    10    11    1
    14    12    11    1
    15    14    13    1
    16    14    15    1
    17    15    18    2
    18    16    17    1
    19    16    15    1
    20    19    14    2
    21    20    21    2
    22    20    19    1
    23    21    26    1
    24    22    21    1
    25    23    22    1
    26    24    23    1
    27    24    25    1
    28    26    27    1
    29    26    13    2
    30    28    30    2
    31    28    29    1
    32    29    13    1
    33    29    31    1
    34    30    33    2
    35    31    38    1
    36    32    36   ar
    37    33    35    1
    38    34    36   ar
    39    35    39    1
    40    36    28    1
    41    38    41    1
    42    39    40    1
    43    40    38    1
    44    41    37    1
