@<TRIPOS>MOLECULE
outputs/IAG933/test6/raw/output_5623_IAG933_linker_design_.xyz
 39 42 0 0 0
SMALL
GASTEIGER

@<TRIPOS>ATOM
      1 C         -24.8550   -1.0120   30.1430 C.3     1  UNL1        0.0996
      2 C         -24.9730   -2.5050   29.7880 C.2     1  UNL1       -0.0063
      3 C         -23.9060   -3.1730   29.1460 C.2     1  UNL1       -0.0029
      4 C         -23.9890   -4.5490   28.8530 C.2     1  UNL1       -0.0003
      5 C         -25.1370   -5.2800   29.2050 C.2     1  UNL1       -0.0000
      6 C         -26.2320   -4.6110   29.7840 C.2     1  UNL1       -0.0003
      7 C         -26.1550   -3.2320   30.0650 C.2     1  UNL1       -0.0029
      8 C         -25.3870   -0.6790   31.5710 C.3     1  UNL1        0.0917
      9 C         -25.1890    0.7730   32.0280 C.3     1  UNL1        0.0206
     10 C         -25.3360    0.6840   33.5440 C.3     1  UNL1        0.0203
     11 C         -24.8290   -0.7150   33.9050 C.3     1  UNL1        0.0888
     12 N         -24.7580   -1.4810   32.6460 N.3     1  UNL1       -0.2178
     13 C         -25.6880    1.6140   26.4610 C.2     1  UNL1        0.0876
     14 C         -26.2500    2.9200   26.3950 C.2     1  UNL1        0.0899
     15 C         -25.6420    4.0930   27.1230 C.2     1  UNL1        0.2676
     16 N         -25.6140    5.2520   26.4490 N.am    1  UNL1       -0.1997
     17 C         -25.0260    6.4790   26.9630 C.3     1  UNL1        0.1388
     18 O         -25.1430    3.9660   28.2430 O.2     1  UNL1       -0.2683
     19 C         -27.4380    3.0910   25.6450 C.2     1  UNL1        0.1080
     20 N         -28.0750    2.0890   25.0030 N.2     1  UNL1       -0.2080
     21 C         -27.5430    0.8490   25.0790 C.2     1  UNL1        0.2546
     22 O         -28.1930   -0.2080   24.4770 O.2     1  UNL1       -0.4558
     23 C         -29.4600    0.0050   23.8660 C.3     1  UNL1        0.2426
     24 C         -30.0650   -1.3770   23.5730 C.3     1  UNL1        0.2292
     25 O         -30.7290   -1.8780   24.7210 O.3     1  UNL1       -0.2162
     26 C         -26.3540    0.5760   25.7770 C.2     1  UNL1        0.2063
     27 F         -25.8600   -0.6810   25.7950 F       1  UNL1       -0.1979
     28 N         -25.4150   -0.0801   29.1679 N.3     1  UNL1       -0.2270
     29 C         -23.7045    1.4845   26.7626 C.3     1  UNL1        0.1449
     30 F         -21.2729    1.5061   27.1553 F       1  UNL1       -0.1846
     31 N         -24.7659    1.2852   27.2078 N.pl3   1  UNL1       -0.2853
     32 C         -26.5283    0.3125   28.9110 C.3     1  UNL1        0.2064
     33 C         -23.2639    1.6155   25.2757 C.3     1  UNL1        0.0307
     34 C         -25.1306    0.6257   28.3805 C.3     1  UNL1        0.1800
     35 O         -27.2413   -0.6212   28.2781 O.3     1  UNL1       -0.2057
     36 C         -22.4835    1.1176   27.5163 C.2     1  UNL1        0.2367
     37 C         -28.0303    2.4785   29.7497 C.3     1  UNL1        0.0042
     38 C         -27.8140    1.0667   29.5480 C.3     1  UNL1        0.0494
     39 N         -22.7855    0.6965   28.6664 N.2     1  UNL1       -0.1188
@<TRIPOS>BOND
     1     1     2    1
     2     2     7    1
     3     3     2    2
     4     4     3    1
     5     4     5    2
     6     5     6    1
     7     6     7    2
     8     8     1    1
     9     8     9    1
    10     8    12    1
    11     9    10    1
    12    10    11    1
    13    12    11    1
    14    13    31    1
    15    14    13    1
    16    14    15    1
    17    15    18    2
    18    16    17    1
    19    16    15    1
    20    19    14    2
    21    20    21    2
    22    20    19    1
    23    21    26    1
    24    22    21    1
    25    23    22    1
    26    24    23    1
    27    24    25    1
    28    26    27    1
    29    26    13    2
    30    28     1    1
    31    29    33    1
    32    29    31    1
    33    29    36    1
    34    30    36    1
    35    32    35    1
    36    32    28    1
    37    32    38    1
    38    34    31    1
    39    34    32    1
    40    34    28    1
    41    36    39    2
    42    38    37    1
