@<TRIPOS>MOLECULE
outputs/IAG933/test6/raw/output_5628_IAG933_linker_design_.xyz
 42 46 0 0 0
SMALL
GASTEIGER

@<TRIPOS>ATOM
      1 C         -24.8550   -1.0120   30.1430 C.3     1  UNL1        0.1001
      2 C         -24.9730   -2.5050   29.7880 C.2     1  UNL1       -0.0063
      3 C         -23.9060   -3.1730   29.1460 C.2     1  UNL1       -0.0029
      4 C         -23.9890   -4.5490   28.8530 C.2     1  UNL1       -0.0003
      5 C         -25.1370   -5.2800   29.2050 C.2     1  UNL1       -0.0000
      6 C         -26.2320   -4.6110   29.7840 C.2     1  UNL1       -0.0003
      7 C         -26.1550   -3.2320   30.0650 C.2     1  UNL1       -0.0029
      8 C         -25.3870   -0.6790   31.5710 C.3     1  UNL1        0.0917
      9 C         -25.1890    0.7730   32.0280 C.3     1  UNL1        0.0206
     10 C         -25.3360    0.6840   33.5440 C.3     1  UNL1        0.0203
     11 C         -24.8290   -0.7150   33.9050 C.3     1  UNL1        0.0888
     12 N         -24.7580   -1.4810   32.6460 N.3     1  UNL1       -0.2178
     13 C         -25.6880    1.6140   26.4610 C.2     1  UNL1        0.0370
     14 C         -26.2500    2.9200   26.3950 C.2     1  UNL1        0.0763
     15 C         -25.6420    4.0930   27.1230 C.2     1  UNL1        0.2664
     16 N         -25.6140    5.2520   26.4490 N.am    1  UNL1       -0.1997
     17 C         -25.0260    6.4790   26.9630 C.3     1  UNL1        0.1388
     18 O         -25.1430    3.9660   28.2430 O.2     1  UNL1       -0.2683
     19 C         -27.4380    3.0910   25.6450 C.2     1  UNL1        0.1067
     20 N         -28.0750    2.0890   25.0030 N.2     1  UNL1       -0.2081
     21 C         -27.5430    0.8490   25.0790 C.2     1  UNL1        0.2533
     22 O         -28.1930   -0.2080   24.4770 O.2     1  UNL1       -0.4558
     23 C         -29.4600    0.0050   23.8660 C.3     1  UNL1        0.2426
     24 C         -30.0650   -1.3770   23.5730 C.3     1  UNL1        0.2292
     25 O         -30.7290   -1.8780   24.7210 O.3     1  UNL1       -0.2162
     26 C         -26.3540    0.5760   25.7770 C.2     1  UNL1        0.1928
     27 F         -25.8600   -0.6810   25.7950 F       1  UNL1       -0.1992
     28 N         -23.1101    0.5723   28.8235 N.2     1  UNL1       -0.2500
     29 C         -22.7715    2.3093   25.5456 C.3     1  UNL1        0.0324
     30 C         -28.1707    3.5780   29.5423 C.3     1  UNL1        0.0886
     31 C         -26.1777    4.0451   30.6030 C.2     1  UNL1        0.3446
     32 O         -26.9366    1.4372   29.7314 O.3     1  UNL1       -0.3282
     33 C         -27.1255    2.9548   29.9300 C.3     1  UNL1        0.2185
     34 C         -24.4122    0.5039   28.3819 C.3     1  UNL1        0.1876
     35 O         -25.2480    3.9103   31.3340 O.2     1  UNL1       -0.2474
     36 C         -22.3152    1.2347   27.9005 C.2     1  UNL1        0.0906
     37 C         -28.0230    5.0141   29.6347 C.3     1  UNL1        0.2116
     38 N         -25.3832   -0.1119   29.0651 N.3     1  UNL1       -0.2219
     39 C         -23.1540    1.6148   26.8836 C.2     1  UNL1       -0.0039
     40 C         -24.4891    1.1858   27.2164 C.2     1  UNL1        0.0153
     41 O         -26.7680    5.2618   30.1641 O.3     1  UNL1       -0.4467
     42 C         -26.7846    0.0854   28.7838 C.3     1  UNL1        0.2223
@<TRIPOS>BOND
     1     1    38    1
     2     2     7    1
     3     2     1    1
     4     3     2    2
     5     4     3    1
     6     4     5    2
     7     5     6    1
     8     6     7    2
     9     8     1    1
    10     8     9    1
    11     8    12    1
    12     9    10    1
    13    10    11    1
    14    12    11    1
    15    13    40    1
    16    14    13    1
    17    14    15    1
    18    15    18    2
    19    16    17    1
    20    16    15    1
    21    19    14    2
    22    20    21    2
    23    20    19    1
    24    21    26    1
    25    22    21    1
    26    23    22    1
    27    24    23    1
    28    24    25    1
    29    26    27    1
    30    26    13    2
    31    29    39    1
    32    30    37    1
    33    30    33    1
    34    31    35    2
    35    33    32    1
    36    33    31    1
    37    34    28    1
    38    34    38    1
    39    36    28    2
    40    37    41    1
    41    39    40    2
    42    39    36    1
    43    40    34    1
    44    41    31    1
    45    42    38    1
    46    42    32    1
