@<TRIPOS>MOLECULE
No_563-gen_results/8p0m/2024-11-27-11-27-31/
 35 37 0 0 0
SMALL
GASTEIGER

@<TRIPOS>ATOM
      1 C         -28.0162   -0.8135   28.8779 C.ar    1  UNL1        0.1419
      2 C         -27.0636   -0.1190   28.6079 C.ar    1  UNL1        0.0133
      3 C         -27.0010    0.6913   27.4910 C.ar    1  UNL1       -0.0007
      4 C         -28.1373    0.7363   26.6350 C.ar    1  UNL1        0.0066
      5 C         -29.2360    0.0765   27.0690 C.ar    1  UNL1        0.0376
      6 C         -29.2177   -0.6429   28.1747 C.ar    1  UNL1        0.0439
      7 O         -28.0326   -1.5744   30.0419 O.3     1  UNL1       -0.4507
      8 BR        -30.7411    0.1712   25.9779 Br      1  UNL1       -0.0489
      9 C         -25.6937   -0.1963   29.4339 C.3     1  UNL1        0.0451
     10 C         -25.0696    0.9089   29.8872 C.3     1  UNL1        0.1300
     11 C         -25.3358    1.4663   30.8348 C.ar    1  UNL1       -0.0115
     12 C         -26.3566    1.0670   31.7860 C.ar    1  UNL1       -0.0037
     13 C         -26.7141    1.8779   32.9110 C.ar    1  UNL1       -0.0003
     14 C         -26.0743    3.0766   33.1033 C.ar    1  UNL1       -0.0000
     15 C         -25.0740    3.5626   32.2843 C.ar    1  UNL1       -0.0003
     16 C         -24.7316    2.8004   31.1428 C.ar    1  UNL1       -0.0037
     17 C         -23.9794    1.2597   28.9408 C.2     1  UNL1        0.3687
     18 O         -22.9190    0.9860   29.3043 O.co2   1  UNL1       -0.2453
     19 O         -24.1400    2.3101   28.1673 O.co2   1  UNL1       -0.2453
     20 C         -29.0313   -1.7233   30.9718 C.ar    1  UNL1        0.1796
     21 C         -30.1844   -2.2291   30.6417 C.ar    1  UNL1        0.1798
     22 C         -31.2824   -1.6424   31.0802 C.ar    1  UNL1        0.0408
     23 C         -31.1221   -0.8157   32.1185 C.ar    1  UNL1        0.0079
     24 C         -29.9527   -0.2540   32.5802 C.ar    1  UNL1        0.0586
     25 C         -28.8133   -0.7932   32.0752 C.ar    1  UNL1        0.0452
     26 O         -29.9683   -3.5709   31.0626 O.3     1  UNL1       -0.4438
     27 C         -29.0826   -3.9445   31.7218 C.2     1  UNL1        0.2249
     28 C         -29.0358   -5.6105   31.5792 C.2     1  UNL1        0.2747
     29 O         -29.2578   -6.1940   32.6229 O.2     1  UNL1       -0.2796
     30 C         -29.8854    0.6155   33.8141 C.2     1  UNL1        0.2691
     31 O         -29.0516    0.3858   34.6238 O.2     1  UNL1       -0.2680
     32 N         -30.9297    1.4341   34.0622 N.am    1  UNL1       -0.1745
     33 C         -30.8653    2.3023   35.2250 C.2     1  UNL1        0.0844
     34 C         -31.7640    2.9647   35.3879 C.2     1  UNL1       -0.0079
     35 C         -31.8580    3.9166   36.5535 C.3     1  UNL1        0.0321
@<TRIPOS>BOND
     1     1     7    1
     2     5     8    1
     3     2     9    1
     4     9    10    1
     5    10    17    1
     6    17    18   ar
     7    17    19   ar
     8     7    20    1
     9    21    26    1
    10    26    27    1
    11    27    28    2
    12    28    29    1
    13    24    30    1
    14    30    31    2
    15    30    32   am
    16    32    33    1
    17    33    34    2
    18    34    35    1
    19    10    11    1
    20    11    12   ar
    21    12    13   ar
    22    13    14   ar
    23    14    15   ar
    24    15    16   ar
    25    16    11   ar
    26     1     2   ar
    27     2     3   ar
    28     3     4   ar
    29     4     5   ar
    30     5     6   ar
    31     6     1   ar
    32    20    21   ar
    33    21    22   ar
    34    22    23   ar
    35    23    24   ar
    36    24    25   ar
    37    25    20   ar
