@<TRIPOS>MOLECULE
outputs/IAG933/test6/raw/output_5637_IAG933_linker_design_.xyz
 46 50 0 0 0
SMALL
GASTEIGER

@<TRIPOS>ATOM
      1 C         -24.8550   -1.0120   30.1430 C.3     1  UNL1        0.1183
      2 C         -24.9730   -2.5050   29.7880 C.2     1  UNL1       -0.0026
      3 C         -23.9060   -3.1730   29.1460 C.2     1  UNL1       -0.0026
      4 C         -23.9890   -4.5490   28.8530 C.2     1  UNL1       -0.0003
      5 C         -25.1370   -5.2800   29.2050 C.2     1  UNL1       -0.0000
      6 C         -26.2320   -4.6110   29.7840 C.2     1  UNL1       -0.0003
      7 C         -26.1550   -3.2320   30.0650 C.2     1  UNL1       -0.0026
      8 C         -25.3870   -0.6790   31.5710 C.3     1  UNL1        0.0955
      9 C         -25.1890    0.7730   32.0280 C.3     1  UNL1        0.0209
     10 C         -25.3360    0.6840   33.5440 C.3     1  UNL1        0.0203
     11 C         -24.8290   -0.7150   33.9050 C.3     1  UNL1        0.0888
     12 N         -24.7580   -1.4810   32.6460 N.3     1  UNL1       -0.2174
     13 C         -25.6880    1.6140   26.4610 C.2     1  UNL1        0.0393
     14 C         -26.2500    2.9200   26.3950 C.2     1  UNL1        0.0766
     15 C         -25.6420    4.0930   27.1230 C.2     1  UNL1        0.2664
     16 N         -25.6140    5.2520   26.4490 N.am    1  UNL1       -0.1997
     17 C         -25.0260    6.4790   26.9630 C.3     1  UNL1        0.1388
     18 O         -25.1430    3.9660   28.2430 O.2     1  UNL1       -0.2683
     19 C         -27.4380    3.0910   25.6450 C.2     1  UNL1        0.1067
     20 N         -28.0750    2.0890   25.0030 N.2     1  UNL1       -0.2081
     21 C         -27.5430    0.8490   25.0790 C.2     1  UNL1        0.2533
     22 O         -28.1930   -0.2080   24.4770 O.2     1  UNL1       -0.4558
     23 C         -29.4600    0.0050   23.8660 C.3     1  UNL1        0.2426
     24 C         -30.0650   -1.3770   23.5730 C.3     1  UNL1        0.2292
     25 O         -30.7290   -1.8780   24.7210 O.3     1  UNL1       -0.2162
     26 C         -26.3540    0.5760   25.7770 C.2     1  UNL1        0.1931
     27 F         -25.8600   -0.6810   25.7950 F       1  UNL1       -0.1992
     28 O         -29.3992    6.7950   29.2560 O.co2   1  UNL1       -0.2437
     29 C         -27.7953    1.1998   29.4144 C.2     1  UNL1        0.0515
     30 N         -28.7181    3.2818   30.3736 N.pl3   1  UNL1       -0.2929
     31 C         -30.1169    1.6575   29.3732 C.2     1  UNL1        0.0157
     32 C         -22.1300    1.6365   27.0767 C.2     1  UNL1        0.0001
     33 C         -28.8460    4.8061   30.5749 C.3     1  UNL1        0.2067
     34 C         -27.5982    2.4037   30.1169 C.3     1  UNL1        0.1227
     35 O         -28.6712    4.9970   28.1751 O.co2   1  UNL1       -0.2437
     36 C         -23.2932    1.7502   26.3760 C.2     1  UNL1        0.0013
     37 C         -28.9786    0.9326   28.9265 C.2     1  UNL1        0.0032
     38 C         -29.9601    2.7525   30.1954 C.2     1  UNL1        0.0620
     39 C         -24.5754    0.6643   28.4551 C.2     1  UNL1        0.0544
     40 C         -22.1608    1.2138   28.4596 C.2     1  UNL1        0.0013
     41 C         -28.9850    5.6088   29.2702 C.2     1  UNL1        0.3847
     42 C         -24.4716    1.3038   27.1557 C.2     1  UNL1        0.0162
     43 C         -26.9287   -0.0176   29.1811 C.2     1  UNL1        0.2506
     44 C         -23.3167    0.6279   29.0632 C.2     1  UNL1        0.0149
     45 N         -25.5264   -0.1104   29.1782 N.am    1  UNL1       -0.2517
     46 O         -27.7389   -1.0987   29.0734 O.2     1  UNL1       -0.2698
@<TRIPOS>BOND
     1     1    45    1
     2     2     7    1
     3     2     1    1
     4     3     2    2
     5     4     3    1
     6     4     5    2
     7     5     6    1
     8     6     7    2
     9     8     1    1
    10     8     9    1
    11     8    12    1
    12     9    10    1
    13    10    11    1
    14    12    11    1
    15    13    42    1
    16    14    13    1
    17    14    15    1
    18    15    18    2
    19    16    17    1
    20    16    15    1
    21    19    14    2
    22    20    21    2
    23    20    19    1
    24    21    26    1
    25    22    21    1
    26    23    22    1
    27    24    23    1
    28    24    25    1
    29    26    27    1
    30    26    13    2
    31    28    41   ar
    32    29    34    1
    33    30    33    1
    34    31    38    2
    35    32    40    1
    36    34    30    1
    37    35    41   ar
    38    36    32    2
    39    36    42    1
    40    37    31    1
    41    37    29    2
    42    38    30    1
    43    39    44    1
    44    39    45    1
    45    40    44    2
    46    41    33    1
    47    42    39    2
    48    43    29    1
    49    45    43   am
    50    46    43    2
