@<TRIPOS>MOLECULE
outputs/IAG933/test6/raw/output_5638_IAG933_linker_design_.xyz
 40 43 0 0 0
SMALL
GASTEIGER

@<TRIPOS>ATOM
      1 C         -24.8550   -1.0120   30.1430 C.3     1  UNL1        0.0454
      2 C         -24.9730   -2.5050   29.7880 C.2     1  UNL1       -0.0207
      3 C         -23.9060   -3.1730   29.1460 C.2     1  UNL1       -0.0042
      4 C         -23.9890   -4.5490   28.8530 C.2     1  UNL1       -0.0003
      5 C         -25.1370   -5.2800   29.2050 C.2     1  UNL1       -0.0000
      6 C         -26.2320   -4.6110   29.7840 C.2     1  UNL1       -0.0003
      7 C         -26.1550   -3.2320   30.0650 C.2     1  UNL1       -0.0042
      8 C         -25.3870   -0.6790   31.5710 C.3     1  UNL1        0.0953
      9 C         -25.1890    0.7730   32.0280 C.3     1  UNL1        0.0962
     10 C         -25.3360    0.6840   33.5440 C.3     1  UNL1        0.0401
     11 C         -24.8290   -0.7150   33.9050 C.3     1  UNL1        0.0905
     12 N         -24.7580   -1.4810   32.6460 N.3     1  UNL1       -0.2174
     13 C         -25.6880    1.6140   26.4610 C.3     1  UNL1        0.0972
     14 C         -26.2500    2.9200   26.3950 C.2     1  UNL1        0.0572
     15 C         -25.6420    4.0930   27.1230 C.2     1  UNL1        0.2625
     16 N         -25.6140    5.2520   26.4490 N.am    1  UNL1       -0.2000
     17 C         -25.0260    6.4790   26.9630 C.3     1  UNL1        0.1388
     18 O         -25.1430    3.9660   28.2430 O.2     1  UNL1       -0.2687
     19 C         -27.4380    3.0910   25.6450 C.2     1  UNL1        0.1022
     20 N         -28.0750    2.0890   25.0030 N.2     1  UNL1       -0.2119
     21 C         -27.5430    0.8490   25.0790 C.2     1  UNL1        0.2342
     22 O         -28.1930   -0.2080   24.4770 O.2     1  UNL1       -0.4585
     23 C         -29.4600    0.0050   23.8660 C.3     1  UNL1        0.2423
     24 C         -30.0650   -1.3770   23.5730 C.3     1  UNL1        0.2292
     25 O         -30.7290   -1.8780   24.7210 O.3     1  UNL1       -0.2162
     26 C         -26.3540    0.5760   25.7770 C.3     1  UNL1        0.2423
     27 F         -25.8600   -0.6810   25.7950 F       1  UNL1       -0.2268
     28 C         -22.3115    1.7849   27.3293 C.3     1  UNL1        0.0297
     29 C         -20.8496    1.6151   27.4168 C.3     1  UNL1        0.0026
     30 C         -23.1459    1.5477   28.4681 C.3     1  UNL1        0.1168
     31 O         -25.9379    3.5541   33.0112 O.2     1  UNL1       -0.2262
     32 O         -23.9381    4.2821   32.3792 O.3     1  UNL1       -0.4304
     33 C         -24.0113    2.4151   30.5339 C.3     1  UNL1        0.0992
     34 C         -24.4074    5.5823   32.6735 C.3     1  UNL1        0.2573
     35 C         -24.9116    3.3815   32.3508 C.2     1  UNL1        0.4050
     36 N         -24.6627    2.1227   31.6755 N.am    1  UNL1       -0.2461
     37 C         -24.3645    1.4532   26.8237 C.3     1  UNL1        0.1225
     38 O         -24.1707    0.8254   27.9987 O.3     1  UNL1       -0.3582
     39 C         -22.9459    2.1351   29.7489 C.3     1  UNL1        0.0511
     40 C         -23.1931    1.9949   26.2200 C.3     1  UNL1        0.0324
@<TRIPOS>BOND
     1     2     7    1
     2     2     1    1
     3     3     2    2
     4     4     3    1
     5     4     5    2
     6     5     6    1
     7     6     7    2
     8     8     1    1
     9     8     9    1
    10     8    12    1
    11     9    36    1
    12     9    10    1
    13    10    11    1
    14    12    11    1
    15    13    14    1
    16    13    37    1
    17    14    15    1
    18    15    18    2
    19    16    17    1
    20    16    15    1
    21    19    14    2
    22    20    21    2
    23    20    19    1
    24    21    26    1
    25    22    21    1
    26    23    22    1
    27    24    23    1
    28    24    25    1
    29    26    27    1
    30    26    13    1
    31    28    29    1
    32    28    30    1
    33    30    39    1
    34    32    34    1
    35    33    36    1
    36    35    32    1
    37    35    31    2
    38    36    35   am
    39    37    40    1
    40    37    38    1
    41    38    30    1
    42    39    33    1
    43    40    28    1
