@<TRIPOS>MOLECULE
outputs/IAG933/test6/raw/output_5639_IAG933_linker_design_.xyz
 46 50 0 0 0
SMALL
GASTEIGER

@<TRIPOS>ATOM
      1 C         -24.8550   -1.0120   30.1430 C.3     1  UNL1        0.1058
      2 C         -24.9730   -2.5050   29.7880 C.2     1  UNL1       -0.0153
      3 C         -23.9060   -3.1730   29.1460 C.2     1  UNL1       -0.0040
      4 C         -23.9890   -4.5490   28.8530 C.2     1  UNL1       -0.0003
      5 C         -25.1370   -5.2800   29.2050 C.2     1  UNL1       -0.0000
      6 C         -26.2320   -4.6110   29.7840 C.2     1  UNL1       -0.0003
      7 C         -26.1550   -3.2320   30.0650 C.2     1  UNL1       -0.0040
      8 C         -25.3870   -0.6790   31.5710 C.3     1  UNL1        0.0827
      9 C         -25.1890    0.7730   32.0280 C.3     1  UNL1        0.0194
     10 C         -25.3360    0.6840   33.5440 C.3     1  UNL1        0.0202
     11 C         -24.8290   -0.7150   33.9050 C.3     1  UNL1        0.0887
     12 N         -24.7580   -1.4810   32.6460 N.3     1  UNL1       -0.2189
     13 C         -25.6880    1.6140   26.4610 C.2     1  UNL1        0.0518
     14 C         -26.2500    2.9200   26.3950 C.2     1  UNL1        0.0777
     15 C         -25.6420    4.0930   27.1230 C.2     1  UNL1        0.2665
     16 N         -25.6140    5.2520   26.4490 N.am    1  UNL1       -0.1997
     17 C         -25.0260    6.4790   26.9630 C.3     1  UNL1        0.1388
     18 O         -25.1430    3.9660   28.2430 O.2     1  UNL1       -0.2683
     19 C         -27.4380    3.0910   25.6450 C.2     1  UNL1        0.1068
     20 N         -28.0750    2.0890   25.0030 N.2     1  UNL1       -0.2081
     21 C         -27.5430    0.8490   25.0790 C.2     1  UNL1        0.2533
     22 O         -28.1930   -0.2080   24.4770 O.2     1  UNL1       -0.4558
     23 C         -29.4600    0.0050   23.8660 C.3     1  UNL1        0.2426
     24 C         -30.0650   -1.3770   23.5730 C.3     1  UNL1        0.2292
     25 O         -30.7290   -1.8780   24.7210 O.3     1  UNL1       -0.2162
     26 C         -26.3540    0.5760   25.7770 C.2     1  UNL1        0.1942
     27 F         -25.8600   -0.6810   25.7950 F       1  UNL1       -0.1992
     28 N         -28.4682   -0.1203   29.1339 N.2     1  UNL1       -0.0341
     29 C         -28.4318    3.9371   30.2251 C.3     1  UNL1        0.0054
     30 C         -30.5541   -2.1081   30.3910 C.3     1  UNL1        0.0881
     31 C         -23.3585    1.8525   26.6336 C.2     1  UNL1        0.0120
     32 O         -30.8975   -1.1534   27.9712 O.3     1  UNL1       -0.1636
     33 C         -24.5234    1.3178   27.1340 C.2     1  UNL1        0.0571
     34 S         -30.7835   -0.7078   29.3789 S.3     1  UNL1       -0.0120
     35 C         -29.6796    1.7405   29.9550 C.2     1  UNL1        0.0279
     36 C         -25.1528   -0.1269   28.9900 C.3     1  UNL1        0.2912
     37 N         -26.3637   -0.1250   28.6207 N.pl3   1  UNL1       -0.0171
     38 N         -24.2845    0.6096   28.3124 N.pl3   1  UNL1       -0.2479
     39 C         -27.3419    0.5243   29.1905 C.2     1  UNL1        0.3396
     40 C         -22.9721    0.7134   28.6118 C.2     1  UNL1        0.0643
     41 C         -20.8946    1.7632   27.3166 C.3     1  UNL1        0.0324
     42 C         -28.5079    2.4631   29.9748 C.3     1  UNL1        0.0386
     43 C         -27.3156    1.8128   29.7761 C.3     1  UNL1        0.1256
     44 C         -29.6181    0.4096   29.5189 C.2     1  UNL1        0.2226
     45 C         -32.3140   -0.0957   29.8080 C.3     1  UNL1        0.0881
     46 C         -22.4176    1.6073   27.5234 C.2     1  UNL1       -0.0057
@<TRIPOS>BOND
     1     1    36    1
     2     2     7    1
     3     2     1    1
     4     3     2    2
     5     4     3    1
     6     4     5    2
     7     5     6    1
     8     6     7    2
     9     8     1    1
    10     8     9    1
    11     8    12    1
    12     9    10    1
    13    10    11    1
    14    12    11    1
    15    13    33    1
    16    14    13    1
    17    14    15    1
    18    15    18    2
    19    16    17    1
    20    16    15    1
    21    19    14    2
    22    20    21    2
    23    20    19    1
    24    21    26    1
    25    22    21    1
    26    23    22    1
    27    24    23    1
    28    24    25    1
    29    26    27    1
    30    26    13    2
    31    28    39    2
    32    28    44    1
    33    31    33    2
    34    31    46    1
    35    32    34    1
    36    33    38    1
    37    34    44    1
    38    34    45    1
    39    34    30    1
    40    35    42    1
    41    36    37    1
    42    37    39    1
    43    38    40    1
    44    38    36    1
    45    39    43    1
    46    41    46    1
    47    42    29    1
    48    43    42    1
    49    44    35    2
    50    46    40    2
