@<TRIPOS>MOLECULE
outputs/IAG933/test6/raw/output_5640_IAG933_linker_design_.xyz
 43 46 0 0 0
SMALL
GASTEIGER

@<TRIPOS>ATOM
      1 C         -24.8550   -1.0120   30.1430 C.3     1  UNL1        0.0647
      2 C         -24.9730   -2.5050   29.7880 C.2     1  UNL1       -0.0169
      3 C         -23.9060   -3.1730   29.1460 C.2     1  UNL1       -0.0039
      4 C         -23.9890   -4.5490   28.8530 C.2     1  UNL1       -0.0003
      5 C         -25.1370   -5.2800   29.2050 C.2     1  UNL1       -0.0000
      6 C         -26.2320   -4.6110   29.7840 C.2     1  UNL1       -0.0003
      7 C         -26.1550   -3.2320   30.0650 C.2     1  UNL1       -0.0039
      8 C         -25.3870   -0.6790   31.5710 C.3     1  UNL1        0.0810
      9 C         -25.1890    0.7730   32.0280 C.3     1  UNL1        0.0195
     10 C         -25.3360    0.6840   33.5440 C.3     1  UNL1        0.0203
     11 C         -24.8290   -0.7150   33.9050 C.3     1  UNL1        0.0887
     12 N         -24.7580   -1.4810   32.6460 N.3     1  UNL1       -0.2188
     13 C         -25.6880    1.6140   26.4610 C.3     1  UNL1        0.0784
     14 C         -26.2500    2.9200   26.3950 C.2     1  UNL1        0.0554
     15 C         -25.6420    4.0930   27.1230 C.2     1  UNL1        0.2625
     16 N         -25.6140    5.2520   26.4490 N.am    1  UNL1       -0.2000
     17 C         -25.0260    6.4790   26.9630 C.3     1  UNL1        0.1388
     18 O         -25.1430    3.9660   28.2430 O.2     1  UNL1       -0.2687
     19 C         -27.4380    3.0910   25.6450 C.2     1  UNL1        0.1022
     20 N         -28.0750    2.0890   25.0030 N.2     1  UNL1       -0.2119
     21 C         -27.5430    0.8490   25.0790 C.2     1  UNL1        0.2341
     22 O         -28.1930   -0.2080   24.4770 O.2     1  UNL1       -0.4585
     23 C         -29.4600    0.0050   23.8660 C.3     1  UNL1        0.2423
     24 C         -30.0650   -1.3770   23.5730 C.3     1  UNL1        0.2292
     25 O         -30.7290   -1.8780   24.7210 O.3     1  UNL1       -0.2162
     26 C         -26.3540    0.5760   25.7770 C.3     1  UNL1        0.2406
     27 F         -25.8600   -0.6810   25.7950 F       1  UNL1       -0.2269
     28 C         -29.2606    2.3551   30.2993 C.3     1  UNL1        0.0234
     29 C         -24.8156    0.4414   28.2464 C.2     1  UNL1       -0.0208
     30 C         -20.6321    1.7893   27.0010 C.3     1  UNL1        0.2352
     31 C         -20.9609    0.9937   28.1158 C.2     1  UNL1        0.0625
     32 O         -21.5430    2.1913   26.1102 O.2     1  UNL1       -0.4677
     33 C         -22.9056    2.0313   26.2582 C.2     1  UNL1        0.1719
     34 C         -28.4620    2.1481   29.0262 C.3     1  UNL1        0.1155
     35 N         -27.2398    1.3940   29.3726 N.am    1  UNL1       -0.2019
     36 C         -23.3750    1.3611   27.4406 C.2     1  UNL1        0.0576
     37 C         -22.3113    0.8893   28.4193 C.2     1  UNL1        0.1944
     38 C         -26.9499    0.1376   28.9435 C.2     1  UNL1        0.2608
     39 O         -27.6388   -0.7457   28.5174 O.2     1  UNL1       -0.2687
     40 C         -29.2799    0.9251   30.8550 C.3     1  UNL1        0.0019
     41 C         -25.4670   -0.2005   29.0196 C.2     1  UNL1        0.0340
     42 O         -22.5476    0.3616   29.6890 O.2     1  UNL1       -0.2870
     43 C         -24.7551    1.1707   27.4446 C.3     1  UNL1        0.0577
@<TRIPOS>BOND
     1     1    41    1
     2     2     7    1
     3     2     1    1
     4     3     2    2
     5     4     3    1
     6     4     5    2
     7     5     6    1
     8     6     7    2
     9     8     1    1
    10     8     9    1
    11     8    12    1
    12     9    10    1
    13    10    11    1
    14    12    11    1
    15    13    43    1
    16    14    13    1
    17    14    15    1
    18    15    18    2
    19    16    17    1
    20    16    15    1
    21    19    14    2
    22    20    21    2
    23    20    19    1
    24    21    26    1
    25    22    21    1
    26    23    22    1
    27    24    23    1
    28    24    25    1
    29    26    27    1
    30    26    13    1
    31    28    40    1
    32    29    41    2
    33    30    31    1
    34    31    37    2
    35    32    33    1
    36    32    30    1
    37    33    36    2
    38    34    35    1
    39    34    28    1
    40    36    43    1
    41    36    37    1
    42    37    42    1
    43    38    41    1
    44    38    35    1
    45    39    38    2
    46    43    29    1
