@<TRIPOS>MOLECULE
outputs/IAG933/test6/raw/output_5643_IAG933_linker_design_.xyz
 39 42 0 0 0
SMALL
GASTEIGER

@<TRIPOS>ATOM
      1 C         -24.8550   -1.0120   30.1430 C.3     1  UNL1        0.1001
      2 C         -24.9730   -2.5050   29.7880 C.2     1  UNL1       -0.0139
      3 C         -23.9060   -3.1730   29.1460 C.2     1  UNL1       -0.0038
      4 C         -23.9890   -4.5490   28.8530 C.2     1  UNL1       -0.0003
      5 C         -25.1370   -5.2800   29.2050 C.2     1  UNL1       -0.0000
      6 C         -26.2320   -4.6110   29.7840 C.2     1  UNL1       -0.0003
      7 C         -26.1550   -3.2320   30.0650 C.2     1  UNL1       -0.0038
      8 C         -25.3870   -0.6790   31.5710 C.3     1  UNL1        0.0841
      9 C         -25.1890    0.7730   32.0280 C.3     1  UNL1        0.0196
     10 C         -25.3360    0.6840   33.5440 C.3     1  UNL1        0.0203
     11 C         -24.8290   -0.7150   33.9050 C.3     1  UNL1        0.0887
     12 N         -24.7580   -1.4810   32.6460 N.3     1  UNL1       -0.2187
     13 C         -25.6880    1.6140   26.4610 C.2     1  UNL1        0.0443
     14 C         -26.2500    2.9200   26.3950 C.2     1  UNL1        0.0767
     15 C         -25.6420    4.0930   27.1230 C.2     1  UNL1        0.2664
     16 N         -25.6140    5.2520   26.4490 N.am    1  UNL1       -0.1997
     17 C         -25.0260    6.4790   26.9630 C.3     1  UNL1        0.1388
     18 O         -25.1430    3.9660   28.2430 O.2     1  UNL1       -0.2683
     19 C         -27.4380    3.0910   25.6450 C.2     1  UNL1        0.1067
     20 N         -28.0750    2.0890   25.0030 N.2     1  UNL1       -0.2081
     21 C         -27.5430    0.8490   25.0790 C.2     1  UNL1        0.2533
     22 O         -28.1930   -0.2080   24.4770 O.2     1  UNL1       -0.4558
     23 C         -29.4600    0.0050   23.8660 C.3     1  UNL1        0.2426
     24 C         -30.0650   -1.3770   23.5730 C.3     1  UNL1        0.2292
     25 O         -30.7290   -1.8780   24.7210 O.3     1  UNL1       -0.2162
     26 C         -26.3540    0.5760   25.7770 C.2     1  UNL1        0.1933
     27 F         -25.8600   -0.6810   25.7950 F       1  UNL1       -0.1992
     28 C         -24.5292    1.3214   27.0896 C.ar    1  UNL1        0.0786
     29 C         -24.3504    0.4747   28.3666 C.ar    1  UNL1        0.0626
     30 N         -20.9560    1.1634   28.5625 N.2     1  UNL1       -0.1054
     31 C         -25.3777   -0.1702   29.0337 C.2     1  UNL1        0.1797
     32 O         -26.6199   -0.1282   28.7658 O.2     1  UNL1       -0.2909
     33 N         -22.5369   -0.3476   29.8129 N.pl3   1  UNL1       -0.1230
     34 C         -22.1773    2.5438   24.7024 C.3     1  UNL1        0.2558
     35 C         -23.0462    0.4675   28.7705 C.ar    1  UNL1        0.1469
     36 O         -22.2351    1.6516   26.8605 O.2     1  UNL1       -0.4027
     37 C         -22.0942    1.1070   28.0861 C.ar    1  UNL1        0.2680
     38 C         -23.4093    1.8537   26.4590 C.ar    1  UNL1        0.2979
     39 O         -23.4252    2.6769   25.3855 O.3     1  UNL1       -0.4437
@<TRIPOS>BOND
     1     1    31    1
     2     2     7    1
     3     2     1    1
     4     3     2    2
     5     4     3    1
     6     4     5    2
     7     5     6    1
     8     6     7    2
     9     8     1    1
    10     8     9    1
    11     8    12    1
    12     9    10    1
    13    10    11    1
    14    12    11    1
    15    13    28    1
    16    14    13    1
    17    14    15    1
    18    15    18    2
    19    16    17    1
    20    16    15    1
    21    19    14    2
    22    20    21    2
    23    20    19    1
    24    21    26    1
    25    22    21    1
    26    23    22    1
    27    24    23    1
    28    24    25    1
    29    26    27    1
    30    26    13    2
    31    28    29   ar
    32    29    35   ar
    33    29    31    1
    34    32    31    2
    35    34    39    1
    36    35    33    1
    37    36    37   ar
    38    37    30    2
    39    37    35   ar
    40    38    36   ar
    41    38    28   ar
    42    39    38    1
