@<TRIPOS>MOLECULE
outputs/IAG933/test6/raw/output_5645_IAG933_linker_design_.xyz
 42 45 0 0 0
SMALL
GASTEIGER

@<TRIPOS>ATOM
      1 C         -24.8550   -1.0120   30.1430 C.3     1  UNL1        0.0719
      2 C         -24.9730   -2.5050   29.7880 C.2     1  UNL1       -0.0186
      3 C         -23.9060   -3.1730   29.1460 C.2     1  UNL1       -0.0042
      4 C         -23.9890   -4.5490   28.8530 C.2     1  UNL1       -0.0003
      5 C         -25.1370   -5.2800   29.2050 C.2     1  UNL1       -0.0000
      6 C         -26.2320   -4.6110   29.7840 C.2     1  UNL1       -0.0003
      7 C         -26.1550   -3.2320   30.0650 C.2     1  UNL1       -0.0042
      8 C         -25.3870   -0.6790   31.5710 C.3     1  UNL1        0.0794
      9 C         -25.1890    0.7730   32.0280 C.3     1  UNL1        0.0193
     10 C         -25.3360    0.6840   33.5440 C.3     1  UNL1        0.0202
     11 C         -24.8290   -0.7150   33.9050 C.3     1  UNL1        0.0887
     12 N         -24.7580   -1.4810   32.6460 N.3     1  UNL1       -0.2190
     13 C         -25.6880    1.6140   26.4610 C.2     1  UNL1        0.0882
     14 C         -26.2500    2.9200   26.3950 C.2     1  UNL1        0.0899
     15 C         -25.6420    4.0930   27.1230 C.2     1  UNL1        0.2676
     16 N         -25.6140    5.2520   26.4490 N.am    1  UNL1       -0.1997
     17 C         -25.0260    6.4790   26.9630 C.3     1  UNL1        0.1388
     18 O         -25.1430    3.9660   28.2430 O.2     1  UNL1       -0.2683
     19 C         -27.4380    3.0910   25.6450 C.2     1  UNL1        0.1080
     20 N         -28.0750    2.0890   25.0030 N.2     1  UNL1       -0.2080
     21 C         -27.5430    0.8490   25.0790 C.2     1  UNL1        0.2546
     22 O         -28.1930   -0.2080   24.4770 O.2     1  UNL1       -0.4558
     23 C         -29.4600    0.0050   23.8660 C.3     1  UNL1        0.2426
     24 C         -30.0650   -1.3770   23.5730 C.3     1  UNL1        0.2292
     25 O         -30.7290   -1.8780   24.7210 O.3     1  UNL1       -0.2162
     26 C         -26.3540    0.5760   25.7770 C.2     1  UNL1        0.2063
     27 F         -25.8600   -0.6810   25.7950 F       1  UNL1       -0.1979
     28 C         -23.4292    1.7405   27.0525 C.3     1  UNL1        0.1822
     29 C         -21.1268    1.6582   27.4755 C.3     1  UNL1        0.0352
     30 C         -22.3719   -0.2772   29.7839 C.3     1  UNL1        0.1741
     31 C         -27.4235    3.5798   30.8855 C.3     1  UNL1        0.1093
     32 C         -27.8928    3.7555   29.7903 C.3     1  UNL1        0.0394
     33 C         -25.5033   -0.0734   29.1415 C.3     1  UNL1        0.1919
     34 C         -27.5077    2.4106   29.8884 C.3     1  UNL1        0.0936
     35 O         -22.5806    0.0847   28.4174 O.3     1  UNL1       -0.3506
     36 CL        -22.8584    1.7240   25.3327 Cl      1  UNL1       -0.0901
     37 O         -26.6019   -0.4347   28.5531 O.3     1  UNL1       -0.2194
     38 C         -24.9363    1.2045   28.7210 C.3     1  UNL1        0.1798
     39 N         -28.6217    3.5015   31.7861 N.3     1  UNL1       -0.1314
     40 N         -26.0395    2.1053   29.3181 N.3     1  UNL1       -0.1977
     41 N         -24.6753    1.5239   27.4411 N.pl3   1  UNL1       -0.2775
     42 C         -22.5025    1.5450   27.9810 C.3     1  UNL1        0.1490
@<TRIPOS>BOND
     1     1    33    1
     2     2     7    1
     3     2     1    1
     4     3     2    2
     5     4     3    1
     6     4     5    2
     7     5     6    1
     8     6     7    2
     9     8     1    1
    10     8     9    1
    11     8    12    1
    12     9    10    1
    13    10    11    1
    14    12    11    1
    15    13    41    1
    16    14    13    1
    17    14    15    1
    18    15    18    2
    19    16    17    1
    20    16    15    1
    21    19    14    2
    22    20    21    2
    23    20    19    1
    24    21    26    1
    25    22    21    1
    26    23    22    1
    27    24    23    1
    28    24    25    1
    29    26    27    1
    30    26    13    2
    31    28    36    1
    32    28    41    1
    33    28    42    1
    34    31    39    1
    35    32    34    1
    36    32    31    1
    37    33    37    1
    38    34    40    1
    39    34    31    1
    40    35    30    1
    41    38    33    1
    42    38    40    1
    43    41    38    1
    44    42    29    1
    45    42    35    1
