@<TRIPOS>MOLECULE
outputs/IAG933/test6/raw/output_5648_IAG933_linker_design_.xyz
 46 50 0 0 0
SMALL
GASTEIGER

@<TRIPOS>ATOM
      1 C         -24.8550   -1.0120   30.1430 C.3     1  UNL1        0.1178
      2 C         -24.9730   -2.5050   29.7880 C.2     1  UNL1       -0.0026
      3 C         -23.9060   -3.1730   29.1460 C.2     1  UNL1       -0.0026
      4 C         -23.9890   -4.5490   28.8530 C.2     1  UNL1       -0.0003
      5 C         -25.1370   -5.2800   29.2050 C.2     1  UNL1       -0.0000
      6 C         -26.2320   -4.6110   29.7840 C.2     1  UNL1       -0.0003
      7 C         -26.1550   -3.2320   30.0650 C.2     1  UNL1       -0.0026
      8 C         -25.3870   -0.6790   31.5710 C.3     1  UNL1        0.0954
      9 C         -25.1890    0.7730   32.0280 C.3     1  UNL1        0.0209
     10 C         -25.3360    0.6840   33.5440 C.3     1  UNL1        0.0203
     11 C         -24.8290   -0.7150   33.9050 C.3     1  UNL1        0.0888
     12 N         -24.7580   -1.4810   32.6460 N.3     1  UNL1       -0.2174
     13 C         -25.6880    1.6140   26.4610 C.2     1  UNL1        0.0419
     14 C         -26.2500    2.9200   26.3950 C.2     1  UNL1        0.0767
     15 C         -25.6420    4.0930   27.1230 C.2     1  UNL1        0.2664
     16 N         -25.6140    5.2520   26.4490 N.am    1  UNL1       -0.1997
     17 C         -25.0260    6.4790   26.9630 C.3     1  UNL1        0.1388
     18 O         -25.1430    3.9660   28.2430 O.2     1  UNL1       -0.2683
     19 C         -27.4380    3.0910   25.6450 C.2     1  UNL1        0.1067
     20 N         -28.0750    2.0890   25.0030 N.2     1  UNL1       -0.2081
     21 C         -27.5430    0.8490   25.0790 C.2     1  UNL1        0.2533
     22 O         -28.1930   -0.2080   24.4770 O.2     1  UNL1       -0.4558
     23 C         -29.4600    0.0050   23.8660 C.3     1  UNL1        0.2426
     24 C         -30.0650   -1.3770   23.5730 C.3     1  UNL1        0.2292
     25 O         -30.7290   -1.8780   24.7210 O.3     1  UNL1       -0.2162
     26 C         -26.3540    0.5760   25.7770 C.2     1  UNL1        0.1932
     27 F         -25.8600   -0.6810   25.7950 F       1  UNL1       -0.1992
     28 C         -26.8948    0.0852   29.1086 C.2     1  UNL1        0.2458
     29 C         -21.8885    0.5193   28.8001 C.2     1  UNL1       -0.0200
     30 C         -23.3036    1.8347   26.4497 C.2     1  UNL1        0.1396
     31 C         -30.4014   -0.4890   28.9897 C.3     1  UNL1        0.2204
     32 C         -24.4101    1.2852   27.1365 C.2     1  UNL1        0.0464
     33 C         -24.4102    0.4422   28.3481 C.2     1  UNL1        0.0389
     34 C         -31.1798    1.6211   28.3797 C.3     1  UNL1        0.1598
     35 C         -21.3439    1.2694   27.7749 C.2     1  UNL1       -0.0011
     36 C         -29.6753    1.6379   28.2870 C.3     1  UNL1        0.0898
     37 O         -27.3986    0.5198   30.1037 O.2     1  UNL1       -0.2730
     38 C         -23.2339    0.2568   28.9460 C.3     1  UNL1        0.0675
     39 N         -29.3115    0.1985   28.3850 N.3     1  UNL1       -0.2385
     40 C         -27.9985   -0.3090   28.0514 C.3     1  UNL1        0.1609
     41 O         -31.3389    0.5435   29.3116 O.3     1  UNL1       -0.3359
     42 C         -29.0871    2.6453   29.3000 C.3     1  UNL1        0.0201
     43 C         -23.3772    1.6490   24.2039 C.3     1  UNL1        0.2525
     44 N         -25.4392   -0.1279   29.0757 N.am    1  UNL1       -0.2571
     45 C         -21.9426    1.8095   26.7087 C.2     1  UNL1        0.0366
     46 O         -23.5263    2.5386   25.2555 O.2     1  UNL1       -0.4714
@<TRIPOS>BOND
     1     1    44    1
     2     2     7    1
     3     2     1    1
     4     3     2    2
     5     4     3    1
     6     4     5    2
     7     5     6    1
     8     6     7    2
     9     8     1    1
    10     8     9    1
    11     8    12    1
    12     9    10    1
    13    10    11    1
    14    12    11    1
    15    13    32    1
    16    14    13    1
    17    14    15    1
    18    15    18    2
    19    16    17    1
    20    16    15    1
    21    19    14    2
    22    20    21    2
    23    20    19    1
    24    21    26    1
    25    22    21    1
    26    23    22    1
    27    24    23    1
    28    24    25    1
    29    26    27    1
    30    26    13    2
    31    28    37    2
    32    29    38    1
    33    30    45    2
    34    30    32    1
    35    31    41    1
    36    32    33    2
    37    33    38    1
    38    33    44    1
    39    34    41    1
    40    35    29    2
    41    36    34    1
    42    36    39    1
    43    36    42    1
    44    39    31    1
    45    40    39    1
    46    40    28    1
    47    43    46    1
    48    44    28   am
    49    45    35    1
    50    46    30    1
