@<TRIPOS>MOLECULE
outputs/IAG933/test6/raw/output_5649_IAG933_linker_design_.xyz
 40 44 0 0 0
SMALL
GASTEIGER

@<TRIPOS>ATOM
      1 C         -24.8550   -1.0120   30.1430 C.3     1  UNL1        0.1501
      2 C         -24.9730   -2.5050   29.7880 C.2     1  UNL1        0.0017
      3 C         -23.9060   -3.1730   29.1460 C.2     1  UNL1       -0.0023
      4 C         -23.9890   -4.5490   28.8530 C.2     1  UNL1       -0.0003
      5 C         -25.1370   -5.2800   29.2050 C.2     1  UNL1       -0.0000
      6 C         -26.2320   -4.6110   29.7840 C.2     1  UNL1       -0.0003
      7 C         -26.1550   -3.2320   30.0650 C.2     1  UNL1       -0.0023
      8 C         -25.3870   -0.6790   31.5710 C.3     1  UNL1        0.0999
      9 C         -25.1890    0.7730   32.0280 C.3     1  UNL1        0.0212
     10 C         -25.3360    0.6840   33.5440 C.3     1  UNL1        0.0203
     11 C         -24.8290   -0.7150   33.9050 C.3     1  UNL1        0.0888
     12 N         -24.7580   -1.4810   32.6460 N.3     1  UNL1       -0.2171
     13 C         -25.6880    1.6140   26.4610 C.2     1  UNL1        0.0355
     14 C         -26.2500    2.9200   26.3950 C.2     1  UNL1        0.0763
     15 C         -25.6420    4.0930   27.1230 C.2     1  UNL1        0.2664
     16 N         -25.6140    5.2520   26.4490 N.am    1  UNL1       -0.1997
     17 C         -25.0260    6.4790   26.9630 C.3     1  UNL1        0.1388
     18 O         -25.1430    3.9660   28.2430 O.2     1  UNL1       -0.2683
     19 C         -27.4380    3.0910   25.6450 C.2     1  UNL1        0.1067
     20 N         -28.0750    2.0890   25.0030 N.2     1  UNL1       -0.2081
     21 C         -27.5430    0.8490   25.0790 C.2     1  UNL1        0.2533
     22 O         -28.1930   -0.2080   24.4770 O.2     1  UNL1       -0.4558
     23 C         -29.4600    0.0050   23.8660 C.3     1  UNL1        0.2426
     24 C         -30.0650   -1.3770   23.5730 C.3     1  UNL1        0.2292
     25 O         -30.7290   -1.8780   24.7210 O.3     1  UNL1       -0.2162
     26 C         -26.3540    0.5760   25.7770 C.2     1  UNL1        0.1928
     27 F         -25.8600   -0.6810   25.7950 F       1  UNL1       -0.1992
     28 C         -23.1969    2.5862   25.2349 C.3     1  UNL1        0.1916
     29 N         -25.1334   -0.1522   28.9044 N.3     1  UNL1       -0.2073
     30 C         -23.5034    2.1646   26.4895 C.3     1  UNL1        0.1140
     31 O         -22.6270    0.2525   30.5388 O.3     1  UNL1       -0.2198
     32 C         -21.9790    0.2507   29.2916 C.3     1  UNL1        0.1930
     33 C         -22.5787    0.8017   28.2543 C.3     1  UNL1        0.1303
     34 O         -21.2950    1.5862   25.4454 O.3     1  UNL1       -0.1936
     35 C         -22.0179    1.6131   27.0374 C.3     1  UNL1        0.2632
     36 O         -26.2565   -0.2949   28.3972 O.3     1  UNL1       -0.0842
     37 C         -24.4627    1.3815   27.1265 C.2     1  UNL1        0.0014
     38 O         -20.4506    1.8552   27.5097 O.3     1  UNL1       -0.1914
     39 O         -22.1912    2.4005   24.7003 O.3     1  UNL1       -0.2177
     40 C         -24.2966    0.5742   28.2050 C.2     1  UNL1        0.0665
@<TRIPOS>BOND
     1     1    29    1
     2     2     7    1
     3     2     1    1
     4     3     2    2
     5     4     3    1
     6     4     5    2
     7     5     6    1
     8     6     7    2
     9     8     1    1
    10     8     9    1
    11     8    12    1
    12     9    10    1
    13    10    11    1
    14    12    11    1
    15    13    37    1
    16    14    13    1
    17    14    15    1
    18    15    18    2
    19    16    17    1
    20    16    15    1
    21    19    14    2
    22    20    21    2
    23    20    19    1
    24    21    26    1
    25    22    21    1
    26    23    22    1
    27    24    23    1
    28    24    25    1
    29    26    27    1
    30    26    13    2
    31    30    28    1
    32    30    35    1
    33    30    37    1
    34    32    31    1
    35    33    32    1
    36    34    35    1
    37    35    38    1
    38    35    33    1
    39    36    29    1
    40    37    40    2
    41    39    28    1
    42    39    34    1
    43    40    33    1
    44    40    29    1
