@<TRIPOS>MOLECULE
outputs/IAG933/test6/raw/output_5655_IAG933_linker_design_.xyz
 45 49 0 0 0
SMALL
GASTEIGER

@<TRIPOS>ATOM
      1 C         -24.8550   -1.0120   30.1430 C.3     1  UNL1        0.0521
      2 C         -24.9730   -2.5050   29.7880 C.2     1  UNL1       -0.0200
      3 C         -23.9060   -3.1730   29.1460 C.2     1  UNL1       -0.0042
      4 C         -23.9890   -4.5490   28.8530 C.2     1  UNL1       -0.0003
      5 C         -25.1370   -5.2800   29.2050 C.2     1  UNL1       -0.0000
      6 C         -26.2320   -4.6110   29.7840 C.2     1  UNL1       -0.0003
      7 C         -26.1550   -3.2320   30.0650 C.2     1  UNL1       -0.0042
      8 C         -25.3870   -0.6790   31.5710 C.3     1  UNL1        0.0779
      9 C         -25.1890    0.7730   32.0280 C.3     1  UNL1        0.0192
     10 C         -25.3360    0.6840   33.5440 C.3     1  UNL1        0.0202
     11 C         -24.8290   -0.7150   33.9050 C.3     1  UNL1        0.0887
     12 N         -24.7580   -1.4810   32.6460 N.3     1  UNL1       -0.2191
     13 C         -25.6880    1.6140   26.4610 C.2     1  UNL1        0.0385
     14 C         -26.2500    2.9200   26.3950 C.2     1  UNL1        0.0766
     15 C         -25.6420    4.0930   27.1230 C.2     1  UNL1        0.2664
     16 N         -25.6140    5.2520   26.4490 N.am    1  UNL1       -0.1997
     17 C         -25.0260    6.4790   26.9630 C.3     1  UNL1        0.1388
     18 O         -25.1430    3.9660   28.2430 O.2     1  UNL1       -0.2683
     19 C         -27.4380    3.0910   25.6450 C.2     1  UNL1        0.1067
     20 N         -28.0750    2.0890   25.0030 N.2     1  UNL1       -0.2081
     21 C         -27.5430    0.8490   25.0790 C.2     1  UNL1        0.2533
     22 O         -28.1930   -0.2080   24.4770 O.2     1  UNL1       -0.4558
     23 C         -29.4600    0.0050   23.8660 C.3     1  UNL1        0.2426
     24 C         -30.0650   -1.3770   23.5730 C.3     1  UNL1        0.2292
     25 O         -30.7290   -1.8780   24.7210 O.3     1  UNL1       -0.2162
     26 C         -26.3540    0.5760   25.7770 C.2     1  UNL1        0.1931
     27 F         -25.8600   -0.6810   25.7950 F       1  UNL1       -0.1992
     28 F         -21.0216    1.6833   27.2183 F       1  UNL1       -0.2050
     29 C         -25.3554   -0.1590   28.9765 C.3     1  UNL1        0.0740
     30 N         -30.7815    1.6077   30.6867 N.3     1  UNL1       -0.2179
     31 C         -22.3359    1.2671   27.4604 C.2     1  UNL1        0.1622
     32 CL        -22.9901    2.3702   25.0563 Cl      1  UNL1       -0.0802
     33 O         -22.3599   -0.0492   29.5811 O.3     1  UNL1       -0.2112
     34 C         -24.5090    1.2755   27.0889 C.2     1  UNL1        0.0107
     35 S         -27.2070   -0.1985   28.6641 S.3     1  UNL1       -0.1347
     36 C         -29.4661    1.9841   30.0916 C.3     1  UNL1        0.0897
     37 C         -31.0984    0.6588   31.1298 C.3     1  UNL1        0.0913
     38 C         -28.4208    0.9605   30.4862 C.3     1  UNL1        0.0322
     39 C         -24.3991    0.5465   28.2517 C.2     1  UNL1        0.0030
     40 C         -23.3003    1.6183   26.6483 C.2     1  UNL1        0.0833
     41 C         -22.9523    0.5019   28.5721 C.3     1  UNL1        0.2214
     42 C         -31.1441   -0.0108   29.7398 C.3     1  UNL1        0.0526
     43 O         -29.7256   -0.4534   27.6049 O.3     1  UNL1       -0.2222
     44 C         -29.8673   -0.2506   28.9657 C.3     1  UNL1        0.1633
     45 C         -28.5920   -0.4034   29.7965 C.3     1  UNL1        0.0797
@<TRIPOS>BOND
     1     1    29    1
     2     2     7    1
     3     2     1    1
     4     3     2    2
     5     4     3    1
     6     4     5    2
     7     5     6    1
     8     6     7    2
     9     8     1    1
    10     8     9    1
    11     8    12    1
    12     9    10    1
    13    10    11    1
    14    12    11    1
    15    13    34    1
    16    14    13    1
    17    14    15    1
    18    15    18    2
    19    16    17    1
    20    16    15    1
    21    19    14    2
    22    20    21    2
    23    20    19    1
    24    21    26    1
    25    22    21    1
    26    23    22    1
    27    24    23    1
    28    24    25    1
    29    26    27    1
    30    26    13    2
    31    28    31    1
    32    29    35    1
    33    30    37    1
    34    31    41    1
    35    32    40    1
    36    34    39    2
    37    36    38    1
    38    36    30    1
    39    39    41    1
    40    39    29    1
    41    40    34    1
    42    40    31    2
    43    41    33    1
    44    42    37    1
    45    44    43    1
    46    44    42    1
    47    44    45    1
    48    45    35    1
    49    45    38    1
