@<TRIPOS>MOLECULE
outputs/IAG933/test6/raw/output_5658_IAG933_linker_design_.xyz
 39 42 0 0 0
SMALL
GASTEIGER

@<TRIPOS>ATOM
      1 C         -24.8550   -1.0120   30.1430 C.3     1  UNL1        0.1167
      2 C         -24.9730   -2.5050   29.7880 C.2     1  UNL1       -0.0125
      3 C         -23.9060   -3.1730   29.1460 C.2     1  UNL1       -0.0038
      4 C         -23.9890   -4.5490   28.8530 C.2     1  UNL1       -0.0003
      5 C         -25.1370   -5.2800   29.2050 C.2     1  UNL1       -0.0000
      6 C         -26.2320   -4.6110   29.7840 C.2     1  UNL1       -0.0003
      7 C         -26.1550   -3.2320   30.0650 C.2     1  UNL1       -0.0038
      8 C         -25.3870   -0.6790   31.5710 C.3     1  UNL1        0.0855
      9 C         -25.1890    0.7730   32.0280 C.3     1  UNL1        0.0197
     10 C         -25.3360    0.6840   33.5440 C.3     1  UNL1        0.0203
     11 C         -24.8290   -0.7150   33.9050 C.3     1  UNL1        0.0887
     12 N         -24.7580   -1.4810   32.6460 N.3     1  UNL1       -0.2186
     13 C         -25.6880    1.6140   26.4610 C.2     1  UNL1        0.1083
     14 C         -26.2500    2.9200   26.3950 C.2     1  UNL1        0.0918
     15 C         -25.6420    4.0930   27.1230 C.2     1  UNL1        0.2677
     16 N         -25.6140    5.2520   26.4490 N.am    1  UNL1       -0.1997
     17 C         -25.0260    6.4790   26.9630 C.3     1  UNL1        0.1388
     18 O         -25.1430    3.9660   28.2430 O.2     1  UNL1       -0.2683
     19 C         -27.4380    3.0910   25.6450 C.2     1  UNL1        0.1080
     20 N         -28.0750    2.0890   25.0030 N.2     1  UNL1       -0.2080
     21 C         -27.5430    0.8490   25.0790 C.2     1  UNL1        0.2546
     22 O         -28.1930   -0.2080   24.4770 O.2     1  UNL1       -0.4558
     23 C         -29.4600    0.0050   23.8660 C.3     1  UNL1        0.2426
     24 C         -30.0650   -1.3770   23.5730 C.3     1  UNL1        0.2292
     25 O         -30.7290   -1.8780   24.7210 O.3     1  UNL1       -0.2162
     26 C         -26.3540    0.5760   25.7770 C.2     1  UNL1        0.2081
     27 F         -25.8600   -0.6810   25.7950 F       1  UNL1       -0.1978
     28 C         -22.6953    0.4646   29.2155 C.2     1  UNL1        0.1340
     29 N         -21.8850   -0.1485   30.0244 N.pl3   1  UNL1       -0.1243
     30 C         -24.0680    0.8087   29.4013 C.2     1  UNL1        0.1088
     31 O         -26.9384   -0.5440   29.2580 O.2     1  UNL1       -0.2726
     32 N         -24.6030    1.2614   27.2634 N.pl3   1  UNL1       -0.2069
     33 C         -23.1283    2.0737   25.7161 C.3     1  UNL1        0.2272
     34 N         -24.9525    0.6197   28.4907 N.am    1  UNL1       -0.1785
     35 F         -21.1088    1.5882   27.8477 F       1  UNL1       -0.2016
     36 O         -21.9927    2.0087   25.3582 O.3     1  UNL1       -0.2136
     37 C         -25.9668   -0.1570   28.8789 C.2     1  UNL1        0.2506
     38 C         -23.3826    1.4905   26.9413 C.2     1  UNL1        0.1101
     39 C         -22.4390    1.1556   27.8868 C.2     1  UNL1        0.1716
@<TRIPOS>BOND
     1     1    37    1
     2     2     7    1
     3     2     1    1
     4     3     2    2
     5     4     3    1
     6     4     5    2
     7     5     6    1
     8     6     7    2
     9     8     1    1
    10     8     9    1
    11     8    12    1
    12     9    10    1
    13    10    11    1
    14    12    11    1
    15    13    32    1
    16    14    13    1
    17    14    15    1
    18    15    18    2
    19    16    17    1
    20    16    15    1
    21    19    14    2
    22    20    21    2
    23    20    19    1
    24    21    26    1
    25    22    21    1
    26    23    22    1
    27    24    23    1
    28    24    25    1
    29    26    27    1
    30    26    13    2
    31    28    30    2
    32    28    29    1
    33    32    34    1
    34    33    38    1
    35    34    37   am
    36    34    30    1
    37    35    39    1
    38    36    33    1
    39    37    31    2
    40    38    32    1
    41    38    39    2
    42    39    28    1
