@<TRIPOS>MOLECULE
outputs/IAG933/test6/raw/output_5659_IAG933_linker_design_.xyz
 44 48 0 0 0
SMALL
GASTEIGER

@<TRIPOS>ATOM
      1 C         -24.8550   -1.0120   30.1430 C.3     1  UNL1        0.1180
      2 C         -24.9730   -2.5050   29.7880 C.2     1  UNL1       -0.0026
      3 C         -23.9060   -3.1730   29.1460 C.2     1  UNL1       -0.0026
      4 C         -23.9890   -4.5490   28.8530 C.2     1  UNL1       -0.0003
      5 C         -25.1370   -5.2800   29.2050 C.2     1  UNL1       -0.0000
      6 C         -26.2320   -4.6110   29.7840 C.2     1  UNL1       -0.0003
      7 C         -26.1550   -3.2320   30.0650 C.2     1  UNL1       -0.0026
      8 C         -25.3870   -0.6790   31.5710 C.3     1  UNL1        0.0955
      9 C         -25.1890    0.7730   32.0280 C.3     1  UNL1        0.0209
     10 C         -25.3360    0.6840   33.5440 C.3     1  UNL1        0.0203
     11 C         -24.8290   -0.7150   33.9050 C.3     1  UNL1        0.0888
     12 N         -24.7580   -1.4810   32.6460 N.3     1  UNL1       -0.2174
     13 C         -25.6880    1.6140   26.4610 C.3     1  UNL1        0.0934
     14 C         -26.2500    2.9200   26.3950 C.2     1  UNL1        0.0589
     15 C         -25.6420    4.0930   27.1230 C.2     1  UNL1        0.2628
     16 N         -25.6140    5.2520   26.4490 N.am    1  UNL1       -0.2000
     17 C         -25.0260    6.4790   26.9630 C.3     1  UNL1        0.1388
     18 O         -25.1430    3.9660   28.2430 O.2     1  UNL1       -0.2686
     19 C         -27.4380    3.0910   25.6450 C.2     1  UNL1        0.1025
     20 N         -28.0750    2.0890   25.0030 N.2     1  UNL1       -0.2118
     21 C         -27.5430    0.8490   25.0790 C.2     1  UNL1        0.2344
     22 O         -28.1930   -0.2080   24.4770 O.2     1  UNL1       -0.4585
     23 C         -29.4600    0.0050   23.8660 C.3     1  UNL1        0.2423
     24 C         -30.0650   -1.3770   23.5730 C.3     1  UNL1        0.2292
     25 O         -30.7290   -1.8780   24.7210 O.3     1  UNL1       -0.2162
     26 C         -26.3540    0.5760   25.7770 C.3     1  UNL1        0.2440
     27 F         -25.8600   -0.6810   25.7950 F       1  UNL1       -0.2265
     28 O         -22.4521    0.4088   29.8020 O.2     1  UNL1       -0.2696
     29 C         -23.5868    1.0465   27.7152 C.2     1  UNL1        0.0505
     30 N         -28.0694    0.7732   28.0964 N.3     1  UNL1       -0.2679
     31 C         -22.5080    1.3246   26.7754 C.2     1  UNL1        0.0244
     32 C         -29.7379    2.4078   29.2191 C.3     1  UNL1        0.0174
     33 C         -24.9358    1.0714   27.5780 C.2     1  UNL1        0.0001
     34 C         -22.5368    1.8880   25.3810 C.3     1  UNL1        0.0346
     35 N         -24.5417   -0.0738   29.2870 N.am    1  UNL1       -0.2541
     36 C         -28.3213    2.0708   28.7107 C.3     1  UNL1        0.0724
     37 C         -23.5310    0.4943   28.9805 C.2     1  UNL1        0.2523
     38 O         -20.6769    1.3930   28.1565 O.2     1  UNL1       -0.2835
     39 C         -30.7955    1.6874   28.3720 C.3     1  UNL1        0.0029
     40 C         -27.1196   -0.1066   28.8380 C.3     1  UNL1        0.1140
     41 C         -30.4313    0.2198   28.2309 C.3     1  UNL1        0.0174
     42 C         -29.1445   -0.0044   27.5083 C.3     1  UNL1        0.0724
     43 C         -21.2517    0.8901   27.1944 C.2     1  UNL1        0.2300
     44 C         -25.5854    0.3358   28.5436 C.2     1  UNL1        0.0445
@<TRIPOS>BOND
     1     1     2    1
     2     2     7    1
     3     3     2    2
     4     4     3    1
     5     4     5    2
     6     5     6    1
     7     6     7    2
     8     8     1    1
     9     8     9    1
    10     8    12    1
    11     9    10    1
    12    10    11    1
    13    12    11    1
    14    13    33    1
    15    14    13    1
    16    14    15    1
    17    15    18    2
    18    16    17    1
    19    16    15    1
    20    19    14    2
    21    20    21    2
    22    20    19    1
    23    21    26    1
    24    22    21    1
    25    23    22    1
    26    24    23    1
    27    24    25    1
    28    26    27    1
    29    26    13    1
    30    29    37    1
    31    30    36    1
    32    30    40    1
    33    31    43    1
    34    31    29    2
    35    33    29    1
    36    33    44    2
    37    34    31    1
    38    35     1    1
    39    36    32    1
    40    37    35   am
    41    37    28    2
    42    39    32    1
    43    41    39    1
    44    42    30    1
    45    42    41    1
    46    43    38    2
    47    44    40    1
    48    44    35    1
