@<TRIPOS>MOLECULE
outputs/IAG933/test6/raw/output_566_IAG933_linker_design_.xyz
 41 44 0 0 0
SMALL
GASTEIGER

@<TRIPOS>ATOM
      1 C         -24.8550   -1.0120   30.1430 C.3     1  UNL1        0.1182
      2 C         -24.9730   -2.5050   29.7880 C.2     1  UNL1       -0.0047
      3 C         -23.9060   -3.1730   29.1460 C.2     1  UNL1       -0.0029
      4 C         -23.9890   -4.5490   28.8530 C.2     1  UNL1       -0.0003
      5 C         -25.1370   -5.2800   29.2050 C.2     1  UNL1       -0.0000
      6 C         -26.2320   -4.6110   29.7840 C.2     1  UNL1       -0.0003
      7 C         -26.1550   -3.2320   30.0650 C.2     1  UNL1       -0.0029
      8 C         -25.3870   -0.6790   31.5710 C.3     1  UNL1        0.0933
      9 C         -25.1890    0.7730   32.0280 C.3     1  UNL1        0.0206
     10 C         -25.3360    0.6840   33.5440 C.3     1  UNL1        0.0203
     11 C         -24.8290   -0.7150   33.9050 C.3     1  UNL1        0.0888
     12 N         -24.7580   -1.4810   32.6460 N.3     1  UNL1       -0.2177
     13 C         -25.6880    1.6140   26.4610 C.2     1  UNL1        0.0425
     14 C         -26.2500    2.9200   26.3950 C.2     1  UNL1        0.0767
     15 C         -25.6420    4.0930   27.1230 C.2     1  UNL1        0.2664
     16 N         -25.6140    5.2520   26.4490 N.am    1  UNL1       -0.1997
     17 C         -25.0260    6.4790   26.9630 C.3     1  UNL1        0.1388
     18 O         -25.1430    3.9660   28.2430 O.2     1  UNL1       -0.2683
     19 C         -27.4380    3.0910   25.6450 C.2     1  UNL1        0.1067
     20 N         -28.0750    2.0890   25.0030 N.2     1  UNL1       -0.2081
     21 C         -27.5430    0.8490   25.0790 C.2     1  UNL1        0.2533
     22 O         -28.1930   -0.2080   24.4770 O.2     1  UNL1       -0.4558
     23 C         -29.4600    0.0050   23.8660 C.3     1  UNL1        0.2426
     24 C         -30.0650   -1.3770   23.5730 C.3     1  UNL1        0.2292
     25 O         -30.7290   -1.8780   24.7210 O.3     1  UNL1       -0.2162
     26 C         -26.3540    0.5760   25.7770 C.2     1  UNL1        0.1932
     27 F         -25.8600   -0.6810   25.7950 F       1  UNL1       -0.1992
     28 F         -20.5811    0.7762   28.2421 F       1  UNL1       -0.2016
     29 O         -23.4209    2.3591   24.9669 O.2     1  UNL1       -0.3029
     30 C         -26.7291   -0.3920   28.9380 C.3     1  UNL1        0.2775
     31 N         -24.9843    1.0255   29.1185 N.pl3   1  UNL1       -0.1590
     32 C         -22.8523    0.5444   28.5500 C.2     1  UNL1        0.1838
     33 C         -23.2437    1.7787   26.1403 C.2     1  UNL1        0.1896
     34 C         -21.8177    0.8674   27.8250 C.2     1  UNL1        0.1719
     35 C         -24.3472    1.4505   26.9220 C.2     1  UNL1        0.0592
     36 C         -24.0663    1.0025   28.2470 C.2     1  UNL1        0.1166
     37 C         -21.9696    1.5024   26.5928 C.2     1  UNL1        0.0730
     38 O         -27.5318   -0.8527   28.8335 O.3     1  UNL1       -0.1989
     39 F         -22.5379   -0.2676   29.5438 F       1  UNL1       -0.2004
     40 O         -23.8920    1.3566   24.1481 O.3     1  UNL1        0.0284
     41 N         -25.5718   -0.1101   29.2644 N.3     1  UNL1       -0.1518
@<TRIPOS>BOND
     1     1    41    1
     2     2     7    1
     3     2     1    1
     4     3     2    2
     5     4     3    1
     6     4     5    2
     7     5     6    1
     8     6     7    2
     9     8     1    1
    10     8     9    1
    11     8    12    1
    12     9    10    1
    13    10    11    1
    14    12    11    1
    15    13    35    1
    16    14    13    1
    17    14    15    1
    18    15    18    2
    19    16    17    1
    20    16    15    1
    21    19    14    2
    22    20    21    2
    23    20    19    1
    24    21    26    1
    25    22    21    1
    26    23    22    1
    27    24    23    1
    28    24    25    1
    29    26    27    1
    30    26    13    2
    31    29    33    1
    32    30    41    1
    33    31    41    1
    34    32    39    1
    35    33    37    2
    36    33    35    1
    37    34    28    1
    38    34    32    2
    39    35    36    2
    40    36    32    1
    41    36    31    1
    42    37    34    1
    43    38    30    1
    44    40    29    1
