@<TRIPOS>MOLECULE
outputs/IAG933/test6/raw/output_5665_IAG933_linker_design_.xyz
 44 48 0 0 0
SMALL
GASTEIGER

@<TRIPOS>ATOM
      1 C         -24.8550   -1.0120   30.1430 C.3     1  UNL1        0.0391
      2 C         -24.9730   -2.5050   29.7880 C.2     1  UNL1       -0.0211
      3 C         -23.9060   -3.1730   29.1460 C.2     1  UNL1       -0.0042
      4 C         -23.9890   -4.5490   28.8530 C.2     1  UNL1       -0.0003
      5 C         -25.1370   -5.2800   29.2050 C.2     1  UNL1       -0.0000
      6 C         -26.2320   -4.6110   29.7840 C.2     1  UNL1       -0.0003
      7 C         -26.1550   -3.2320   30.0650 C.2     1  UNL1       -0.0042
      8 C         -25.3870   -0.6790   31.5710 C.3     1  UNL1        0.0768
      9 C         -25.1890    0.7730   32.0280 C.3     1  UNL1        0.0192
     10 C         -25.3360    0.6840   33.5440 C.3     1  UNL1        0.0202
     11 C         -24.8290   -0.7150   33.9050 C.3     1  UNL1        0.0887
     12 N         -24.7580   -1.4810   32.6460 N.3     1  UNL1       -0.2191
     13 C         -25.6880    1.6140   26.4610 C.2     1  UNL1        0.0202
     14 C         -26.2500    2.9200   26.3950 C.2     1  UNL1        0.0729
     15 C         -25.6420    4.0930   27.1230 C.2     1  UNL1        0.2661
     16 N         -25.6140    5.2520   26.4490 N.am    1  UNL1       -0.1997
     17 C         -25.0260    6.4790   26.9630 C.3     1  UNL1        0.1388
     18 O         -25.1430    3.9660   28.2430 O.2     1  UNL1       -0.2683
     19 C         -27.4380    3.0910   25.6450 C.2     1  UNL1        0.1064
     20 N         -28.0750    2.0890   25.0030 N.2     1  UNL1       -0.2081
     21 C         -27.5430    0.8490   25.0790 C.2     1  UNL1        0.2530
     22 O         -28.1930   -0.2080   24.4770 O.2     1  UNL1       -0.4558
     23 C         -29.4600    0.0050   23.8660 C.3     1  UNL1        0.2426
     24 C         -30.0650   -1.3770   23.5730 C.3     1  UNL1        0.2292
     25 O         -30.7290   -1.8780   24.7210 O.3     1  UNL1       -0.2162
     26 C         -26.3540    0.5760   25.7770 C.2     1  UNL1        0.1894
     27 F         -25.8600   -0.6810   25.7950 F       1  UNL1       -0.1996
     28 C         -25.4821    1.0318   28.6970 C.3     1  UNL1        0.0872
     29 C         -26.6362    1.2909   29.3090 C.2     1  UNL1        0.2437
     30 C         -26.5014    4.0236   32.4340 C.3     1  UNL1        0.1797
     31 O         -24.3081    3.3042   31.1974 O.3     1  UNL1       -0.2176
     32 C         -22.6500    1.9334   25.7046 C.2     1  UNL1        0.1754
     33 C         -24.9838    3.8772   32.2756 C.3     1  UNL1        0.2141
     34 O         -27.1134    4.3264   31.1197 O.3     1  UNL1       -0.3304
     35 C         -23.0234    0.5028   29.1245 C.3     1  UNL1        0.0302
     36 O         -27.5456    0.4388   29.3126 O.2     1  UNL1       -0.2733
     37 C         -24.4295   -0.1290   28.9390 C.3     1  UNL1        0.0191
     38 C         -23.3302    1.5287   26.8626 C.2     1  UNL1        0.0188
     39 C         -24.6559    1.4397   27.2730 C.3     1  UNL1        0.0587
     40 C         -22.4749    1.0667   27.8236 C.2     1  UNL1        0.0148
     41 O         -21.2372    1.7167   25.9046 O.2     1  UNL1       -0.4480
     42 N         -26.5562    2.3793   30.0360 N.am    1  UNL1       -0.1736
     43 C         -27.7291    3.1261   30.5411 C.3     1  UNL1        0.2606
     44 C         -21.1550    1.1394   27.3520 C.2     1  UNL1        0.1751
@<TRIPOS>BOND
     1     1     2    1
     2     2     7    1
     3     3     2    2
     4     4     3    1
     5     4     5    2
     6     5     6    1
     7     6     7    2
     8     8     1    1
     9     8     9    1
    10     8    12    1
    11     9    10    1
    12    10    11    1
    13    12    11    1
    14    14    13    1
    15    14    15    1
    16    15    18    2
    17    16    17    1
    18    16    15    1
    19    19    14    2
    20    20    21    2
    21    20    19    1
    22    21    26    1
    23    22    21    1
    24    23    22    1
    25    24    23    1
    26    24    25    1
    27    26    27    1
    28    26    13    2
    29    28    37    1
    30    28    29    1
    31    29    36    2
    32    29    42    1
    33    31    33    1
    34    32    41    1
    35    32    38    2
    36    33    30    1
    37    34    30    1
    38    37    35    1
    39    37     1    1
    40    38    39    1
    41    38    40    1
    42    39    13    1
    43    39    28    1
    44    40    35    1
    45    41    44    1
    46    42    43    1
    47    43    34    1
    48    44    40    2
