@<TRIPOS>MOLECULE
outputs/IAG933/test6/raw/output_5667_IAG933_linker_design_.xyz
 48 53 0 0 0
SMALL
GASTEIGER

@<TRIPOS>ATOM
      1 C         -24.8550   -1.0120   30.1430 C.3     1  UNL1        0.0388
      2 C         -24.9730   -2.5050   29.7880 C.2     1  UNL1       -0.0211
      3 C         -23.9060   -3.1730   29.1460 C.2     1  UNL1       -0.0042
      4 C         -23.9890   -4.5490   28.8530 C.2     1  UNL1       -0.0003
      5 C         -25.1370   -5.2800   29.2050 C.2     1  UNL1       -0.0000
      6 C         -26.2320   -4.6110   29.7840 C.2     1  UNL1       -0.0003
      7 C         -26.1550   -3.2320   30.0650 C.2     1  UNL1       -0.0042
      8 C         -25.3870   -0.6790   31.5710 C.3     1  UNL1        0.0768
      9 C         -25.1890    0.7730   32.0280 C.3     1  UNL1        0.0192
     10 C         -25.3360    0.6840   33.5440 C.3     1  UNL1        0.0202
     11 C         -24.8290   -0.7150   33.9050 C.3     1  UNL1        0.0887
     12 N         -24.7580   -1.4810   32.6460 N.3     1  UNL1       -0.2191
     13 C         -25.6880    1.6140   26.4610 C.2     1  UNL1        0.0160
     14 C         -26.2500    2.9200   26.3950 C.2     1  UNL1        0.0726
     15 C         -25.6420    4.0930   27.1230 C.2     1  UNL1        0.2661
     16 N         -25.6140    5.2520   26.4490 N.am    1  UNL1       -0.1997
     17 C         -25.0260    6.4790   26.9630 C.3     1  UNL1        0.1388
     18 O         -25.1430    3.9660   28.2430 O.2     1  UNL1       -0.2683
     19 C         -27.4380    3.0910   25.6450 C.2     1  UNL1        0.1064
     20 N         -28.0750    2.0890   25.0030 N.2     1  UNL1       -0.2081
     21 C         -27.5430    0.8490   25.0790 C.2     1  UNL1        0.2530
     22 O         -28.1930   -0.2080   24.4770 O.2     1  UNL1       -0.4558
     23 C         -29.4600    0.0050   23.8660 C.3     1  UNL1        0.2426
     24 C         -30.0650   -1.3770   23.5730 C.3     1  UNL1        0.2292
     25 O         -30.7290   -1.8780   24.7210 O.3     1  UNL1       -0.2162
     26 C         -26.3540    0.5760   25.7770 C.2     1  UNL1        0.1891
     27 F         -25.8600   -0.6810   25.7950 F       1  UNL1       -0.1996
     28 N         -27.6369    1.7751   29.2301 N.am    1  UNL1       -0.2048
     29 C         -28.2886    2.8962   29.5268 C.3     1  UNL1        0.1224
     30 C         -30.0619    2.5337   27.8585 C.3     1  UNL1        0.0018
     31 C         -29.6200    5.4120   32.9928 C.3     1  UNL1        0.0316
     32 C         -30.1165    4.2336   32.1161 C.3     1  UNL1        0.1059
     33 C         -24.3781   -0.1232   29.0283 C.3     1  UNL1        0.0144
     34 C         -25.2879    1.0640   28.7251 C.3     1  UNL1        0.0826
     35 C         -30.1695    3.9385   28.1393 C.3     1  UNL1        0.0018
     36 C         -28.4609    6.2159   32.3688 C.3     1  UNL1        0.0605
     37 C         -22.8937    0.1765   29.1153 C.3     1  UNL1        0.0009
     38 C         -28.0627    3.5797   30.9076 C.3     1  UNL1        0.1540
     39 C         -23.2454    1.1673   26.8937 C.3     1  UNL1        0.0049
     40 C         -29.8419    3.0845   29.1565 C.3     1  UNL1        0.0223
     41 O         -27.3109   -0.3930   29.0566 O.2     1  UNL1       -0.2733
     42 C         -21.0161    1.3830   27.8914 C.3     1  UNL1        0.0000
     43 C         -22.5266    1.3013   28.2011 C.3     1  UNL1        0.0004
     44 S         -28.0555    5.3521   30.8214 S.3     1  UNL1       -0.1209
     45 O         -28.4454    3.0502   33.0949 O.3     1  UNL1       -0.1171
     46 C         -26.8844    0.7447   29.0600 C.2     1  UNL1        0.2412
     47 N         -29.0533    3.2075   31.8350 N.3     1  UNL1       -0.1225
     48 C         -24.6456    1.3251   27.2256 C.3     1  UNL1        0.0336
@<TRIPOS>BOND
     1     1     2    1
     2     2     7    1
     3     3     2    2
     4     4     3    1
     5     4     5    2
     6     5     6    1
     7     6     7    2
     8     8     1    1
     9     8     9    1
    10     8    12    1
    11     9    10    1
    12    10    11    1
    13    12    11    1
    14    14    13    1
    15    14    15    1
    16    15    18    2
    17    16    17    1
    18    16    15    1
    19    19    14    2
    20    20    21    2
    21    20    19    1
    22    21    26    1
    23    22    21    1
    24    23    22    1
    25    24    23    1
    26    24    25    1
    27    26    27    1
    28    26    13    2
    29    29    28    1
    30    30    35    1
    31    30    40    1
    32    32    31    1
    33    33    37    1
    34    33     1    1
    35    34    33    1
    36    34    46    1
    37    35    40    1
    38    36    31    1
    39    38    29    1
    40    38    47    1
    41    39    48    1
    42    39    43    1
    43    40    29    1
    44    41    46    2
    45    43    42    1
    46    43    37    1
    47    44    38    1
    48    44    36    1
    49    46    28    1
    50    47    32    1
    51    47    45    1
    52    48    13    1
    53    48    34    1
