@<TRIPOS>MOLECULE
outputs/IAG933/test6/raw/output_5668_IAG933_linker_design_.xyz
 48 52 0 0 0
SMALL
GASTEIGER

@<TRIPOS>ATOM
      1 C         -24.8550   -1.0120   30.1430 C.3     1  UNL1        0.0438
      2 C         -24.9730   -2.5050   29.7880 C.2     1  UNL1       -0.0208
      3 C         -23.9060   -3.1730   29.1460 C.2     1  UNL1       -0.0042
      4 C         -23.9890   -4.5490   28.8530 C.2     1  UNL1       -0.0003
      5 C         -25.1370   -5.2800   29.2050 C.2     1  UNL1       -0.0000
      6 C         -26.2320   -4.6110   29.7840 C.2     1  UNL1       -0.0003
      7 C         -26.1550   -3.2320   30.0650 C.2     1  UNL1       -0.0042
      8 C         -25.3870   -0.6790   31.5710 C.3     1  UNL1        0.0785
      9 C         -25.1890    0.7730   32.0280 C.3     1  UNL1        0.0353
     10 C         -25.3360    0.6840   33.5440 C.3     1  UNL1        0.0216
     11 C         -24.8290   -0.7150   33.9050 C.3     1  UNL1        0.0887
     12 N         -24.7580   -1.4810   32.6460 N.3     1  UNL1       -0.2191
     13 C         -25.6880    1.6140   26.4610 C.2     1  UNL1        0.0415
     14 C         -26.2500    2.9200   26.3950 C.2     1  UNL1        0.0748
     15 C         -25.6420    4.0930   27.1230 C.2     1  UNL1        0.2662
     16 N         -25.6140    5.2520   26.4490 N.am    1  UNL1       -0.1997
     17 C         -25.0260    6.4790   26.9630 C.3     1  UNL1        0.1388
     18 O         -25.1430    3.9660   28.2430 O.2     1  UNL1       -0.2683
     19 C         -27.4380    3.0910   25.6450 C.2     1  UNL1        0.1065
     20 N         -28.0750    2.0890   25.0030 N.2     1  UNL1       -0.2081
     21 C         -27.5430    0.8490   25.0790 C.2     1  UNL1        0.2530
     22 O         -28.1930   -0.2080   24.4770 O.2     1  UNL1       -0.4558
     23 C         -29.4600    0.0050   23.8660 C.3     1  UNL1        0.2426
     24 C         -30.0650   -1.3770   23.5730 C.3     1  UNL1        0.2292
     25 O         -30.7290   -1.8780   24.7210 O.3     1  UNL1       -0.2162
     26 C         -26.3540    0.5760   25.7770 C.2     1  UNL1        0.1913
     27 F         -25.8600   -0.6810   25.7950 F       1  UNL1       -0.1995
     28 O         -27.6588    5.3057   35.4328 O.3     1  UNL1       -0.1008
     29 N         -26.5059    5.7273   35.4792 N.3     1  UNL1       -0.0536
     30 C         -24.6655    1.9937   28.9039 C.3     1  UNL1        0.1201
     31 C         -24.6462    7.0992   35.6978 C.3     1  UNL1        0.1310
     32 O         -24.6652    4.5072   31.7301 O.3     1  UNL1       -0.0318
     33 N         -25.5913    2.5006   30.1026 N.3     1  UNL1       -0.2151
     34 C         -22.6286   -0.1177   28.2689 C.3     1  UNL1        0.1453
     35 O         -23.9200    0.0282   27.5410 O.3     1  UNL1       -0.3528
     36 C         -21.9828    1.2336   28.7089 C.3     1  UNL1        0.0674
     37 C         -25.7537    4.2948   33.5721 C.3     1  UNL1        0.3233
     38 C         -25.7137    6.4697   36.5236 C.3     1  UNL1        0.1443
     39 N         -26.9927    4.0079   33.0065 N.3     1  UNL1       -0.1708
     40 N         -24.7075    6.5452   34.4184 N.3     1  UNL1       -0.1255
     41 C         -24.4232    1.4091   27.2926 C.3     1  UNL1        0.1324
     42 N         -25.6412    5.4451   34.4735 N.3     1  UNL1       -0.0749
     43 C         -23.1580    2.1228   26.5782 C.3     1  UNL1        0.0683
     44 C         -26.9584    2.6547   32.2162 C.3     1  UNL1        0.1101
     45 O         -24.8756    4.0785   32.8191 O.3     1  UNL1       -0.1529
     46 C         -21.8438    2.0676   27.4299 C.3     1  UNL1        0.1662
     47 C         -26.0961    1.8151   31.2202 C.3     1  UNL1        0.0917
     48 F         -20.7341    2.2195   26.9123 F       1  UNL1       -0.2371
@<TRIPOS>BOND
     1     2     7    1
     2     2     1    1
     3     3     2    2
     4     4     3    1
     5     4     5    2
     6     5     6    1
     7     6     7    2
     8     8     1    1
     9     8     9    1
    10     8    12    1
    11     9    47    1
    12     9    10    1
    13    10    11    1
    14    12    11    1
    15    13    41    1
    16    14    13    1
    17    14    15    1
    18    15    18    2
    19    16    17    1
    20    16    15    1
    21    19    14    2
    22    20    21    2
    23    20    19    1
    24    21    26    1
    25    22    21    1
    26    23    22    1
    27    24    23    1
    28    24    25    1
    29    26    27    1
    30    26    13    2
    31    28    29    1
    32    29    38    1
    33    30    33    1
    34    31    38    1
    35    32    45    1
    36    33    47    1
    37    34    36    1
    38    35    34    1
    39    37    45    1
    40    37    42    1
    41    39    37    1
    42    40    42    1
    43    40    31    1
    44    41    35    1
    45    41    30    1
    46    42    29    1
    47    43    41    1
    48    43    46    1
    49    44    39    1
    50    46    48    1
    51    46    36    1
    52    47    44    1
