@<TRIPOS>MOLECULE
outputs/IAG933/test6/raw/output_5669_IAG933_linker_design_.xyz
 44 48 0 0 0
SMALL
GASTEIGER

@<TRIPOS>ATOM
      1 C         -24.8550   -1.0120   30.1430 C.3     1  UNL1        0.2101
      2 C         -24.9730   -2.5050   29.7880 C.2     1  UNL1        0.0107
      3 C         -23.9060   -3.1730   29.1460 C.2     1  UNL1       -0.0017
      4 C         -23.9890   -4.5490   28.8530 C.2     1  UNL1       -0.0002
      5 C         -25.1370   -5.2800   29.2050 C.2     1  UNL1       -0.0000
      6 C         -26.2320   -4.6110   29.7840 C.2     1  UNL1       -0.0002
      7 C         -26.1550   -3.2320   30.0650 C.2     1  UNL1       -0.0017
      8 C         -25.3870   -0.6790   31.5710 C.3     1  UNL1        0.1090
      9 C         -25.1890    0.7730   32.0280 C.3     1  UNL1        0.0219
     10 C         -25.3360    0.6840   33.5440 C.3     1  UNL1        0.0203
     11 C         -24.8290   -0.7150   33.9050 C.3     1  UNL1        0.0888
     12 N         -24.7580   -1.4810   32.6460 N.3     1  UNL1       -0.2165
     13 C         -25.6880    1.6140   26.4610 C.3     1  UNL1        0.1359
     14 C         -26.2500    2.9200   26.3950 C.2     1  UNL1        0.0605
     15 C         -25.6420    4.0930   27.1230 C.2     1  UNL1        0.2182
     16 N         -25.6140    5.2520   26.4490 N.2     1  UNL1       -0.2359
     17 C         -25.0260    6.4790   26.9630 C.3     1  UNL1        0.1550
     18 O         -25.1430    3.9660   28.2430 O.2     1  UNL1       -0.4617
     19 C         -27.4380    3.0910   25.6450 C.2     1  UNL1        0.1027
     20 N         -28.0750    2.0890   25.0030 N.2     1  UNL1       -0.2118
     21 C         -27.5430    0.8490   25.0790 C.2     1  UNL1        0.2346
     22 O         -28.1930   -0.2080   24.4770 O.2     1  UNL1       -0.4585
     23 C         -29.4600    0.0050   23.8660 C.3     1  UNL1        0.2423
     24 C         -30.0650   -1.3770   23.5730 C.3     1  UNL1        0.2292
     25 O         -30.7290   -1.8780   24.7210 O.3     1  UNL1       -0.2162
     26 C         -26.3540    0.5760   25.7770 C.3     1  UNL1        0.2478
     27 F         -25.8600   -0.6810   25.7950 F       1  UNL1       -0.2264
     28 C         -27.6588    5.6817   31.0760 C.3     1  UNL1        0.2941
     29 C         -23.5459    1.7682   25.4842 C.2     1  UNL1        0.0425
     30 C         -26.9517    3.2325   30.5271 C.3     1  UNL1        0.0783
     31 N         -23.1329    0.3890   29.4324 N.3     1  UNL1        0.1171
     32 N         -23.9776    1.5596   27.8352 N.2     1  UNL1       -0.0333
     33 C         -25.6180    3.8318   29.8798 C.3     1  UNL1        0.1995
     34 O         -26.4674    5.3013   31.3767 O.3     1  UNL1       -0.3229
     35 C         -21.3445    1.7883   26.4980 C.2     1  UNL1        0.0504
     36 C         -22.9192    1.0763   28.2976 C.2     1  UNL1        0.4473
     37 C         -22.2227    2.0515   25.4963 C.2     1  UNL1        0.0070
     38 C         -21.6269    1.1789   27.7277 C.2     1  UNL1        0.2862
     39 C         -24.3668    1.6203   26.6212 C.2     1  UNL1        0.1782
     40 C         -28.0175    3.6737   29.7710 C.3     1  UNL1        0.1488
     41 O         -20.5951    0.6535   28.2783 O.2     1  UNL1       -0.2782
     42 O         -24.5019   -0.0331   29.3238 O.3     1  UNL1       -0.1327
     43 C         -25.9871    5.1598   30.0177 C.3     1  UNL1        0.1883
     44 O         -28.2891    5.1138   29.8939 O.3     1  UNL1       -0.3266
@<TRIPOS>BOND
     1     1    42    1
     2     2     7    1
     3     2     1    1
     4     3     2    2
     5     4     3    1
     6     4     5    2
     7     5     6    1
     8     6     7    2
     9     8     1    1
    10     8     9    1
    11     8    12    1
    12     9    10    1
    13    10    11    1
    14    12    11    1
    15    13    39    1
    16    14    13    1
    17    14    15    1
    18    15    18    1
    19    16    17    1
    20    16    15    2
    21    19    14    2
    22    20    21    2
    23    20    19    1
    24    21    26    1
    25    22    21    1
    26    23    22    1
    27    24    23    1
    28    24    25    1
    29    26    27    1
    30    26    13    1
    31    28    34    1
    32    29    37    1
    33    29    39    2
    34    32    36    2
    35    33    18    1
    36    33    43    1
    37    33    30    1
    38    35    38    1
    39    36    31    1
    40    37    35    2
    41    38    41    2
    42    38    36    1
    43    39    32    1
    44    40    44    1
    45    40    30    1
    46    42    31    1
    47    43    34    1
    48    44    28    1
