@<TRIPOS>MOLECULE
outputs/IAG933/test6/raw/output_5675_IAG933_linker_design_.xyz
 42 45 0 0 0
SMALL
GASTEIGER

@<TRIPOS>ATOM
      1 C         -24.8550   -1.0120   30.1430 C.3     1  UNL1        0.0669
      2 C         -24.9730   -2.5050   29.7880 C.2     1  UNL1       -0.0187
      3 C         -23.9060   -3.1730   29.1460 C.2     1  UNL1       -0.0042
      4 C         -23.9890   -4.5490   28.8530 C.2     1  UNL1       -0.0003
      5 C         -25.1370   -5.2800   29.2050 C.2     1  UNL1       -0.0000
      6 C         -26.2320   -4.6110   29.7840 C.2     1  UNL1       -0.0003
      7 C         -26.1550   -3.2320   30.0650 C.2     1  UNL1       -0.0042
      8 C         -25.3870   -0.6790   31.5710 C.3     1  UNL1        0.0792
      9 C         -25.1890    0.7730   32.0280 C.3     1  UNL1        0.0193
     10 C         -25.3360    0.6840   33.5440 C.3     1  UNL1        0.0202
     11 C         -24.8290   -0.7150   33.9050 C.3     1  UNL1        0.0887
     12 N         -24.7580   -1.4810   32.6460 N.3     1  UNL1       -0.2190
     13 C         -25.6880    1.6140   26.4610 C.3     1  UNL1        0.0703
     14 C         -26.2500    2.9200   26.3950 C.2     1  UNL1        0.0548
     15 C         -25.6420    4.0930   27.1230 C.2     1  UNL1        0.2624
     16 N         -25.6140    5.2520   26.4490 N.am    1  UNL1       -0.2000
     17 C         -25.0260    6.4790   26.9630 C.3     1  UNL1        0.1388
     18 O         -25.1430    3.9660   28.2430 O.2     1  UNL1       -0.2687
     19 C         -27.4380    3.0910   25.6450 C.2     1  UNL1        0.1021
     20 N         -28.0750    2.0890   25.0030 N.2     1  UNL1       -0.2119
     21 C         -27.5430    0.8490   25.0790 C.2     1  UNL1        0.2341
     22 O         -28.1930   -0.2080   24.4770 O.2     1  UNL1       -0.4585
     23 C         -29.4600    0.0050   23.8660 C.3     1  UNL1        0.2423
     24 C         -30.0650   -1.3770   23.5730 C.3     1  UNL1        0.2292
     25 O         -30.7290   -1.8780   24.7210 O.3     1  UNL1       -0.2162
     26 C         -26.3540    0.5760   25.7770 C.3     1  UNL1        0.2400
     27 F         -25.8600   -0.6810   25.7950 F       1  UNL1       -0.2269
     28 C         -24.6376    1.2124   29.0389 C.3     1  UNL1        0.1036
     29 N         -27.8791    2.8705   32.5741 N.am    1  UNL1       -0.0861
     30 C         -24.0453   -0.0259   29.4309 C.3     1  UNL1        0.1364
     31 O         -29.1999    3.3723   30.9580 O.2     1  UNL1       -0.2695
     32 C         -24.2558    1.3631   26.5149 C.3     1  UNL1        0.0117
     33 O         -22.7070   -0.1759   28.9277 O.3     1  UNL1       -0.3569
     34 C         -21.1851    1.3284   27.5537 C.3     1  UNL1        0.0321
     35 O         -28.2009    0.4350   30.7922 O.co2   1  UNL1       -0.2435
     36 C         -28.1439    3.0143   31.3363 C.2     1  UNL1        0.2878
     37 CA        -26.9550    2.4432   30.2759 C.3     1  UNL1        0.2556
     38 N         -25.5216    2.0193   29.8123 N.3     1  UNL1       -0.1990
     39 C         -27.6608    1.2298   29.9105 C.2     1  UNL1        0.3893
     40 OXT       -27.7088    0.8286   28.7207 O.co2   1  UNL1       -0.2435
     41 C         -23.7590    1.3133   27.9963 C.3     1  UNL1        0.0461
     42 C         -22.4879    0.8505   28.1503 C.3     1  UNL1        0.1166
@<TRIPOS>BOND
     1     1     2    1
     2     2     7    1
     3     3     2    2
     4     4     3    1
     5     4     5    2
     6     5     6    1
     7     6     7    2
     8     8     1    1
     9     8     9    1
    10     8    12    1
    11     9    10    1
    12    10    11    1
    13    12    11    1
    14    13    32    1
    15    14    13    1
    16    14    15    1
    17    15    18    2
    18    16    17    1
    19    16    15    1
    20    19    14    2
    21    20    21    2
    22    20    19    1
    23    21    26    1
    24    22    21    1
    25    23    22    1
    26    24    23    1
    27    24    25    1
    28    26    27    1
    29    26    13    1
    30    28    30    1
    31    28    38    1
    32    30     1    1
    33    31    36    2
    34    33    30    1
    35    36    29    1
    36    37    38    1
    37    37    36    1
    38    39    37    1
    39    39    35   ar
    40    40    39   ar
    41    41    32    1
    42    41    42    1
    43    41    28    1
    44    42    34    1
    45    42    33    1
