@<TRIPOS>MOLECULE
outputs/IAG933/test6/raw/output_5679_IAG933_linker_design_.xyz
 48 53 0 0 0
SMALL
GASTEIGER

@<TRIPOS>ATOM
      1 C         -24.8550   -1.0120   30.1430 C.3     1  UNL1        0.1118
      2 C         -24.9730   -2.5050   29.7880 C.2     1  UNL1       -0.0030
      3 C         -23.9060   -3.1730   29.1460 C.2     1  UNL1       -0.0026
      4 C         -23.9890   -4.5490   28.8530 C.2     1  UNL1       -0.0003
      5 C         -25.1370   -5.2800   29.2050 C.2     1  UNL1       -0.0000
      6 C         -26.2320   -4.6110   29.7840 C.2     1  UNL1       -0.0003
      7 C         -26.1550   -3.2320   30.0650 C.2     1  UNL1       -0.0026
      8 C         -25.3870   -0.6790   31.5710 C.3     1  UNL1        0.0951
      9 C         -25.1890    0.7730   32.0280 C.3     1  UNL1        0.0209
     10 C         -25.3360    0.6840   33.5440 C.3     1  UNL1        0.0203
     11 C         -24.8290   -0.7150   33.9050 C.3     1  UNL1        0.0888
     12 N         -24.7580   -1.4810   32.6460 N.3     1  UNL1       -0.2174
     13 C         -25.6880    1.6140   26.4610 C.2     1  UNL1        0.0396
     14 C         -26.2500    2.9200   26.3950 C.2     1  UNL1        0.0766
     15 C         -25.6420    4.0930   27.1230 C.2     1  UNL1        0.2664
     16 N         -25.6140    5.2520   26.4490 N.am    1  UNL1       -0.1997
     17 C         -25.0260    6.4790   26.9630 C.3     1  UNL1        0.1388
     18 O         -25.1430    3.9660   28.2430 O.2     1  UNL1       -0.2683
     19 C         -27.4380    3.0910   25.6450 C.2     1  UNL1        0.1067
     20 N         -28.0750    2.0890   25.0030 N.2     1  UNL1       -0.2081
     21 C         -27.5430    0.8490   25.0790 C.2     1  UNL1        0.2533
     22 O         -28.1930   -0.2080   24.4770 O.2     1  UNL1       -0.4558
     23 C         -29.4600    0.0050   23.8660 C.3     1  UNL1        0.2426
     24 C         -30.0650   -1.3770   23.5730 C.3     1  UNL1        0.2292
     25 O         -30.7290   -1.8780   24.7210 O.3     1  UNL1       -0.2162
     26 C         -26.3540    0.5760   25.7770 C.2     1  UNL1        0.1931
     27 F         -25.8600   -0.6810   25.7950 F       1  UNL1       -0.1992
     28 C         -27.5274    1.1821   29.3542 C.2     1  UNL1       -0.0062
     29 C         -24.6244    1.2704   27.3792 C.2     1  UNL1        0.0201
     30 N         -33.0851    3.3486   30.6182 N.3     1  UNL1       -0.0957
     31 C         -29.7711    0.2172   29.2255 C.3     1  UNL1        0.0645
     32 C         -28.3509    1.9361   30.3844 C.3     1  UNL1        0.0595
     33 O         -30.4611    2.6647   29.2088 O.3     1  UNL1       -0.3307
     34 O         -32.3571    1.2360   29.3700 O.3     1  UNL1       -0.3090
     35 C         -22.3574    0.9156   27.8982 C.3     1  UNL1        0.1215
     36 C         -25.0918    0.7704   28.6195 C.2     1  UNL1        0.0827
     37 C         -31.3744    1.7192   28.4456 C.3     1  UNL1        0.2646
     38 C         -33.2586    2.1022   29.9055 C.3     1  UNL1        0.2543
     39 N         -24.2432    0.0431   29.3582 N.pl3   1  UNL1       -0.2967
     40 O         -30.6670   -0.3319   26.8875 O.3     1  UNL1       -0.3483
     41 C         -28.3388   -0.1933   29.1591 C.3     1  UNL1        0.0349
     42 C         -30.4119    0.5319   28.0901 C.3     1  UNL1        0.1740
     43 C         -29.7971    1.7288   29.9057 C.3     1  UNL1        0.1252
     44 C         -22.8055    0.1686   29.0581 C.3     1  UNL1        0.1122
     45 CL        -20.9636    1.7555   27.5347 Cl      1  UNL1       -0.1084
     46 C         -26.2519    1.1245   28.9283 C.1     1  UNL1       -0.0957
     47 C         -31.6441   -1.3426   27.0771 C.3     1  UNL1        0.1742
     48 C         -23.3732    1.3872   26.9463 C.2     1  UNL1       -0.0066
@<TRIPOS>BOND
     1     1     2    1
     2     2     7    1
     3     3     2    2
     4     4     3    1
     5     4     5    2
     6     5     6    1
     7     6     7    2
     8     8     1    1
     9     8     9    1
    10     8    12    1
    11     9    10    1
    12    10    11    1
    13    12    11    1
    14    13    29    1
    15    14    13    1
    16    14    15    1
    17    15    18    2
    18    16    17    1
    19    16    15    1
    20    19    14    2
    21    20    21    2
    22    20    19    1
    23    21    26    1
    24    22    21    1
    25    23    22    1
    26    24    23    1
    27    24    25    1
    28    26    27    1
    29    26    13    2
    30    28    32    1
    31    29    36    1
    32    31    41    1
    33    31    43    1
    34    33    43    1
    35    34    38    1
    36    35    45    1
    37    35    44    1
    38    36    46    2
    39    36    39    1
    40    37    33    1
    41    37    34    1
    42    38    30    1
    43    39     1    1
    44    40    47    1
    45    41    28    1
    46    42    40    1
    47    42    37    1
    48    42    31    1
    49    43    32    1
    50    44    39    1
    51    46    28    2
    52    48    29    2
    53    48    35    1
