@<TRIPOS>MOLECULE
outputs/IAG933/test6/raw/output_5686_IAG933_linker_design_.xyz
 50 57 0 0 0
SMALL
GASTEIGER

@<TRIPOS>ATOM
      1 C         -24.8550   -1.0120   30.1430 C.3     1  UNL1        0.0437
      2 C         -24.9730   -2.5050   29.7880 C.2     1  UNL1       -0.0208
      3 C         -23.9060   -3.1730   29.1460 C.2     1  UNL1       -0.0042
      4 C         -23.9890   -4.5490   28.8530 C.2     1  UNL1       -0.0003
      5 C         -25.1370   -5.2800   29.2050 C.2     1  UNL1       -0.0000
      6 C         -26.2320   -4.6110   29.7840 C.2     1  UNL1       -0.0003
      7 C         -26.1550   -3.2320   30.0650 C.2     1  UNL1       -0.0042
      8 C         -25.3870   -0.6790   31.5710 C.3     1  UNL1        0.0771
      9 C         -25.1890    0.7730   32.0280 C.3     1  UNL1        0.0179
     10 C         -25.3360    0.6840   33.5440 C.3     1  UNL1        0.0202
     11 C         -24.8290   -0.7150   33.9050 C.3     1  UNL1        0.0887
     12 N         -24.7580   -1.4810   32.6460 N.3     1  UNL1       -0.2191
     13 C         -25.6880    1.6140   26.4610 C.3     1  UNL1        0.0936
     14 C         -26.2500    2.9200   26.3950 C.2     1  UNL1        0.0567
     15 C         -25.6420    4.0930   27.1230 C.2     1  UNL1        0.2180
     16 N         -25.6140    5.2520   26.4490 N.2     1  UNL1       -0.2359
     17 C         -25.0260    6.4790   26.9630 C.3     1  UNL1        0.1550
     18 O         -25.1430    3.9660   28.2430 O.2     1  UNL1       -0.4644
     19 C         -27.4380    3.0910   25.6450 C.2     1  UNL1        0.1025
     20 N         -28.0750    2.0890   25.0030 N.2     1  UNL1       -0.2118
     21 C         -27.5430    0.8490   25.0790 C.2     1  UNL1        0.2344
     22 O         -28.1930   -0.2080   24.4770 O.2     1  UNL1       -0.4585
     23 C         -29.4600    0.0050   23.8660 C.3     1  UNL1        0.2423
     24 C         -30.0650   -1.3770   23.5730 C.3     1  UNL1        0.2292
     25 O         -30.7290   -1.8780   24.7210 O.3     1  UNL1       -0.2162
     26 C         -26.3540    0.5760   25.7770 C.3     1  UNL1        0.2440
     27 F         -25.8600   -0.6810   25.7950 F       1  UNL1       -0.2265
     28 C         -26.1035    5.2455   30.6802 C.3     1  UNL1        0.0056
     29 C         -23.8271    0.9400   27.5215 C.2     1  UNL1        0.0625
     30 O         -29.1080    3.2453   32.5594 O.co2   1  UNL1       -0.2457
     31 C         -24.2905    2.6246   30.4813 C.3     1  UNL1        0.1131
     32 C         -23.5473    2.1831   25.4284 C.2     1  UNL1       -0.0025
     33 C         -21.3501    1.8667   26.4766 C.2     1  UNL1        0.0161
     34 C         -26.1196    3.3381   29.1687 C.3     1  UNL1        0.1689
     35 C         -21.7077    1.7024   27.7616 C.2     1  UNL1        0.0664
     36 C         -25.4932    3.7601   30.4595 C.3     1  UNL1        0.0580
     37 C         -28.7091    5.6180   30.7456 C.3     1  UNL1        0.0006
     38 N         -22.9541    1.4343   28.3766 N.pl3   1  UNL1       -0.2709
     39 C         -26.2641    1.7053   31.5463 C.3     1  UNL1        0.0052
     40 N         -23.5054    1.8443   30.4523 N.3     1  UNL1       -0.1967
     41 C         -27.3333    5.1892   31.1490 C.3     1  UNL1        0.0109
     42 C         -28.0789    3.6522   33.1561 C.2     1  UNL1        0.3643
     43 C         -23.8206    1.9828   29.5090 C.3     1  UNL1        0.1678
     44 C         -24.2498    1.5934   26.5236 C.2     1  UNL1       -0.0002
     45 C         -26.7280    2.3603   30.2419 C.3     1  UNL1        0.0450
     46 C         -28.2445    5.8848   33.3866 C.3     1  UNL1        0.0112
     47 C         -29.1335    6.2820   32.1266 C.3     1  UNL1        0.0006
     48 C         -22.1472    2.1441   25.3573 C.2     1  UNL1        0.0011
     49 O         -27.6340    3.1301   34.1611 O.co2   1  UNL1       -0.2457
     50 C         -27.4250    4.9393   32.6930 C.3     1  UNL1        0.1034
@<TRIPOS>BOND
     1     2     7    1
     2     2     1    1
     3     3     2    2
     4     4     3    1
     5     4     5    2
     6     5     6    1
     7     6     7    2
     8     8     1    1
     9     8     9    1
    10     8    12    1
    11     9    39    1
    12     9    10    1
    13    10    11    1
    14    12    11    1
    15    13    14    1
    16    13    44    1
    17    14    15    1
    18    15    18    1
    19    16    17    1
    20    16    15    2
    21    19    14    2
    22    20    21    2
    23    20    19    1
    24    21    26    1
    25    22    21    1
    26    23    22    1
    27    24    23    1
    28    24    25    1
    29    26    27    1
    30    26    13    1
    31    29    38    1
    32    30    42   ar
    33    31    40    1
    34    32    44    1
    35    33    35    2
    36    34    18    1
    37    34    45    1
    38    34    36    1
    39    35    38    1
    40    36    31    1
    41    36    28    1
    42    37    41    1
    43    37    47    1
    44    38    43    1
    45    41    28    1
    46    41    50    1
    47    42    49   ar
    48    43    40    1
    49    43    31    1
    50    44    29    2
    51    45    36    1
    52    45    39    1
    53    47    46    1
    54    48    32    2
    55    48    33    1
    56    50    42    1
    57    50    46    1
