@<TRIPOS>MOLECULE
outputs/IAG933/test6/raw/output_5697_IAG933_linker_design_.xyz
 42 46 0 0 0
SMALL
GASTEIGER

@<TRIPOS>ATOM
      1 C         -24.8550   -1.0120   30.1430 C.3     1  UNL1        0.0966
      2 C         -24.9730   -2.5050   29.7880 C.2     1  UNL1       -0.0064
      3 C         -23.9060   -3.1730   29.1460 C.2     1  UNL1       -0.0029
      4 C         -23.9890   -4.5490   28.8530 C.2     1  UNL1       -0.0003
      5 C         -25.1370   -5.2800   29.2050 C.2     1  UNL1       -0.0000
      6 C         -26.2320   -4.6110   29.7840 C.2     1  UNL1       -0.0003
      7 C         -26.1550   -3.2320   30.0650 C.2     1  UNL1       -0.0029
      8 C         -25.3870   -0.6790   31.5710 C.3     1  UNL1        0.0916
      9 C         -25.1890    0.7730   32.0280 C.3     1  UNL1        0.0206
     10 C         -25.3360    0.6840   33.5440 C.3     1  UNL1        0.0203
     11 C         -24.8290   -0.7150   33.9050 C.3     1  UNL1        0.0888
     12 N         -24.7580   -1.4810   32.6460 N.3     1  UNL1       -0.2178
     13 C         -25.6880    1.6140   26.4610 C.3     1  UNL1        0.1000
     14 C         -26.2500    2.9200   26.3950 C.2     1  UNL1        0.0573
     15 C         -25.6420    4.0930   27.1230 C.2     1  UNL1        0.2625
     16 N         -25.6140    5.2520   26.4490 N.am    1  UNL1       -0.2000
     17 C         -25.0260    6.4790   26.9630 C.3     1  UNL1        0.1388
     18 O         -25.1430    3.9660   28.2430 O.2     1  UNL1       -0.2687
     19 C         -27.4380    3.0910   25.6450 C.2     1  UNL1        0.1022
     20 N         -28.0750    2.0890   25.0030 N.2     1  UNL1       -0.2119
     21 C         -27.5430    0.8490   25.0790 C.2     1  UNL1        0.2342
     22 O         -28.1930   -0.2080   24.4770 O.2     1  UNL1       -0.4585
     23 C         -29.4600    0.0050   23.8660 C.3     1  UNL1        0.2423
     24 C         -30.0650   -1.3770   23.5730 C.3     1  UNL1        0.2292
     25 O         -30.7290   -1.8780   24.7210 O.3     1  UNL1       -0.2162
     26 C         -26.3540    0.5760   25.7770 C.3     1  UNL1        0.2424
     27 F         -25.8600   -0.6810   25.7950 F       1  UNL1       -0.2268
     28 O         -22.1650   -1.9130   28.9902 O.2     1  UNL1       -0.2946
     29 C         -22.5150    1.0849   27.9768 C.3     1  UNL1        0.0680
     30 C         -23.1038    1.8403   25.7131 C.2     1  UNL1        0.3669
     31 O         -22.0633    2.4352   25.5166 O.co2   1  UNL1       -0.2456
     32 C         -22.9534    0.1678   28.9626 C.3     1  UNL1        0.1193
     33 C         -24.8998   -0.2839   28.1083 C.3     1  UNL1        0.1043
     34 C         -24.7640    1.2684   27.5394 C.3     1  UNL1        0.1584
     35 C         -21.8006   -0.6888   29.1070 C.2     1  UNL1        0.1678
     36 C         -20.6448    0.0021   28.5109 C.3     1  UNL1        0.1012
     37 O         -25.3270    1.8787   28.7145 O.3     1  UNL1       -0.2232
     38 C         -21.1344    1.0822   27.9202 C.3     1  UNL1        0.1706
     39 C         -23.4783    1.4744   27.1916 C.3     1  UNL1        0.1374
     40 N         -24.2879   -0.1458   29.3080 N.3     1  UNL1       -0.2621
     41 O         -23.7841    1.5222   24.7506 O.co2   1  UNL1       -0.2456
     42 F         -20.3018    1.9231   27.2503 F       1  UNL1       -0.2368
@<TRIPOS>BOND
     1     1     2    1
     2     2     7    1
     3     3     2    2
     4     4     3    1
     5     4     5    2
     6     5     6    1
     7     6     7    2
     8     8     1    1
     9     8     9    1
    10     8    12    1
    11     9    10    1
    12    10    11    1
    13    12    11    1
    14    13    14    1
    15    13    34    1
    16    14    15    1
    17    15    18    2
    18    16    17    1
    19    16    15    1
    20    19    14    2
    21    20    21    2
    22    20    19    1
    23    21    26    1
    24    22    21    1
    25    23    22    1
    26    24    23    1
    27    24    25    1
    28    26    27    1
    29    26    13    1
    30    28    35    2
    31    29    32    1
    32    30    39    1
    33    31    30   ar
    34    32    35    1
    35    32    40    1
    36    33    40    1
    37    34    33    1
    38    34    37    1
    39    36    35    1
    40    38    29    1
    41    38    36    1
    42    39    34    1
    43    39    29    1
    44    40     1    1
    45    41    30   ar
    46    42    38    1
