@<TRIPOS>MOLECULE
outputs/IAG933/test6/raw/output_5698_IAG933_linker_design_.xyz
 42 45 0 0 0
SMALL
GASTEIGER

@<TRIPOS>ATOM
      1 C         -24.8550   -1.0120   30.1430 C.3     1  UNL1        0.0432
      2 C         -24.9730   -2.5050   29.7880 C.2     1  UNL1       -0.0208
      3 C         -23.9060   -3.1730   29.1460 C.2     1  UNL1       -0.0042
      4 C         -23.9890   -4.5490   28.8530 C.2     1  UNL1       -0.0003
      5 C         -25.1370   -5.2800   29.2050 C.2     1  UNL1       -0.0000
      6 C         -26.2320   -4.6110   29.7840 C.2     1  UNL1       -0.0003
      7 C         -26.1550   -3.2320   30.0650 C.2     1  UNL1       -0.0042
      8 C         -25.3870   -0.6790   31.5710 C.3     1  UNL1        0.0858
      9 C         -25.1890    0.7730   32.0280 C.3     1  UNL1        0.0965
     10 C         -25.3360    0.6840   33.5440 C.3     1  UNL1        0.0294
     11 C         -24.8290   -0.7150   33.9050 C.3     1  UNL1        0.0892
     12 N         -24.7580   -1.4810   32.6460 N.3     1  UNL1       -0.2186
     13 C         -25.6880    1.6140   26.4610 C.2     1  UNL1        0.0378
     14 C         -26.2500    2.9200   26.3950 C.2     1  UNL1        0.0765
     15 C         -25.6420    4.0930   27.1230 C.2     1  UNL1        0.2664
     16 N         -25.6140    5.2520   26.4490 N.am    1  UNL1       -0.1997
     17 C         -25.0260    6.4790   26.9630 C.3     1  UNL1        0.1388
     18 O         -25.1430    3.9660   28.2430 O.2     1  UNL1       -0.2683
     19 C         -27.4380    3.0910   25.6450 C.2     1  UNL1        0.1067
     20 N         -28.0750    2.0890   25.0030 N.2     1  UNL1       -0.2081
     21 C         -27.5430    0.8490   25.0790 C.2     1  UNL1        0.2533
     22 O         -28.1930   -0.2080   24.4770 O.2     1  UNL1       -0.4558
     23 C         -29.4600    0.0050   23.8660 C.3     1  UNL1        0.2426
     24 C         -30.0650   -1.3770   23.5730 C.3     1  UNL1        0.2292
     25 O         -30.7290   -1.8780   24.7210 O.3     1  UNL1       -0.2162
     26 C         -26.3540    0.5760   25.7770 C.2     1  UNL1        0.1930
     27 F         -25.8600   -0.6810   25.7950 F       1  UNL1       -0.1992
     28 C         -25.1282   -0.2978   28.8120 C.3     1  UNL1        0.0322
     29 O         -27.4163    3.6598   30.8567 O.3     1  UNL1       -0.2579
     30 C         -24.4459    1.4016   26.9585 C.2     1  UNL1       -0.0013
     31 C         -22.8282    0.7144   28.5915 C.2     1  UNL1        0.0254
     32 O         -27.4803    0.6727   29.7685 O.3     1  UNL1       -0.1935
     33 O         -24.7440    2.9711   31.0975 O.2     1  UNL1       -0.2727
     34 C         -27.1527    4.8335   31.6087 C.3     1  UNL1        0.2059
     35 C         -23.4636    2.0204   26.1732 C.2     1  UNL1        0.0021
     36 C         -22.1740    2.0745   26.6616 C.2     1  UNL1        0.0296
     37 F         -20.5821    1.5059   28.2310 F       1  UNL1       -0.2042
     38 C         -21.8861    1.4352   27.8562 C.2     1  UNL1        0.1398
     39 C         -25.6147    2.1484   31.4947 C.2     1  UNL1        0.2510
     40 C         -27.8028    1.6700   30.5186 C.3     1  UNL1        0.3048
     41 N         -26.9754    2.4514   31.1234 N.am    1  UNL1       -0.1343
     42 C         -24.1195    0.6289   28.0990 C.2     1  UNL1       -0.0195
@<TRIPOS>BOND
     1     1    28    1
     2     2     7    1
     3     2     1    1
     4     3     2    2
     5     4     3    1
     6     4     5    2
     7     5     6    1
     8     6     7    2
     9     8     1    1
    10     8     9    1
    11     8    12    1
    12     9    39    1
    13     9    10    1
    14    10    11    1
    15    12    11    1
    16    13    30    1
    17    14    13    1
    18    14    15    1
    19    15    18    2
    20    16    17    1
    21    16    15    1
    22    19    14    2
    23    20    21    2
    24    20    19    1
    25    21    26    1
    26    22    21    1
    27    23    22    1
    28    24    23    1
    29    24    25    1
    30    26    27    1
    31    26    13    2
    32    29    41    1
    33    29    34    1
    34    30    42    1
    35    32    40    1
    36    33    39    2
    37    35    36    1
    38    35    30    2
    39    36    38    2
    40    38    37    1
    41    38    31    1
    42    40    41    1
    43    41    39   am
    44    42    31    2
    45    42    28    1
