@<TRIPOS>MOLECULE
No_57-gen_results/8p0m/2024-11-27-11-27-31/
 21 23 0 0 0
SMALL
GASTEIGER

@<TRIPOS>ATOM
      1 C         -28.0162   -0.8135   28.8779 C.ar    1  UNL1        0.0065
      2 C         -28.4690   -0.7850   29.8287 C.ar    1  UNL1        0.0760
      3 C         -26.5042   -0.7777   28.8766 C.ar    1  UNL1        0.0002
      4 C         -25.8103   -0.8531   30.1028 C.ar    1  UNL1        0.0000
      5 C         -27.9906   -0.8916   31.2257 C.ar    1  UNL1        0.0065
      6 C         -26.6042   -0.8676   31.2652 C.ar    1  UNL1        0.0002
      7 C         -24.4452   -0.9530   30.3506 C.ar    1  UNL1        0.0000
      8 C         -23.7824   -0.8008   31.1345 C.ar    1  UNL1        0.0000
      9 C         -22.3166   -0.8112   31.2683 C.ar    1  UNL1        0.0000
     10 C         -21.7292   -0.9060   30.0529 C.ar    1  UNL1        0.0000
     11 C         -23.6090   -1.0789   29.0385 C.ar    1  UNL1        0.0000
     12 C         -22.3835   -1.0654   28.9079 C.ar    1  UNL1        0.0000
     13 C         -30.0897   -0.7284   29.8180 C.2     1  UNL1        0.3457
     14 O         -30.6773    0.1850   30.4775 O.3     1  UNL1       -0.4194
     15 O         -30.6730   -1.5157   29.0875 O.2     1  UNL1       -0.2445
     16 C         -31.6894    0.7652   30.1465 C.ar    1  UNL1        0.1678
     17 C         -32.2681    1.9141   30.7708 C.ar    1  UNL1        0.0408
     18 C         -33.3944    2.4398   30.4001 C.ar    1  UNL1        0.0238
     19 C         -34.0914    1.8595   29.3051 C.ar    1  UNL1        0.0991
     20 C         -32.5168    0.2698   29.0660 C.ar    1  UNL1        0.1363
     21 N         -33.6384    0.8578   28.7231 N.ar    1  UNL1       -0.2391
@<TRIPOS>BOND
     1     4     7    1
     2     2    13    1
     3    13    14    1
     4    13    15    2
     5    14    16    1
     6     7     8   ar
     7     8     9   ar
     8     9    10   ar
     9    10    12   ar
    10    12    11   ar
    11    11     7   ar
    12     1     2   ar
    13     2     5   ar
    14     5     6   ar
    15     6     4   ar
    16     4     3   ar
    17     3     1   ar
    18    16    17   ar
    19    17    18   ar
    20    18    19   ar
    21    19    21   ar
    22    21    20   ar
    23    20    16   ar
