@<TRIPOS>MOLECULE
outputs/IAG933/test6/raw/output_570_IAG933_linker_design_.xyz
 44 47 0 0 0
SMALL
GASTEIGER

@<TRIPOS>ATOM
      1 C         -24.8550   -1.0120   30.1430 C.3     1  UNL1        0.0607
      2 C         -24.9730   -2.5050   29.7880 C.2     1  UNL1       -0.0171
      3 C         -23.9060   -3.1730   29.1460 C.2     1  UNL1       -0.0039
      4 C         -23.9890   -4.5490   28.8530 C.2     1  UNL1       -0.0003
      5 C         -25.1370   -5.2800   29.2050 C.2     1  UNL1       -0.0000
      6 C         -26.2320   -4.6110   29.7840 C.2     1  UNL1       -0.0003
      7 C         -26.1550   -3.2320   30.0650 C.2     1  UNL1       -0.0039
      8 C         -25.3870   -0.6790   31.5710 C.3     1  UNL1        0.0808
      9 C         -25.1890    0.7730   32.0280 C.3     1  UNL1        0.0195
     10 C         -25.3360    0.6840   33.5440 C.3     1  UNL1        0.0203
     11 C         -24.8290   -0.7150   33.9050 C.3     1  UNL1        0.0887
     12 N         -24.7580   -1.4810   32.6460 N.3     1  UNL1       -0.2188
     13 C         -25.6880    1.6140   26.4610 C.2     1  UNL1        0.0383
     14 C         -26.2500    2.9200   26.3950 C.2     1  UNL1        0.0765
     15 C         -25.6420    4.0930   27.1230 C.2     1  UNL1        0.2664
     16 N         -25.6140    5.2520   26.4490 N.am    1  UNL1       -0.1997
     17 C         -25.0260    6.4790   26.9630 C.3     1  UNL1        0.1388
     18 O         -25.1430    3.9660   28.2430 O.2     1  UNL1       -0.2683
     19 C         -27.4380    3.0910   25.6450 C.2     1  UNL1        0.1067
     20 N         -28.0750    2.0890   25.0030 N.2     1  UNL1       -0.2081
     21 C         -27.5430    0.8490   25.0790 C.2     1  UNL1        0.2533
     22 O         -28.1930   -0.2080   24.4770 O.2     1  UNL1       -0.4558
     23 C         -29.4600    0.0050   23.8660 C.3     1  UNL1        0.2426
     24 C         -30.0650   -1.3770   23.5730 C.3     1  UNL1        0.2292
     25 O         -30.7290   -1.8780   24.7210 O.3     1  UNL1       -0.2162
     26 C         -26.3540    0.5760   25.7770 C.2     1  UNL1        0.1930
     27 F         -25.8600   -0.6810   25.7950 F       1  UNL1       -0.1992
     28 C         -22.7441    0.2363   29.0514 C.2     1  UNL1        0.0259
     29 C         -22.3415    1.0315   27.9768 C.2     1  UNL1        0.1398
     30 O         -33.4247   -1.2078   29.6333 O.3     1  UNL1       -0.3075
     31 O         -32.4476   -2.2299   27.5892 O.3     1  UNL1       -0.3075
     32 N         -27.3430   -0.3150   28.8719 N.am    1  UNL1       -0.2016
     33 O         -26.8405    1.6501   29.5276 O.2     1  UNL1       -0.2684
     34 C         -25.0509    0.5887   28.4724 C.2     1  UNL1        0.0516
     35 O         -32.0782    0.1130   27.8460 O.3     1  UNL1       -0.3075
     36 C         -23.3098    1.4661   27.0743 C.2     1  UNL1        0.0298
     37 C         -29.6432   -0.9100   28.7163 C.3     1  UNL1        0.0449
     38 C         -26.4482    0.6564   28.9720 C.2     1  UNL1        0.2645
     39 C         -24.1467   -0.0573   29.2398 C.2     1  UNL1       -0.0104
     40 C         -24.6448    1.1739   27.3234 C.2     1  UNL1        0.0089
     41 S         -32.3484   -1.1341   28.6225 S.3     1  UNL1       -0.1960
     42 C         -28.6859    0.0150   29.4587 C.3     1  UNL1        0.1172
     43 F         -21.0349    1.4068   27.7518 F       1  UNL1       -0.2042
     44 C         -30.8068   -1.4122   29.5624 C.3     1  UNL1        0.1071
@<TRIPOS>BOND
     1     1    39    1
     2     2     7    1
     3     2     1    1
     4     3     2    2
     5     4     3    1
     6     4     5    2
     7     5     6    1
     8     6     7    2
     9     8     1    1
    10     8     9    1
    11     8    12    1
    12     9    10    1
    13    10    11    1
    14    12    11    1
    15    13    40    1
    16    14    13    1
    17    14    15    1
    18    15    18    2
    19    16    17    1
    20    16    15    1
    21    19    14    2
    22    20    21    2
    23    20    19    1
    24    21    26    1
    25    22    21    1
    26    23    22    1
    27    24    23    1
    28    24    25    1
    29    26    27    1
    30    26    13    2
    31    28    39    1
    32    29    28    2
    33    31    41    1
    34    32    38    1
    35    32    42    1
    36    34    38    1
    37    34    39    2
    38    35    41    1
    39    36    40    2
    40    36    29    1
    41    37    42    1
    42    37    44    1
    43    38    33    2
    44    40    34    1
    45    41    44    1
    46    41    30    1
    47    43    29    1
