@<TRIPOS>MOLECULE
outputs/IAG933/test6/raw/output_5702_IAG933_linker_design_.xyz
 42 46 0 0 0
SMALL
GASTEIGER

@<TRIPOS>ATOM
      1 C         -24.8550   -1.0120   30.1430 C.3     1  UNL1        0.0395
      2 C         -24.9730   -2.5050   29.7880 C.2     1  UNL1       -0.0211
      3 C         -23.9060   -3.1730   29.1460 C.2     1  UNL1       -0.0042
      4 C         -23.9890   -4.5490   28.8530 C.2     1  UNL1       -0.0003
      5 C         -25.1370   -5.2800   29.2050 C.2     1  UNL1       -0.0000
      6 C         -26.2320   -4.6110   29.7840 C.2     1  UNL1       -0.0003
      7 C         -26.1550   -3.2320   30.0650 C.2     1  UNL1       -0.0042
      8 C         -25.3870   -0.6790   31.5710 C.3     1  UNL1        0.0768
      9 C         -25.1890    0.7730   32.0280 C.3     1  UNL1        0.0192
     10 C         -25.3360    0.6840   33.5440 C.3     1  UNL1        0.0202
     11 C         -24.8290   -0.7150   33.9050 C.3     1  UNL1        0.0887
     12 N         -24.7580   -1.4810   32.6460 N.3     1  UNL1       -0.2191
     13 C         -25.6880    1.6140   26.4610 C.3     1  UNL1        0.0879
     14 C         -26.2500    2.9200   26.3950 C.2     1  UNL1        0.0585
     15 C         -25.6420    4.0930   27.1230 C.2     1  UNL1        0.2627
     16 N         -25.6140    5.2520   26.4490 N.am    1  UNL1       -0.2000
     17 C         -25.0260    6.4790   26.9630 C.3     1  UNL1        0.1388
     18 O         -25.1430    3.9660   28.2430 O.2     1  UNL1       -0.2686
     19 C         -27.4380    3.0910   25.6450 C.2     1  UNL1        0.1025
     20 N         -28.0750    2.0890   25.0030 N.2     1  UNL1       -0.2118
     21 C         -27.5430    0.8490   25.0790 C.2     1  UNL1        0.2344
     22 O         -28.1930   -0.2080   24.4770 O.2     1  UNL1       -0.4585
     23 C         -29.4600    0.0050   23.8660 C.3     1  UNL1        0.2423
     24 C         -30.0650   -1.3770   23.5730 C.3     1  UNL1        0.2292
     25 O         -30.7290   -1.8780   24.7210 O.3     1  UNL1       -0.2162
     26 C         -26.3540    0.5760   25.7770 C.3     1  UNL1        0.2437
     27 F         -25.8600   -0.6810   25.7950 F       1  UNL1       -0.2265
     28 C         -29.0169    1.9136   29.1462 C.3     1  UNL1        0.0355
     29 O         -29.3833   -0.4139   28.8287 O.3     1  UNL1       -0.2231
     30 C         -23.5825    1.2266   27.4087 C.2     1  UNL1        0.0051
     31 O         -20.9488    0.6195   28.1556 O.3     1  UNL1       -0.2939
     32 C         -22.0322    0.1808   28.9312 C.2     1  UNL1        0.3553
     33 C         -24.9008    1.2629   27.2974 C.2     1  UNL1       -0.0412
     34 C         -24.8212    0.1239   29.1923 C.3     1  UNL1        0.0237
     35 C         -23.5721    0.4525   28.6900 C.3     1  UNL1        0.1241
     36 C         -25.7537    0.8210   28.5268 C.3     1  UNL1        0.0219
     37 C         -27.1987    0.1164   28.6496 C.3     1  UNL1        0.0369
     38 C         -22.4259    1.7794   26.6886 C.3     1  UNL1        0.2613
     39 O         -21.7382   -0.5413   29.9134 O.2     1  UNL1       -0.2465
     40 CL        -22.6870    2.5748   25.1907 Cl      1  UNL1       -0.0735
     41 C         -28.4077    0.5593   28.6454 C.3     1  UNL1        0.1524
     42 O         -21.2041    1.6665   27.1622 O.3     1  UNL1       -0.1513
@<TRIPOS>BOND
     1     1     2    1
     2     2     7    1
     3     3     2    2
     4     4     3    1
     5     4     5    2
     6     5     6    1
     7     6     7    2
     8     8     1    1
     9     8     9    1
    10     8    12    1
    11     9    10    1
    12    10    11    1
    13    12    11    1
    14    13    33    1
    15    14    13    1
    16    14    15    1
    17    15    18    2
    18    16    17    1
    19    16    15    1
    20    19    14    2
    21    20    21    2
    22    20    19    1
    23    21    26    1
    24    22    21    1
    25    23    22    1
    26    24    23    1
    27    24    25    1
    28    26    27    1
    29    26    13    1
    30    31    32    1
    31    32    39    2
    32    33    30    2
    33    33    36    1
    34    34     1    1
    35    35    30    1
    36    35    32    1
    37    35    34    1
    38    36    37    1
    39    36    34    1
    40    38    40    1
    41    38    42    1
    42    38    30    1
    43    41    37    1
    44    41    29    1
    45    41    28    1
    46    42    31    1
