@<TRIPOS>MOLECULE
outputs/IAG933/test6/raw/output_5703_IAG933_linker_design_.xyz
 46 50 0 0 0
SMALL
GASTEIGER

@<TRIPOS>ATOM
      1 C         -24.8550   -1.0120   30.1430 C.3     1  UNL1        0.0733
      2 C         -24.9730   -2.5050   29.7880 C.2     1  UNL1       -0.0181
      3 C         -23.9060   -3.1730   29.1460 C.2     1  UNL1       -0.0041
      4 C         -23.9890   -4.5490   28.8530 C.2     1  UNL1       -0.0003
      5 C         -25.1370   -5.2800   29.2050 C.2     1  UNL1       -0.0000
      6 C         -26.2320   -4.6110   29.7840 C.2     1  UNL1       -0.0003
      7 C         -26.1550   -3.2320   30.0650 C.2     1  UNL1       -0.0041
      8 C         -25.3870   -0.6790   31.5710 C.3     1  UNL1        0.0798
      9 C         -25.1890    0.7730   32.0280 C.3     1  UNL1        0.0193
     10 C         -25.3360    0.6840   33.5440 C.3     1  UNL1        0.0202
     11 C         -24.8290   -0.7150   33.9050 C.3     1  UNL1        0.0887
     12 N         -24.7580   -1.4810   32.6460 N.3     1  UNL1       -0.2190
     13 C         -25.6880    1.6140   26.4610 C.3     1  UNL1        0.0899
     14 C         -26.2500    2.9200   26.3950 C.2     1  UNL1        0.0565
     15 C         -25.6420    4.0930   27.1230 C.2     1  UNL1        0.2625
     16 N         -25.6140    5.2520   26.4490 N.am    1  UNL1       -0.2000
     17 C         -25.0260    6.4790   26.9630 C.3     1  UNL1        0.1388
     18 O         -25.1430    3.9660   28.2430 O.2     1  UNL1       -0.2687
     19 C         -27.4380    3.0910   25.6450 C.2     1  UNL1        0.1022
     20 N         -28.0750    2.0890   25.0030 N.2     1  UNL1       -0.2119
     21 C         -27.5430    0.8490   25.0790 C.2     1  UNL1        0.2341
     22 O         -28.1930   -0.2080   24.4770 O.2     1  UNL1       -0.4585
     23 C         -29.4600    0.0050   23.8660 C.3     1  UNL1        0.2423
     24 C         -30.0650   -1.3770   23.5730 C.3     1  UNL1        0.2292
     25 O         -30.7290   -1.8780   24.7210 O.3     1  UNL1       -0.2162
     26 C         -26.3540    0.5760   25.7770 C.3     1  UNL1        0.2416
     27 F         -25.8600   -0.6810   25.7950 F       1  UNL1       -0.2268
     28 C         -28.0685    3.1255   28.9977 C.2     1  UNL1       -0.0001
     29 C         -24.3805   -0.0008   29.1181 C.3     1  UNL1        0.1552
     30 C         -28.0960    1.7552   28.6031 C.2     1  UNL1        0.0314
     31 N         -25.3516    0.7928   28.6228 N.am    1  UNL1       -0.2629
     32 C         -32.5868    3.7567   27.1924 C.3     1  UNL1        0.0044
     33 C         -31.1009    3.3944   26.8737 C.3     1  UNL1        0.0224
     34 N         -23.1816    0.2994   28.6585 N.3     1  UNL1       -0.1936
     35 C         -29.2698    1.3072   27.7824 C.3     1  UNL1        0.0313
     36 F         -21.8803    1.9875   25.7809 F       1  UNL1       -0.1968
     37 C         -32.9864    5.1488   26.6610 C.3     1  UNL1        0.0003
     38 C         -23.2716    1.1522   27.5697 C.3     1  UNL1        0.1595
     39 C         -26.9179    0.6739   28.8966 C.2     1  UNL1        0.2460
     40 C         -29.0458    4.1354   28.5027 C.2     1  UNL1       -0.0048
     41 C         -30.6963    1.8193   27.1968 C.3     1  UNL1        0.0092
     42 C         -24.6760    1.2748   27.4436 C.3     1  UNL1        0.1058
     43 O         -27.3421   -0.4695   28.9461 O.2     1  UNL1       -0.2702
     44 F         -21.0356    1.8271   27.5538 F       1  UNL1       -0.1968
     45 C         -22.0532    1.7037   26.9644 C.3     1  UNL1        0.3358
     46 C         -30.1238    4.4959   27.7486 C.2     1  UNL1       -0.0265
@<TRIPOS>BOND
     1     1     2    1
     2     2     7    1
     3     3     2    2
     4     4     3    1
     5     4     5    2
     6     5     6    1
     7     6     7    2
     8     8     1    1
     9     8     9    1
    10     8    12    1
    11     9    10    1
    12    10    11    1
    13    12    11    1
    14    13    14    1
    15    13    42    1
    16    14    15    1
    17    15    18    2
    18    16    17    1
    19    16    15    1
    20    19    14    2
    21    20    21    2
    22    20    19    1
    23    21    26    1
    24    22    21    1
    25    23    22    1
    26    24    23    1
    27    24    25    1
    28    26    27    1
    29    26    13    1
    30    29     1    1
    31    30    39    1
    32    30    28    2
    33    31    39   am
    34    31    29    1
    35    33    32    1
    36    33    41    1
    37    33    46    1
    38    34    29    1
    39    35    30    1
    40    36    45    1
    41    37    32    1
    42    38    45    1
    43    38    34    1
    44    39    43    2
    45    40    28    1
    46    41    35    1
    47    42    38    1
    48    42    31    1
    49    45    44    1
    50    46    40    2
