@<TRIPOS>MOLECULE
outputs/IAG933/test6/raw/output_5711_IAG933_linker_design_.xyz
 41 43 0 0 0
SMALL
GASTEIGER

@<TRIPOS>ATOM
      1 C         -24.8550   -1.0120   30.1430 C.3     1  UNL1        0.2007
      2 C         -24.9730   -2.5050   29.7880 C.2     1  UNL1        0.0214
      3 C         -23.9060   -3.1730   29.1460 C.2     1  UNL1       -0.0004
      4 C         -23.9890   -4.5490   28.8530 C.2     1  UNL1       -0.0002
      5 C         -25.1370   -5.2800   29.2050 C.2     1  UNL1       -0.0000
      6 C         -26.2320   -4.6110   29.7840 C.2     1  UNL1       -0.0002
      7 C         -26.1550   -3.2320   30.0650 C.2     1  UNL1       -0.0004
      8 C         -25.3870   -0.6790   31.5710 C.3     1  UNL1        0.1198
      9 C         -25.1890    0.7730   32.0280 C.3     1  UNL1        0.0233
     10 C         -25.3360    0.6840   33.5440 C.3     1  UNL1        0.0204
     11 C         -24.8290   -0.7150   33.9050 C.3     1  UNL1        0.0889
     12 N         -24.7580   -1.4810   32.6460 N.3     1  UNL1       -0.2150
     13 C         -25.6880    1.6140   26.4610 C.2     1  UNL1        0.0186
     14 C         -26.2500    2.9200   26.3950 C.2     1  UNL1        0.0727
     15 C         -25.6420    4.0930   27.1230 C.2     1  UNL1        0.2661
     16 N         -25.6140    5.2520   26.4490 N.am    1  UNL1       -0.1997
     17 C         -25.0260    6.4790   26.9630 C.3     1  UNL1        0.1388
     18 O         -25.1430    3.9660   28.2430 O.2     1  UNL1       -0.2683
     19 C         -27.4380    3.0910   25.6450 C.2     1  UNL1        0.1064
     20 N         -28.0750    2.0890   25.0030 N.2     1  UNL1       -0.2081
     21 C         -27.5430    0.8490   25.0790 C.2     1  UNL1        0.2530
     22 O         -28.1930   -0.2080   24.4770 O.2     1  UNL1       -0.4558
     23 C         -29.4600    0.0050   23.8660 C.3     1  UNL1        0.2426
     24 C         -30.0650   -1.3770   23.5730 C.3     1  UNL1        0.2292
     25 O         -30.7290   -1.8780   24.7210 O.3     1  UNL1       -0.2162
     26 C         -26.3540    0.5760   25.7770 C.2     1  UNL1        0.1892
     27 F         -25.8600   -0.6810   25.7950 F       1  UNL1       -0.1996
     28 O         -22.2300    2.5518   24.1821 O.2     1  UNL1       -0.2716
     29 C         -24.3376    1.6859   27.0831 C.3     1  UNL1        0.0677
     30 N         -21.5185    2.2720   26.0798 N.am    1  UNL1       -0.0878
     31 C         -23.7038    2.1645   28.0975 C.3     1  UNL1        0.1988
     32 C         -25.7270    0.0837   28.7108 C.3     1  UNL1        0.3883
     33 C         -22.6631    1.2901   28.4514 C.3     1  UNL1        0.2911
     34 O         -21.2992    1.3526   28.1252 O.3     1  UNL1       -0.2070
     35 O         -24.0433    2.5608   29.4645 O.3     1  UNL1       -0.2194
     36 C         -23.1567    0.1823   29.1498 C.2     1  UNL1        0.3875
     37 N         -22.2782   -0.4488   29.8357 N.2     1  UNL1        0.1909
     38 C         -23.5768    1.4665   25.7996 C.3     1  UNL1        0.0956
     39 N         -24.4575   -0.0247   29.1659 N.pl3   1  UNL1       -0.1585
     40 C         -22.4637    2.1404   25.3249 C.2     1  UNL1        0.2611
     41 O         -26.7160   -0.0460   28.4433 O.3     1  UNL1       -0.1637
@<TRIPOS>BOND
     1     1    39    1
     2     2     7    1
     3     2     1    1
     4     3     2    2
     5     4     3    1
     6     4     5    2
     7     5     6    1
     8     6     7    2
     9     8     1    1
    10     8     9    1
    11     8    12    1
    12     9    10    1
    13    10    11    1
    14    12    11    1
    15    13    29    1
    16    14    13    1
    17    14    15    1
    18    15    18    2
    19    16    17    1
    20    16    15    1
    21    19    14    2
    22    20    21    2
    23    20    19    1
    24    21    26    1
    25    22    21    1
    26    23    22    1
    27    24    23    1
    28    24    25    1
    29    26    27    1
    30    26    13    2
    31    28    40    2
    32    29    38    1
    33    29    31    1
    34    31    33    1
    35    31    35    1
    36    32    39    1
    37    33    34    1
    38    33    36    1
    39    36    39    1
    40    36    37    2
    41    40    38    1
    42    40    30    1
    43    41    32    1
