@<TRIPOS>MOLECULE
outputs/IAG933/test6/raw/output_5720_IAG933_linker_design_.xyz
 44 48 0 0 0
SMALL
GASTEIGER

@<TRIPOS>ATOM
      1 C         -24.8550   -1.0120   30.1430 C.3     1  UNL1        0.0590
      2 C         -24.9730   -2.5050   29.7880 C.2     1  UNL1       -0.0195
      3 C         -23.9060   -3.1730   29.1460 C.2     1  UNL1       -0.0042
      4 C         -23.9890   -4.5490   28.8530 C.2     1  UNL1       -0.0003
      5 C         -25.1370   -5.2800   29.2050 C.2     1  UNL1       -0.0000
      6 C         -26.2320   -4.6110   29.7840 C.2     1  UNL1       -0.0003
      7 C         -26.1550   -3.2320   30.0650 C.2     1  UNL1       -0.0042
      8 C         -25.3870   -0.6790   31.5710 C.3     1  UNL1        0.0785
      9 C         -25.1890    0.7730   32.0280 C.3     1  UNL1        0.0192
     10 C         -25.3360    0.6840   33.5440 C.3     1  UNL1        0.0202
     11 C         -24.8290   -0.7150   33.9050 C.3     1  UNL1        0.0887
     12 N         -24.7580   -1.4810   32.6460 N.3     1  UNL1       -0.2191
     13 C         -25.6880    1.6140   26.4610 C.2     1  UNL1        0.0354
     14 C         -26.2500    2.9200   26.3950 C.2     1  UNL1        0.0763
     15 C         -25.6420    4.0930   27.1230 C.2     1  UNL1        0.2664
     16 N         -25.6140    5.2520   26.4490 N.am    1  UNL1       -0.1997
     17 C         -25.0260    6.4790   26.9630 C.3     1  UNL1        0.1388
     18 O         -25.1430    3.9660   28.2430 O.2     1  UNL1       -0.2683
     19 C         -27.4380    3.0910   25.6450 C.2     1  UNL1        0.1067
     20 N         -28.0750    2.0890   25.0030 N.2     1  UNL1       -0.2081
     21 C         -27.5430    0.8490   25.0790 C.2     1  UNL1        0.2533
     22 O         -28.1930   -0.2080   24.4770 O.2     1  UNL1       -0.4558
     23 C         -29.4600    0.0050   23.8660 C.3     1  UNL1        0.2426
     24 C         -30.0650   -1.3770   23.5730 C.3     1  UNL1        0.2292
     25 O         -30.7290   -1.8780   24.7210 O.3     1  UNL1       -0.2162
     26 C         -26.3540    0.5760   25.7770 C.2     1  UNL1        0.1928
     27 F         -25.8600   -0.6810   25.7950 F       1  UNL1       -0.1992
     28 C         -22.7591    0.4892   28.5185 C.2     1  UNL1        0.1511
     29 C         -28.2972    1.9029   29.5737 C.3     1  UNL1        0.1102
     30 F         -22.1934   -0.1855   29.4974 F       1  UNL1       -0.2061
     31 C         -29.4254    3.9953   29.5770 C.3     1  UNL1        0.1428
     32 C         -25.2625   -0.1530   28.9808 C.3     1  UNL1        0.1110
     33 CL        -22.7081    2.6289   25.2749 Cl      1  UNL1       -0.0802
     34 O         -28.1342    4.1848   30.1706 O.3     1  UNL1       -0.3532
     35 C         -23.0781    1.7622   26.6144 C.2     1  UNL1        0.0835
     36 F         -20.8424    1.6126   27.6014 F       1  UNL1       -0.2013
     37 N         -26.2022    0.8803   29.3823 N.am    1  UNL1       -0.2060
     38 C         -24.2005    0.5383   28.2469 C.3     1  UNL1        0.0960
     39 C         -22.1395    1.3005   27.5780 C.2     1  UNL1        0.1737
     40 O         -27.9196   -0.1107   28.3721 O.2     1  UNL1       -0.2733
     41 C         -29.2184    2.7804   28.6668 C.3     1  UNL1        0.0437
     42 C         -27.4077    0.7903   29.0317 C.2     1  UNL1        0.2434
     43 C         -24.3505    1.3417   27.0516 C.2     1  UNL1        0.0010
     44 C         -27.5534    2.9261   30.4228 C.3     1  UNL1        0.1513
@<TRIPOS>BOND
     1     1    32    1
     2     2     7    1
     3     2     1    1
     4     3     2    2
     5     4     3    1
     6     4     5    2
     7     5     6    1
     8     6     7    2
     9     8     1    1
    10     8     9    1
    11     8    12    1
    12     9    10    1
    13    10    11    1
    14    12    11    1
    15    13    43    1
    16    14    13    1
    17    14    15    1
    18    15    18    2
    19    16    17    1
    20    16    15    1
    21    19    14    2
    22    20    21    2
    23    20    19    1
    24    21    26    1
    25    22    21    1
    26    23    22    1
    27    24    23    1
    28    24    25    1
    29    26    27    1
    30    26    13    2
    31    28    30    1
    32    29    42    1
    33    29    44    1
    34    31    34    1
    35    32    37    1
    36    33    35    1
    37    34    44    1
    38    35    43    2
    39    35    39    1
    40    38    28    1
    41    38    32    1
    42    39    36    1
    43    39    28    2
    44    40    42    2
    45    41    29    1
    46    41    31    1
    47    42    37    1
    48    43    38    1
