@<TRIPOS>MOLECULE
outputs/IAG933/test6/raw/output_5723_IAG933_linker_design_.xyz
 43 46 0 0 0
SMALL
GASTEIGER

@<TRIPOS>ATOM
      1 C         -24.8550   -1.0120   30.1430 C.3     1  UNL1        0.0487
      2 C         -24.9730   -2.5050   29.7880 C.2     1  UNL1       -0.0206
      3 C         -23.9060   -3.1730   29.1460 C.2     1  UNL1       -0.0042
      4 C         -23.9890   -4.5490   28.8530 C.2     1  UNL1       -0.0003
      5 C         -25.1370   -5.2800   29.2050 C.2     1  UNL1       -0.0000
      6 C         -26.2320   -4.6110   29.7840 C.2     1  UNL1       -0.0003
      7 C         -26.1550   -3.2320   30.0650 C.2     1  UNL1       -0.0042
      8 C         -25.3870   -0.6790   31.5710 C.3     1  UNL1        0.0773
      9 C         -25.1890    0.7730   32.0280 C.3     1  UNL1        0.0192
     10 C         -25.3360    0.6840   33.5440 C.3     1  UNL1        0.0202
     11 C         -24.8290   -0.7150   33.9050 C.3     1  UNL1        0.0887
     12 N         -24.7580   -1.4810   32.6460 N.3     1  UNL1       -0.2191
     13 C         -25.6880    1.6140   26.4610 C.3     1  UNL1        0.0902
     14 C         -26.2500    2.9200   26.3950 C.2     1  UNL1        0.0565
     15 C         -25.6420    4.0930   27.1230 C.2     1  UNL1        0.2625
     16 N         -25.6140    5.2520   26.4490 N.am    1  UNL1       -0.2000
     17 C         -25.0260    6.4790   26.9630 C.3     1  UNL1        0.1388
     18 O         -25.1430    3.9660   28.2430 O.2     1  UNL1       -0.2687
     19 C         -27.4380    3.0910   25.6450 C.2     1  UNL1        0.1022
     20 N         -28.0750    2.0890   25.0030 N.2     1  UNL1       -0.2119
     21 C         -27.5430    0.8490   25.0790 C.2     1  UNL1        0.2341
     22 O         -28.1930   -0.2080   24.4770 O.2     1  UNL1       -0.4585
     23 C         -29.4600    0.0050   23.8660 C.3     1  UNL1        0.2423
     24 C         -30.0650   -1.3770   23.5730 C.3     1  UNL1        0.2292
     25 O         -30.7290   -1.8780   24.7210 O.3     1  UNL1       -0.2162
     26 C         -26.3540    0.5760   25.7770 C.3     1  UNL1        0.2417
     27 F         -25.8600   -0.6810   25.7950 F       1  UNL1       -0.2268
     28 N         -21.1681    1.3200   28.0877 N.am    1  UNL1       -0.0682
     29 C         -22.3492    0.6306   28.2390 C.2     1  UNL1        0.3562
     30 O         -28.1315    1.1541   30.9820 O.3     1  UNL1       -0.2009
     31 C         -25.0343    0.1164   28.9988 C.3     1  UNL1        0.1036
     32 O         -22.2772   -0.3097   29.0651 O.2     1  UNL1       -0.2478
     33 N         -23.4956    1.1071   27.4764 N.am    1  UNL1       -0.1851
     34 C         -24.6674    1.1273   27.5985 C.3     1  UNL1        0.1099
     35 C         -30.6602    4.4833   30.7044 C.3     1  UNL1        0.1742
     36 O         -30.2924    3.1241   30.6778 O.3     1  UNL1       -0.3491
     37 C         -29.3213    2.7282   29.6355 C.3     1  UNL1        0.1665
     38 CL        -22.8006    1.9573   25.9964 Cl      1  UNL1        0.0060
     39 C         -26.6049    0.3258   28.9135 C.2     1  UNL1        0.2450
     40 C         -28.1493    3.4602   30.1028 C.3     1  UNL1        0.0878
     41 C         -28.1196    1.9733   29.9841 C.3     1  UNL1        0.2307
     42 N         -27.0458    1.6108   28.9684 N.am    1  UNL1       -0.1763
     43 O         -27.3127   -0.5809   28.7842 O.2     1  UNL1       -0.2732
@<TRIPOS>BOND
     1     1    31    1
     2     2     7    1
     3     2     1    1
     4     3     2    2
     5     4     3    1
     6     4     5    2
     7     5     6    1
     8     6     7    2
     9     8     1    1
    10     8     9    1
    11     8    12    1
    12     9    10    1
    13    10    11    1
    14    12    11    1
    15    13    34    1
    16    14    13    1
    17    14    15    1
    18    15    18    2
    19    16    17    1
    20    16    15    1
    21    19    14    2
    22    20    21    2
    23    20    19    1
    24    21    26    1
    25    22    21    1
    26    23    22    1
    27    24    23    1
    28    24    25    1
    29    26    27    1
    30    26    13    1
    31    28    29    1
    32    29    32    2
    33    31    39    1
    34    33    29   am
    35    34    33    1
    36    34    31    1
    37    36    35    1
    38    37    41    1
    39    37    40    1
    40    37    36    1
    41    38    33    1
    42    39    42    1
    43    41    40    1
    44    41    30    1
    45    42    41    1
    46    43    39    2
