@<TRIPOS>MOLECULE
outputs/IAG933/test6/raw/output_5728_IAG933_linker_design_.xyz
 48 53 0 0 0
SMALL
GASTEIGER

@<TRIPOS>ATOM
      1 C         -24.8550   -1.0120   30.1430 C.3     1  UNL1        0.0427
      2 C         -24.9730   -2.5050   29.7880 C.2     1  UNL1       -0.0208
      3 C         -23.9060   -3.1730   29.1460 C.2     1  UNL1       -0.0042
      4 C         -23.9890   -4.5490   28.8530 C.2     1  UNL1       -0.0003
      5 C         -25.1370   -5.2800   29.2050 C.2     1  UNL1       -0.0000
      6 C         -26.2320   -4.6110   29.7840 C.2     1  UNL1       -0.0003
      7 C         -26.1550   -3.2320   30.0650 C.2     1  UNL1       -0.0042
      8 C         -25.3870   -0.6790   31.5710 C.3     1  UNL1        0.0771
      9 C         -25.1890    0.7730   32.0280 C.3     1  UNL1        0.0192
     10 C         -25.3360    0.6840   33.5440 C.3     1  UNL1        0.0202
     11 C         -24.8290   -0.7150   33.9050 C.3     1  UNL1        0.0887
     12 N         -24.7580   -1.4810   32.6460 N.3     1  UNL1       -0.2191
     13 C         -25.6880    1.6140   26.4610 C.2     1  UNL1        0.0386
     14 C         -26.2500    2.9200   26.3950 C.2     1  UNL1        0.0766
     15 C         -25.6420    4.0930   27.1230 C.2     1  UNL1        0.2664
     16 N         -25.6140    5.2520   26.4490 N.am    1  UNL1       -0.1997
     17 C         -25.0260    6.4790   26.9630 C.3     1  UNL1        0.1388
     18 O         -25.1430    3.9660   28.2430 O.2     1  UNL1       -0.2683
     19 C         -27.4380    3.0910   25.6450 C.2     1  UNL1        0.1067
     20 N         -28.0750    2.0890   25.0030 N.2     1  UNL1       -0.2081
     21 C         -27.5430    0.8490   25.0790 C.2     1  UNL1        0.2533
     22 O         -28.1930   -0.2080   24.4770 O.2     1  UNL1       -0.4558
     23 C         -29.4600    0.0050   23.8660 C.3     1  UNL1        0.2426
     24 C         -30.0650   -1.3770   23.5730 C.3     1  UNL1        0.2292
     25 O         -30.7290   -1.8780   24.7210 O.3     1  UNL1       -0.2162
     26 C         -26.3540    0.5760   25.7770 C.2     1  UNL1        0.1931
     27 F         -25.8600   -0.6810   25.7950 F       1  UNL1       -0.1992
     28 C         -27.1756    5.9863   30.2035 C.2     1  UNL1       -0.0000
     29 CL        -22.9829    2.6905   24.9349 Cl      1  UNL1       -0.0823
     30 C         -26.7734   -0.3369   28.4371 C.3     1  UNL1        0.0311
     31 C         -26.9332    3.5207   31.5545 C.2     1  UNL1       -0.0000
     32 C         -23.0147    1.9115   26.5061 C.2     1  UNL1        0.0574
     33 C         -25.3073   -0.2162   28.9233 C.3     1  UNL1        0.0321
     34 C         -29.2273    0.1904   28.2250 C.2     1  UNL1       -0.0043
     35 C         -27.9914    0.2230   28.9335 C.2     1  UNL1       -0.0218
     36 C         -24.1108    0.5292   28.2947 C.2     1  UNL1       -0.0209
     37 C         -22.7023    0.3336   28.8993 C.2     1  UNL1       -0.0042
     38 C         -28.5499    2.4116   29.9377 C.2     1  UNL1       -0.0003
     39 C         -27.9296    1.0939   30.0655 C.2     1  UNL1       -0.0043
     40 C         -30.0282    1.3443   28.3181 C.2     1  UNL1       -0.0003
     41 C         -24.1948    1.4050   27.0963 C.2     1  UNL1        0.0091
     42 C         -21.7229    1.8455   27.1766 C.2     1  UNL1        0.0114
     43 C         -21.5960    1.0841   28.3480 C.2     1  UNL1        0.0005
     44 C         -28.0724    4.9368   29.9180 C.2     1  UNL1       -0.0000
     45 C         -29.6715    2.4339   29.1102 C.2     1  UNL1       -0.0000
     46 C         -26.1163    5.7582   31.0922 C.2     1  UNL1        0.0000
     47 C         -25.9734    4.5242   31.7404 C.2     1  UNL1       -0.0000
     48 C         -27.8724    3.6422   30.4895 C.2     1  UNL1       -0.0000
@<TRIPOS>BOND
     1     1    33    1
     2     2     7    1
     3     2     1    1
     4     3     2    2
     5     4     3    1
     6     4     5    2
     7     5     6    1
     8     6     7    2
     9     8     1    1
    10     8     9    1
    11     8    12    1
    12     9    10    1
    13    10    11    1
    14    12    11    1
    15    13    41    1
    16    14    13    1
    17    14    15    1
    18    15    18    2
    19    16    17    1
    20    16    15    1
    21    19    14    2
    22    20    21    2
    23    20    19    1
    24    21    26    1
    25    22    21    1
    26    23    22    1
    27    24    23    1
    28    24    25    1
    29    26    27    1
    30    26    13    2
    31    28    46    1
    32    29    32    1
    33    30    35    1
    34    31    47    1
    35    32    41    2
    36    32    42    1
    37    33    30    1
    38    34    40    2
    39    34    35    1
    40    35    39    2
    41    36    37    2
    42    36    33    1
    43    38    39    1
    44    38    48    1
    45    40    45    1
    46    41    36    1
    47    42    43    2
    48    43    37    1
    49    44    28    2
    50    44    48    1
    51    45    38    2
    52    46    47    2
    53    48    31    2
