@<TRIPOS>MOLECULE
outputs/IAG933/test6/raw/output_5729_IAG933_linker_design_.xyz
 42 47 0 0 0
SMALL
GASTEIGER

@<TRIPOS>ATOM
      1 C         -24.8550   -1.0120   30.1430 C.3     1  UNL1        0.0707
      2 C         -24.9730   -2.5050   29.7880 C.2     1  UNL1       -0.0186
      3 C         -23.9060   -3.1730   29.1460 C.2     1  UNL1       -0.0042
      4 C         -23.9890   -4.5490   28.8530 C.2     1  UNL1       -0.0003
      5 C         -25.1370   -5.2800   29.2050 C.2     1  UNL1       -0.0000
      6 C         -26.2320   -4.6110   29.7840 C.2     1  UNL1       -0.0003
      7 C         -26.1550   -3.2320   30.0650 C.2     1  UNL1       -0.0042
      8 C         -25.3870   -0.6790   31.5710 C.3     1  UNL1        0.0793
      9 C         -25.1890    0.7730   32.0280 C.3     1  UNL1        0.0193
     10 C         -25.3360    0.6840   33.5440 C.3     1  UNL1        0.0202
     11 C         -24.8290   -0.7150   33.9050 C.3     1  UNL1        0.0887
     12 N         -24.7580   -1.4810   32.6460 N.3     1  UNL1       -0.2190
     13 C         -25.6880    1.6140   26.4610 C.2     1  UNL1        0.0903
     14 C         -26.2500    2.9200   26.3950 C.2     1  UNL1        0.0902
     15 C         -25.6420    4.0930   27.1230 C.2     1  UNL1        0.2676
     16 N         -25.6140    5.2520   26.4490 N.am    1  UNL1       -0.1997
     17 C         -25.0260    6.4790   26.9630 C.3     1  UNL1        0.1388
     18 O         -25.1430    3.9660   28.2430 O.2     1  UNL1       -0.2683
     19 C         -27.4380    3.0910   25.6450 C.2     1  UNL1        0.1080
     20 N         -28.0750    2.0890   25.0030 N.2     1  UNL1       -0.2080
     21 C         -27.5430    0.8490   25.0790 C.2     1  UNL1        0.2546
     22 O         -28.1930   -0.2080   24.4770 O.2     1  UNL1       -0.4558
     23 C         -29.4600    0.0050   23.8660 C.3     1  UNL1        0.2426
     24 C         -30.0650   -1.3770   23.5730 C.3     1  UNL1        0.2292
     25 O         -30.7290   -1.8780   24.7210 O.3     1  UNL1       -0.2162
     26 C         -26.3540    0.5760   25.7770 C.2     1  UNL1        0.2066
     27 F         -25.8600   -0.6810   25.7950 F       1  UNL1       -0.1979
     28 F         -22.0037    2.4934   24.1474 F       1  UNL1       -0.1658
     29 N         -24.7382    1.1524   27.2418 N.pl3   1  UNL1       -0.2806
     30 C         -21.1880    1.6231   27.2211 C.2     1  UNL1        0.0667
     31 O         -27.0619   -0.3479   28.6854 O.3     1  UNL1       -0.2206
     32 C         -22.8799    2.4286   25.1814 C.3     1  UNL1        0.4209
     33 C         -21.3949    0.0601   29.4639 C.3     1  UNL1        0.1151
     34 C         -25.6945   -0.1414   29.1743 C.3     1  UNL1        0.1795
     35 C         -21.9653    0.1046   28.5262 C.3     1  UNL1        0.1141
     36 N         -21.1503    0.7444   28.3331 N.pl3   1  UNL1       -0.3010
     37 C         -22.4869    1.8062   26.6145 C.2     1  UNL1        0.0990
     38 F         -23.3933    3.6337   25.0968 F       1  UNL1       -0.1658
     39 F         -23.6905    1.6342   24.4163 F       1  UNL1       -0.1658
     40 C         -23.3446    0.2049   28.0915 C.2     1  UNL1        0.0094
     41 C         -23.5627    1.1486   27.2733 C.2     1  UNL1        0.0522
     42 C         -24.7447   -0.1307   27.9472 C.3     1  UNL1        0.1291
@<TRIPOS>BOND
     1     1    34    1
     2     2     7    1
     3     2     1    1
     4     3     2    2
     5     4     3    1
     6     4     5    2
     7     5     6    1
     8     6     7    2
     9     8     1    1
    10     8     9    1
    11     8    12    1
    12     9    10    1
    13    10    11    1
    14    12    11    1
    15    13    29    1
    16    14    13    1
    17    14    15    1
    18    15    18    2
    19    16    17    1
    20    16    15    1
    21    19    14    2
    22    20    21    2
    23    20    19    1
    24    21    26    1
    25    22    21    1
    26    23    22    1
    27    24    23    1
    28    24    25    1
    29    26    27    1
    30    26    13    2
    31    28    32    1
    32    29    41    1
    33    29    42    1
    34    30    36    1
    35    32    37    1
    36    34    31    1
    37    35    33    1
    38    36    35    1
    39    36    33    1
    40    37    30    2
    41    37    41    1
    42    38    32    1
    43    39    32    1
    44    40    35    1
    45    41    40    2
    46    42    40    1
    47    42    34    1
