@<TRIPOS>MOLECULE
outputs/IAG933/test6/raw/output_573_IAG933_linker_design_.xyz
 45 49 0 0 0
SMALL
GASTEIGER

@<TRIPOS>ATOM
      1 C         -24.8550   -1.0120   30.1430 C.3     1  UNL1        0.0761
      2 C         -24.9730   -2.5050   29.7880 C.2     1  UNL1       -0.0157
      3 C         -23.9060   -3.1730   29.1460 C.2     1  UNL1       -0.0039
      4 C         -23.9890   -4.5490   28.8530 C.2     1  UNL1       -0.0003
      5 C         -25.1370   -5.2800   29.2050 C.2     1  UNL1       -0.0000
      6 C         -26.2320   -4.6110   29.7840 C.2     1  UNL1       -0.0003
      7 C         -26.1550   -3.2320   30.0650 C.2     1  UNL1       -0.0039
      8 C         -25.3870   -0.6790   31.5710 C.3     1  UNL1        0.0822
      9 C         -25.1890    0.7730   32.0280 C.3     1  UNL1        0.0196
     10 C         -25.3360    0.6840   33.5440 C.3     1  UNL1        0.0203
     11 C         -24.8290   -0.7150   33.9050 C.3     1  UNL1        0.0887
     12 N         -24.7580   -1.4810   32.6460 N.3     1  UNL1       -0.2188
     13 C         -25.6880    1.6140   26.4610 C.2     1  UNL1        0.0381
     14 C         -26.2500    2.9200   26.3950 C.2     1  UNL1        0.0765
     15 C         -25.6420    4.0930   27.1230 C.2     1  UNL1        0.2664
     16 N         -25.6140    5.2520   26.4490 N.am    1  UNL1       -0.1997
     17 C         -25.0260    6.4790   26.9630 C.3     1  UNL1        0.1388
     18 O         -25.1430    3.9660   28.2430 O.2     1  UNL1       -0.2683
     19 C         -27.4380    3.0910   25.6450 C.2     1  UNL1        0.1067
     20 N         -28.0750    2.0890   25.0030 N.2     1  UNL1       -0.2081
     21 C         -27.5430    0.8490   25.0790 C.2     1  UNL1        0.2533
     22 O         -28.1930   -0.2080   24.4770 O.2     1  UNL1       -0.4558
     23 C         -29.4600    0.0050   23.8660 C.3     1  UNL1        0.2426
     24 C         -30.0650   -1.3770   23.5730 C.3     1  UNL1        0.2292
     25 O         -30.7290   -1.8780   24.7210 O.3     1  UNL1       -0.2162
     26 C         -26.3540    0.5760   25.7770 C.2     1  UNL1        0.1930
     27 F         -25.8600   -0.6810   25.7950 F       1  UNL1       -0.1992
     28 C         -24.1970    1.3353   27.1096 C.2     1  UNL1        0.0035
     29 C         -31.9449   -0.5375   27.4752 C.2     1  UNL1       -0.0003
     30 C         -23.1017    1.8991   26.4286 C.2     1  UNL1        0.0001
     31 C         -22.5396    0.4043   28.8804 C.2     1  UNL1        0.0010
     32 C         -29.9820    0.9483   27.5663 C.2     1  UNL1       -0.0041
     33 N         -26.0681    0.1912   28.6110 N.am    1  UNL1       -0.1829
     34 C         -29.8136   -2.1847   30.1693 C.3     1  UNL1        0.0307
     35 O         -27.4594   -1.3859   29.2154 O.2     1  UNL1       -0.2726
     36 C         -28.1986    0.8893   29.2821 C.3     1  UNL1        0.1131
     37 C         -31.2137    0.5287   26.9484 C.2     1  UNL1       -0.0003
     38 C         -21.7881    1.7565   26.9749 C.2     1  UNL1        0.0000
     39 C         -29.4447    0.2842   28.6798 C.2     1  UNL1       -0.0170
     40 C         -30.1406   -1.0417   29.0929 C.2     1  UNL1       -0.0253
     41 C         -23.8962    0.5673   28.3730 C.2     1  UNL1        0.0117
     42 C         -27.2605   -0.0375   28.9789 C.2     1  UNL1        0.2497
     43 C         -24.9255   -0.0611   29.0551 C.2     1  UNL1        0.0561
     44 C         -21.4884    1.0214   28.1434 C.2     1  UNL1        0.0000
     45 C         -31.3557   -1.3223   28.4756 C.2     1  UNL1       -0.0046
@<TRIPOS>BOND
     1     1    43    1
     2     2     7    1
     3     2     1    1
     4     3     2    2
     5     4     3    1
     6     4     5    2
     7     5     6    1
     8     6     7    2
     9     8     1    1
    10     8     9    1
    11     8    12    1
    12     9    10    1
    13    10    11    1
    14    12    11    1
    15    13    28    1
    16    14    13    1
    17    14    15    1
    18    15    18    2
    19    16    17    1
    20    16    15    1
    21    19    14    2
    22    20    21    2
    23    20    19    1
    24    21    26    1
    25    22    21    1
    26    23    22    1
    27    24    23    1
    28    24    25    1
    29    26    27    1
    30    26    13    2
    31    28    41    1
    32    29    45    1
    33    30    38    1
    34    30    28    2
    35    32    39    2
    36    33    42    1
    37    33    43    2
    38    37    29    2
    39    37    32    1
    40    38    44    2
    41    39    40    1
    42    39    36    1
    43    40    34    1
    44    41    31    2
    45    41    43    1
    46    42    35    2
    47    42    36    1
    48    44    31    1
    49    45    40    2
