@<TRIPOS>MOLECULE
outputs/IAG933/test6/raw/output_5732_IAG933_linker_design_.xyz
 39 42 0 0 0
SMALL
GASTEIGER

@<TRIPOS>ATOM
      1 C         -24.8550   -1.0120   30.1430 C.3     1  UNL1        0.1078
      2 C         -24.9730   -2.5050   29.7880 C.2     1  UNL1       -0.0136
      3 C         -23.9060   -3.1730   29.1460 C.2     1  UNL1       -0.0038
      4 C         -23.9890   -4.5490   28.8530 C.2     1  UNL1       -0.0003
      5 C         -25.1370   -5.2800   29.2050 C.2     1  UNL1       -0.0000
      6 C         -26.2320   -4.6110   29.7840 C.2     1  UNL1       -0.0003
      7 C         -26.1550   -3.2320   30.0650 C.2     1  UNL1       -0.0038
      8 C         -25.3870   -0.6790   31.5710 C.3     1  UNL1        0.0844
      9 C         -25.1890    0.7730   32.0280 C.3     1  UNL1        0.0196
     10 C         -25.3360    0.6840   33.5440 C.3     1  UNL1        0.0203
     11 C         -24.8290   -0.7150   33.9050 C.3     1  UNL1        0.0887
     12 N         -24.7580   -1.4810   32.6460 N.3     1  UNL1       -0.2187
     13 C         -25.6880    1.6140   26.4610 C.2     1  UNL1        0.1835
     14 C         -26.2500    2.9200   26.3950 C.2     1  UNL1        0.1140
     15 C         -25.6420    4.0930   27.1230 C.2     1  UNL1        0.2698
     16 N         -25.6140    5.2520   26.4490 N.am    1  UNL1       -0.1996
     17 C         -25.0260    6.4790   26.9630 C.3     1  UNL1        0.1388
     18 O         -25.1430    3.9660   28.2430 O.2     1  UNL1       -0.2682
     19 C         -27.4380    3.0910   25.6450 C.2     1  UNL1        0.1102
     20 N         -28.0750    2.0890   25.0030 N.2     1  UNL1       -0.2078
     21 C         -27.5430    0.8490   25.0790 C.2     1  UNL1        0.2568
     22 O         -28.1930   -0.2080   24.4770 O.2     1  UNL1       -0.4557
     23 C         -29.4600    0.0050   23.8660 C.3     1  UNL1        0.2426
     24 C         -30.0650   -1.3770   23.5730 C.3     1  UNL1        0.2292
     25 O         -30.7290   -1.8780   24.7210 O.3     1  UNL1       -0.2162
     26 C         -26.3540    0.5760   25.7770 C.2     1  UNL1        0.2301
     27 F         -25.8600   -0.6810   25.7950 F       1  UNL1       -0.1956
     28 C         -25.3172   -0.1364   28.9692 C.2     1  UNL1        0.2602
     29 F         -20.6061    2.4069   27.4118 F       1  UNL1       -0.1975
     30 F         -22.5914    3.0331   25.4851 F       1  UNL1       -0.1954
     31 C         -21.7551    1.7897   27.3538 C.2     1  UNL1        0.2197
     32 C         -22.1995    1.1471   28.5410 C.2     1  UNL1        0.2677
     33 N         -24.4992    1.0959   26.9947 N.pl3   1  UNL1       -0.1189
     34 O         -26.4591   -0.2923   28.4898 O.2     1  UNL1       -0.2830
     35 N         -23.3007    0.9720   29.1546 N.2     1  UNL1       -0.0299
     36 C         -22.5046    1.8503   26.1387 C.2     1  UNL1        0.2372
     37 C         -23.4837    0.9002   25.8640 C.2     1  UNL1        0.3153
     38 F         -23.9284    0.3926   24.7676 F       1  UNL1       -0.1569
     39 C         -24.3298    0.7519   28.3925 C.2     1  UNL1        0.3695
@<TRIPOS>BOND
     1     1    28    1
     2     2     7    1
     3     2     1    1
     4     3     2    2
     5     4     3    1
     6     4     5    2
     7     5     6    1
     8     6     7    2
     9     8     1    1
    10     8     9    1
    11     8    12    1
    12     9    10    1
    13    10    11    1
    14    12    11    1
    15    13    33    1
    16    14    13    1
    17    14    15    1
    18    15    18    2
    19    16    17    1
    20    16    15    1
    21    19    14    2
    22    20    21    2
    23    20    19    1
    24    21    26    1
    25    22    21    1
    26    23    22    1
    27    24    23    1
    28    24    25    1
    29    26    27    1
    30    26    13    2
    31    30    36    1
    32    31    29    1
    33    31    32    2
    34    32    35    1
    35    33    39    1
    36    34    28    2
    37    36    31    1
    38    37    36    2
    39    37    33    1
    40    38    37    1
    41    39    28    1
    42    39    35    2
