@<TRIPOS>MOLECULE
outputs/IAG933/test6/raw/output_5736_IAG933_linker_design_.xyz
 42 45 0 0 0
SMALL
GASTEIGER

@<TRIPOS>ATOM
      1 C         -24.8550   -1.0120   30.1430 C.3     1  UNL1        0.1173
      2 C         -24.9730   -2.5050   29.7880 C.2     1  UNL1       -0.0028
      3 C         -23.9060   -3.1730   29.1460 C.2     1  UNL1       -0.0026
      4 C         -23.9890   -4.5490   28.8530 C.2     1  UNL1       -0.0003
      5 C         -25.1370   -5.2800   29.2050 C.2     1  UNL1       -0.0000
      6 C         -26.2320   -4.6110   29.7840 C.2     1  UNL1       -0.0003
      7 C         -26.1550   -3.2320   30.0650 C.2     1  UNL1       -0.0026
      8 C         -25.3870   -0.6790   31.5710 C.3     1  UNL1        0.0952
      9 C         -25.1890    0.7730   32.0280 C.3     1  UNL1        0.0209
     10 C         -25.3360    0.6840   33.5440 C.3     1  UNL1        0.0203
     11 C         -24.8290   -0.7150   33.9050 C.3     1  UNL1        0.0888
     12 N         -24.7580   -1.4810   32.6460 N.3     1  UNL1       -0.2174
     13 C         -25.6880    1.6140   26.4610 C.2     1  UNL1        0.0415
     14 C         -26.2500    2.9200   26.3950 C.2     1  UNL1        0.0767
     15 C         -25.6420    4.0930   27.1230 C.2     1  UNL1        0.2664
     16 N         -25.6140    5.2520   26.4490 N.am    1  UNL1       -0.1997
     17 C         -25.0260    6.4790   26.9630 C.3     1  UNL1        0.1388
     18 O         -25.1430    3.9660   28.2430 O.2     1  UNL1       -0.2683
     19 C         -27.4380    3.0910   25.6450 C.2     1  UNL1        0.1067
     20 N         -28.0750    2.0890   25.0030 N.2     1  UNL1       -0.2081
     21 C         -27.5430    0.8490   25.0790 C.2     1  UNL1        0.2533
     22 O         -28.1930   -0.2080   24.4770 O.2     1  UNL1       -0.4558
     23 C         -29.4600    0.0050   23.8660 C.3     1  UNL1        0.2426
     24 C         -30.0650   -1.3770   23.5730 C.3     1  UNL1        0.2292
     25 O         -30.7290   -1.8780   24.7210 O.3     1  UNL1       -0.2162
     26 C         -26.3540    0.5760   25.7770 C.2     1  UNL1        0.1932
     27 F         -25.8600   -0.6810   25.7950 F       1  UNL1       -0.1992
     28 F         -20.7329    1.3714   27.7239 F       1  UNL1       -0.2005
     29 N         -23.4298    0.4063   28.8342 N.ar    1  UNL1       -0.2499
     30 N         -26.1163   -0.3251   29.4782 N.am    1  UNL1       -0.2368
     31 C         -24.4381    0.8374   28.3408 C.ar    1  UNL1        0.0811
     32 C         -25.7324    1.0629   28.9825 C.3     1  UNL1        0.1429
     33 C         -22.9375    1.5744   26.8299 C.ar    1  UNL1        0.1698
     34 C         -27.5703   -0.3352   29.4682 C.2     1  UNL1        0.4055
     35 O         -28.2019    0.8025   29.4862 O.3     1  UNL1       -0.4304
     36 C         -22.2555   -0.0370   28.7642 C.ar    1  UNL1        0.0886
     37 O         -28.1564   -1.4071   29.3272 O.2     1  UNL1       -0.2262
     38 F         -22.4753    2.2975   25.8032 F       1  UNL1       -0.2017
     39 C         -24.3576    1.3799   27.0940 C.ar    1  UNL1        0.0475
     40 C         -22.0664    0.9572   27.7981 C.ar    1  UNL1        0.1808
     41 C         -21.3295   -0.7317   29.5402 C.3     1  UNL1        0.0546
     42 C         -29.0753    0.9295   28.3002 C.3     1  UNL1        0.2573
@<TRIPOS>BOND
     1     1    30    1
     2     2     7    1
     3     2     1    1
     4     3     2    2
     5     4     3    1
     6     4     5    2
     7     5     6    1
     8     6     7    2
     9     8     1    1
    10     8     9    1
    11     8    12    1
    12     9    10    1
    13    10    11    1
    14    12    11    1
    15    13    39    1
    16    14    13    1
    17    14    15    1
    18    15    18    2
    19    16    17    1
    20    16    15    1
    21    19    14    2
    22    20    21    2
    23    20    19    1
    24    21    26    1
    25    22    21    1
    26    23    22    1
    27    24    23    1
    28    24    25    1
    29    26    27    1
    30    26    13    2
    31    28    40    1
    32    31    29   ar
    33    31    32    1
    34    32    30    1
    35    33    39   ar
    36    33    40   ar
    37    34    30   am
    38    34    35    1
    39    36    29   ar
    40    36    41    1
    41    37    34    2
    42    38    33    1
    43    39    31   ar
    44    40    36   ar
    45    42    35    1
