@<TRIPOS>MOLECULE
outputs/IAG933/test6/raw/output_5738_IAG933_linker_design_.xyz
 44 49 0 0 0
SMALL
GASTEIGER

@<TRIPOS>ATOM
      1 C         -24.8550   -1.0120   30.1430 C.3     1  UNL1        0.1140
      2 C         -24.9730   -2.5050   29.7880 C.2     1  UNL1       -0.0029
      3 C         -23.9060   -3.1730   29.1460 C.2     1  UNL1       -0.0026
      4 C         -23.9890   -4.5490   28.8530 C.2     1  UNL1       -0.0003
      5 C         -25.1370   -5.2800   29.2050 C.2     1  UNL1       -0.0000
      6 C         -26.2320   -4.6110   29.7840 C.2     1  UNL1       -0.0003
      7 C         -26.1550   -3.2320   30.0650 C.2     1  UNL1       -0.0026
      8 C         -25.3870   -0.6790   31.5710 C.3     1  UNL1        0.0951
      9 C         -25.1890    0.7730   32.0280 C.3     1  UNL1        0.0209
     10 C         -25.3360    0.6840   33.5440 C.3     1  UNL1        0.0203
     11 C         -24.8290   -0.7150   33.9050 C.3     1  UNL1        0.0888
     12 N         -24.7580   -1.4810   32.6460 N.3     1  UNL1       -0.2174
     13 C         -25.6880    1.6140   26.4610 C.3     1  UNL1        0.0759
     14 C         -26.2500    2.9200   26.3950 C.2     1  UNL1        0.0552
     15 C         -25.6420    4.0930   27.1230 C.2     1  UNL1        0.2625
     16 N         -25.6140    5.2520   26.4490 N.am    1  UNL1       -0.2000
     17 C         -25.0260    6.4790   26.9630 C.3     1  UNL1        0.1388
     18 O         -25.1430    3.9660   28.2430 O.2     1  UNL1       -0.2687
     19 C         -27.4380    3.0910   25.6450 C.2     1  UNL1        0.1021
     20 N         -28.0750    2.0890   25.0030 N.2     1  UNL1       -0.2119
     21 C         -27.5430    0.8490   25.0790 C.2     1  UNL1        0.2341
     22 O         -28.1930   -0.2080   24.4770 O.2     1  UNL1       -0.4585
     23 C         -29.4600    0.0050   23.8660 C.3     1  UNL1        0.2423
     24 C         -30.0650   -1.3770   23.5730 C.3     1  UNL1        0.2292
     25 O         -30.7290   -1.8780   24.7210 O.3     1  UNL1       -0.2162
     26 C         -26.3540    0.5760   25.7770 C.3     1  UNL1        0.2404
     27 F         -25.8600   -0.6810   25.7950 F       1  UNL1       -0.2269
     28 C         -27.9697    1.4906   30.8473 C.2     1  UNL1        0.0149
     29 N         -24.3277   -0.0823   29.1599 N.am    1  UNL1       -0.2731
     30 C         -27.2934    0.1550   28.7363 C.3     1  UNL1        0.0482
     31 C         -24.9186    1.2171   27.4565 C.3     1  UNL1        0.0505
     32 S         -21.0473    1.6563   27.7896 S.3     1  UNL1        0.0173
     33 N         -21.5876    2.1869   26.2739 N.2     1  UNL1       -0.2078
     34 C         -22.8973    2.0874   26.0421 C.2     1  UNL1        0.1037
     35 O         -22.1666   -0.3946   29.8635 O.2     1  UNL1       -0.2693
     36 C         -27.5662    0.4229   30.2194 C.3     1  UNL1        0.0354
     37 O         -29.9485    2.5359   29.8326 O.2     1  UNL1       -0.4480
     38 C         -23.4823    1.5544   27.0900 C.2     1  UNL1        0.0111
     39 C         -29.8445    1.7116   28.6751 C.2     1  UNL1        0.1751
     40 C         -22.7403    1.1815   28.2268 C.2     1  UNL1        0.0984
     41 C         -28.6791    0.7903   28.2011 C.2     1  UNL1        0.0161
     42 C         -29.0785    2.4899   30.8564 C.2     1  UNL1        0.1751
     43 C         -22.9788    0.0785   29.0974 C.2     1  UNL1        0.2564
     44 C         -25.5384    0.6716   28.5833 C.3     1  UNL1        0.0848
@<TRIPOS>BOND
     1     1     2    1
     2     2     7    1
     3     3     2    2
     4     4     3    1
     5     4     5    2
     6     5     6    1
     7     6     7    2
     8     8     1    1
     9     8     9    1
    10     8    12    1
    11     9    10    1
    12    10    11    1
    13    12    11    1
    14    13    14    1
    15    13    31    1
    16    14    15    1
    17    15    18    2
    18    16    17    1
    19    16    15    1
    20    19    14    2
    21    20    21    2
    22    20    19    1
    23    21    26    1
    24    22    21    1
    25    23    22    1
    26    24    23    1
    27    24    25    1
    28    26    27    1
    29    26    13    1
    30    28    42    2
    31    29     1    1
    32    30    41    1
    33    30    36    1
    34    31    38    1
    35    31    44    1
    36    32    40    1
    37    33    32    1
    38    34    33    2
    39    34    38    1
    40    36    28    1
    41    37    42    1
    42    38    40    2
    43    39    37    1
    44    40    43    1
    45    41    39    2
    46    43    29   am
    47    43    35    2
    48    44    30    1
    49    44    29    1
