@<TRIPOS>MOLECULE
outputs/IAG933/test6/raw/output_5742_IAG933_linker_design_.xyz
 41 45 0 0 0
SMALL
GASTEIGER

@<TRIPOS>ATOM
      1 C         -24.8550   -1.0120   30.1430 C.3     1  UNL1        0.1239
      2 C         -24.9730   -2.5050   29.7880 C.2     1  UNL1       -0.0004
      3 C         -23.9060   -3.1730   29.1460 C.2     1  UNL1       -0.0024
      4 C         -23.9890   -4.5490   28.8530 C.2     1  UNL1       -0.0003
      5 C         -25.1370   -5.2800   29.2050 C.2     1  UNL1       -0.0000
      6 C         -26.2320   -4.6110   29.7840 C.2     1  UNL1       -0.0003
      7 C         -26.1550   -3.2320   30.0650 C.2     1  UNL1       -0.0024
      8 C         -25.3870   -0.6790   31.5710 C.3     1  UNL1        0.0976
      9 C         -25.1890    0.7730   32.0280 C.3     1  UNL1        0.0211
     10 C         -25.3360    0.6840   33.5440 C.3     1  UNL1        0.0203
     11 C         -24.8290   -0.7150   33.9050 C.3     1  UNL1        0.0888
     12 N         -24.7580   -1.4810   32.6460 N.3     1  UNL1       -0.2172
     13 C         -25.6880    1.6140   26.4610 C.3     1  UNL1        0.0941
     14 C         -26.2500    2.9200   26.3950 C.2     1  UNL1        0.0589
     15 C         -25.6420    4.0930   27.1230 C.2     1  UNL1        0.2628
     16 N         -25.6140    5.2520   26.4490 N.am    1  UNL1       -0.2000
     17 C         -25.0260    6.4790   26.9630 C.3     1  UNL1        0.1388
     18 O         -25.1430    3.9660   28.2430 O.2     1  UNL1       -0.2686
     19 C         -27.4380    3.0910   25.6450 C.2     1  UNL1        0.1025
     20 N         -28.0750    2.0890   25.0030 N.2     1  UNL1       -0.2118
     21 C         -27.5430    0.8490   25.0790 C.2     1  UNL1        0.2344
     22 O         -28.1930   -0.2080   24.4770 O.2     1  UNL1       -0.4585
     23 C         -29.4600    0.0050   23.8660 C.3     1  UNL1        0.2423
     24 C         -30.0650   -1.3770   23.5730 C.3     1  UNL1        0.2292
     25 O         -30.7290   -1.8780   24.7210 O.3     1  UNL1       -0.2162
     26 C         -26.3540    0.5760   25.7770 C.3     1  UNL1        0.2441
     27 F         -25.8600   -0.6810   25.7950 F       1  UNL1       -0.2265
     28 C         -23.3342    0.2806   28.5834 C.ar    1  UNL1        0.0693
     29 O         -23.1234    2.5134   25.8135 O.2     1  UNL1       -0.2444
     30 C         -24.9769    1.0626   27.3358 C.ar    1  UNL1        0.0112
     31 C         -22.7028    1.7999   26.7523 C.2     1  UNL1        0.3470
     32 C         -27.3253    0.0365   28.8227 C.2     1  UNL1        0.1884
     33 O         -21.3206    1.6129   27.0247 O.3     1  UNL1       -0.4178
     34 C         -20.9726    0.7742   28.0416 C.2     1  UNL1        0.1846
     35 C         -28.1330    1.1864   29.3498 C.3     1  UNL1        0.0707
     36 C         -21.8938    0.0715   28.8410 C.2     1  UNL1        0.0582
     37 N         -24.6422   -0.1578   29.0876 N.ar    1  UNL1       -0.3215
     38 C         -25.7966    0.3332   28.3195 C.ar    1  UNL1        0.0918
     39 C         -23.6732    1.0803   27.5353 C.ar    1  UNL1        0.0898
     40 O         -27.7963   -1.1030   28.7049 O.2     1  UNL1       -0.2898
     41 C         -29.5047    0.6040   29.8112 C.3     1  UNL1        0.0086
@<TRIPOS>BOND
     1     1     2    1
     2     2     7    1
     3     3     2    2
     4     4     3    1
     5     4     5    2
     6     5     6    1
     7     6     7    2
     8     8     1    1
     9     8     9    1
    10     8    12    1
    11     9    10    1
    12    10    11    1
    13    12    11    1
    14    13    30    1
    15    14    13    1
    16    14    15    1
    17    15    18    2
    18    16    17    1
    19    16    15    1
    20    19    14    2
    21    20    21    2
    22    20    19    1
    23    21    26    1
    24    22    21    1
    25    23    22    1
    26    24    23    1
    27    24    25    1
    28    26    27    1
    29    26    13    1
    30    28    36    1
    31    28    37   ar
    32    29    31    2
    33    30    39   ar
    34    30    38   ar
    35    31    33    1
    36    31    39    1
    37    32    35    1
    38    33    34    1
    39    34    36    2
    40    35    41    1
    41    37     1    1
    42    38    32    1
    43    38    37   ar
    44    39    28   ar
    45    40    32    2
