@<TRIPOS>MOLECULE
outputs/IAG933/test6/raw/output_5751_IAG933_linker_design_.xyz
 46 49 0 0 0
SMALL
GASTEIGER

@<TRIPOS>ATOM
      1 C         -24.8550   -1.0120   30.1430 C.3     1  UNL1        0.0978
      2 C         -24.9730   -2.5050   29.7880 C.2     1  UNL1       -0.0064
      3 C         -23.9060   -3.1730   29.1460 C.2     1  UNL1       -0.0029
      4 C         -23.9890   -4.5490   28.8530 C.2     1  UNL1       -0.0003
      5 C         -25.1370   -5.2800   29.2050 C.2     1  UNL1       -0.0000
      6 C         -26.2320   -4.6110   29.7840 C.2     1  UNL1       -0.0003
      7 C         -26.1550   -3.2320   30.0650 C.2     1  UNL1       -0.0029
      8 C         -25.3870   -0.6790   31.5710 C.3     1  UNL1        0.0916
      9 C         -25.1890    0.7730   32.0280 C.3     1  UNL1        0.0206
     10 C         -25.3360    0.6840   33.5440 C.3     1  UNL1        0.0203
     11 C         -24.8290   -0.7150   33.9050 C.3     1  UNL1        0.0888
     12 N         -24.7580   -1.4810   32.6460 N.3     1  UNL1       -0.2178
     13 C         -25.6880    1.6140   26.4610 C.3     1  UNL1        0.0970
     14 C         -26.2500    2.9200   26.3950 C.2     1  UNL1        0.0592
     15 C         -25.6420    4.0930   27.1230 C.2     1  UNL1        0.2628
     16 N         -25.6140    5.2520   26.4490 N.am    1  UNL1       -0.2000
     17 C         -25.0260    6.4790   26.9630 C.3     1  UNL1        0.1388
     18 O         -25.1430    3.9660   28.2430 O.2     1  UNL1       -0.2686
     19 C         -27.4380    3.0910   25.6450 C.2     1  UNL1        0.1025
     20 N         -28.0750    2.0890   25.0030 N.2     1  UNL1       -0.2118
     21 C         -27.5430    0.8490   25.0790 C.2     1  UNL1        0.2344
     22 O         -28.1930   -0.2080   24.4770 O.2     1  UNL1       -0.4585
     23 C         -29.4600    0.0050   23.8660 C.3     1  UNL1        0.2423
     24 C         -30.0650   -1.3770   23.5730 C.3     1  UNL1        0.2292
     25 O         -30.7290   -1.8780   24.7210 O.3     1  UNL1       -0.2162
     26 C         -26.3540    0.5760   25.7770 C.3     1  UNL1        0.2443
     27 F         -25.8600   -0.6810   25.7950 F       1  UNL1       -0.2265
     28 C         -25.1689    0.9693   28.6373 C.3     1  UNL1        0.1800
     29 C         -30.9761    2.6685   29.4857 C.3     1  UNL1        0.2152
     30 C         -30.6954    3.1234   31.8276 C.3     1  UNL1        0.0744
     31 C         -22.8309    0.1782   29.6013 C.3     1  UNL1        0.0916
     32 C         -29.7430    0.8351   28.3488 C.3     1  UNL1        0.1659
     33 C         -28.6768    0.9594   29.6490 C.3     1  UNL1        0.1246
     34 O         -28.0604   -1.2236   29.2251 O.2     1  UNL1       -0.2732
     35 C         -24.7792    1.0812   27.4948 C.2     1  UNL1        0.0229
     36 N         -26.5629    0.5452   28.7745 N.am    1  UNL1       -0.1856
     37 O         -30.7761   -0.0052   28.3073 O.3     1  UNL1       -0.2224
     38 C         -29.2929    1.3371   30.8406 C.3     1  UNL1        0.0860
     39 C         -27.7201   -0.0549   29.2595 C.2     1  UNL1        0.2463
     40 N         -30.3092    2.4045   30.6504 N.3     1  UNL1       -0.2477
     41 N         -24.2721    0.0960   29.3967 N.3     1  UNL1       -0.2482
     42 C         -21.4754    1.3657   27.3617 C.3     1  UNL1        0.0736
     43 O         -32.2091    2.0866   29.3745 O.3     1  UNL1       -0.2049
     44 C         -30.0603    2.3713   28.2590 C.3     1  UNL1        0.0835
     45 C         -31.8242    2.7725   32.7843 C.3     1  UNL1        0.0188
     46 S         -23.0841    1.3781   26.8417 S.3     1  UNL1       -0.1179
@<TRIPOS>BOND
     1     1    41    1
     2     2     7    1
     3     2     1    1
     4     3     2    2
     5     4     3    1
     6     4     5    2
     7     5     6    1
     8     6     7    2
     9     8     1    1
    10     8     9    1
    11     8    12    1
    12     9    10    1
    13    10    11    1
    14    12    11    1
    15    13    35    1
    16    14    13    1
    17    14    15    1
    18    15    18    2
    19    16    17    1
    20    16    15    1
    21    19    14    2
    22    20    21    2
    23    20    19    1
    24    21    26    1
    25    22    21    1
    26    23    22    1
    27    24    23    1
    28    24    25    1
    29    26    27    1
    30    26    13    1
    31    28    35    1
    32    28    36    1
    33    28    41    1
    34    29    43    1
    35    29    40    1
    36    30    45    1
    37    32    37    1
    38    32    33    1
    39    33    39    1
    40    33    38    1
    41    34    39    2
    42    36    39    1
    43    40    38    1
    44    40    30    1
    45    41    31    1
    46    44    32    1
    47    44    29    1
    48    46    42    1
    49    46    35    2
