@<TRIPOS>MOLECULE
outputs/IAG933/test6/raw/output_5761_IAG933_linker_design_.xyz
 42 45 0 0 0
SMALL
GASTEIGER

@<TRIPOS>ATOM
      1 C         -24.8550   -1.0120   30.1430 C.3     1  UNL1        0.1151
      2 C         -24.9730   -2.5050   29.7880 C.2     1  UNL1       -0.0029
      3 C         -23.9060   -3.1730   29.1460 C.2     1  UNL1       -0.0026
      4 C         -23.9890   -4.5490   28.8530 C.2     1  UNL1       -0.0003
      5 C         -25.1370   -5.2800   29.2050 C.2     1  UNL1       -0.0000
      6 C         -26.2320   -4.6110   29.7840 C.2     1  UNL1       -0.0003
      7 C         -26.1550   -3.2320   30.0650 C.2     1  UNL1       -0.0026
      8 C         -25.3870   -0.6790   31.5710 C.3     1  UNL1        0.0952
      9 C         -25.1890    0.7730   32.0280 C.3     1  UNL1        0.0209
     10 C         -25.3360    0.6840   33.5440 C.3     1  UNL1        0.0203
     11 C         -24.8290   -0.7150   33.9050 C.3     1  UNL1        0.0888
     12 N         -24.7580   -1.4810   32.6460 N.3     1  UNL1       -0.2174
     13 C         -25.6880    1.6140   26.4610 C.2     1  UNL1        0.0716
     14 C         -26.2500    2.9200   26.3950 C.2     1  UNL1        0.0696
     15 C         -25.6420    4.0930   27.1230 C.2     1  UNL1        0.2637
     16 N         -25.6140    5.2520   26.4490 N.am    1  UNL1       -0.2000
     17 C         -25.0260    6.4790   26.9630 C.3     1  UNL1        0.1388
     18 O         -25.1430    3.9660   28.2430 O.2     1  UNL1       -0.2686
     19 C         -27.4380    3.0910   25.6450 C.3     1  UNL1        0.1604
     20 N         -28.0750    2.0890   25.0030 N.2     1  UNL1       -0.2340
     21 C         -27.5430    0.8490   25.0790 C.2     1  UNL1        0.2355
     22 O         -28.1930   -0.2080   24.4770 O.2     1  UNL1       -0.4585
     23 C         -29.4600    0.0050   23.8660 C.3     1  UNL1        0.2423
     24 C         -30.0650   -1.3770   23.5730 C.3     1  UNL1        0.2292
     25 O         -30.7290   -1.8780   24.7210 O.3     1  UNL1       -0.2162
     26 C         -26.3540    0.5760   25.7770 C.3     1  UNL1        0.2707
     27 F         -25.8600   -0.6810   25.7950 F       1  UNL1       -0.2210
     28 O         -27.3206   -0.2193   28.9101 O.2     1  UNL1       -0.2696
     29 CL        -22.7960    1.9291   25.4435 Cl      1  UNL1       -0.0851
     30 F         -22.1606   -0.2678   29.8836 F       1  UNL1       -0.1856
     31 C         -26.6249    0.7571   29.0300 C.2     1  UNL1        0.2793
     32 N         -24.7548    1.3129   27.3812 N.pl3   1  UNL1       -0.2697
     33 F         -21.1702    1.6984   27.9720 F       1  UNL1       -0.2020
     34 C         -28.5779    2.1030   29.6548 C.3     1  UNL1        0.1507
     35 N         -24.2949    0.0022   29.1994 N.pl3   1  UNL1       -0.2583
     36 C         -22.4389    1.2009   28.0293 C.2     1  UNL1        0.1927
     37 C         -28.8895    3.0770   30.7695 C.3     1  UNL1        0.2054
     38 C         -25.1787    0.7558   28.5598 C.3     1  UNL1        0.2335
     39 N         -27.1006    1.9350   29.5815 N.am    1  UNL1       -0.1998
     40 C         -23.4384    1.5130   27.1286 C.3     1  UNL1        0.2093
     41 C         -22.9863    0.3062   29.0202 C.2     1  UNL1        0.2200
     42 O         -28.4328    4.3442   30.2736 O.3     1  UNL1       -0.2184
@<TRIPOS>BOND
     1     1     2    1
     2     2     7    1
     3     3     2    2
     4     4     3    1
     5     4     5    2
     6     5     6    1
     7     6     7    2
     8     8     1    1
     9     8     9    1
    10     8    12    1
    11     9    10    1
    12    10    11    1
    13    12    11    1
    14    13    32    1
    15    14    13    2
    16    14    15    1
    17    15    18    2
    18    16    17    1
    19    16    15    1
    20    19    14    1
    21    20    21    2
    22    20    19    1
    23    21    26    1
    24    22    21    1
    25    23    22    1
    26    24    23    1
    27    24    25    1
    28    26    27    1
    29    26    13    1
    30    28    31    2
    31    31    39    1
    32    32    38    1
    33    33    36    1
    34    34    37    1
    35    35     1    1
    36    36    41    2
    37    38    31    1
    38    38    35    1
    39    39    34    1
    40    40    29    1
    41    40    32    1
    42    40    36    1
    43    41    35    1
    44    41    30    1
    45    42    37    1
