@<TRIPOS>MOLECULE
outputs/IAG933/test6/raw/output_5762_IAG933_linker_design_.xyz
 44 47 0 0 0
SMALL
GASTEIGER

@<TRIPOS>ATOM
      1 C         -24.8550   -1.0120   30.1430 C.3     1  UNL1        0.1116
      2 C         -24.9730   -2.5050   29.7880 C.2     1  UNL1       -0.0030
      3 C         -23.9060   -3.1730   29.1460 C.2     1  UNL1       -0.0026
      4 C         -23.9890   -4.5490   28.8530 C.2     1  UNL1       -0.0003
      5 C         -25.1370   -5.2800   29.2050 C.2     1  UNL1       -0.0000
      6 C         -26.2320   -4.6110   29.7840 C.2     1  UNL1       -0.0003
      7 C         -26.1550   -3.2320   30.0650 C.2     1  UNL1       -0.0026
      8 C         -25.3870   -0.6790   31.5710 C.3     1  UNL1        0.0950
      9 C         -25.1890    0.7730   32.0280 C.3     1  UNL1        0.0209
     10 C         -25.3360    0.6840   33.5440 C.3     1  UNL1        0.0203
     11 C         -24.8290   -0.7150   33.9050 C.3     1  UNL1        0.0888
     12 N         -24.7580   -1.4810   32.6460 N.3     1  UNL1       -0.2174
     13 C         -25.6880    1.6140   26.4610 C.2     1  UNL1        0.0391
     14 C         -26.2500    2.9200   26.3950 C.2     1  UNL1        0.0766
     15 C         -25.6420    4.0930   27.1230 C.2     1  UNL1        0.2664
     16 N         -25.6140    5.2520   26.4490 N.am    1  UNL1       -0.1997
     17 C         -25.0260    6.4790   26.9630 C.3     1  UNL1        0.1388
     18 O         -25.1430    3.9660   28.2430 O.2     1  UNL1       -0.2683
     19 C         -27.4380    3.0910   25.6450 C.2     1  UNL1        0.1067
     20 N         -28.0750    2.0890   25.0030 N.2     1  UNL1       -0.2081
     21 C         -27.5430    0.8490   25.0790 C.2     1  UNL1        0.2533
     22 O         -28.1930   -0.2080   24.4770 O.2     1  UNL1       -0.4558
     23 C         -29.4600    0.0050   23.8660 C.3     1  UNL1        0.2426
     24 C         -30.0650   -1.3770   23.5730 C.3     1  UNL1        0.2292
     25 O         -30.7290   -1.8780   24.7210 O.3     1  UNL1       -0.2162
     26 C         -26.3540    0.5760   25.7770 C.2     1  UNL1        0.1931
     27 F         -25.8600   -0.6810   25.7950 F       1  UNL1       -0.1992
     28 O         -28.0929    1.3247   28.8682 O.3     1  UNL1       -0.1661
     29 C         -28.4114   -0.0166   31.0251 C.3     1  UNL1        0.1014
     30 F         -23.3273    3.4022   25.5425 F       1  UNL1       -0.1658
     31 N         -25.4860   -0.2385   29.0957 N.pl3   1  UNL1       -0.2966
     32 F         -22.6798    0.2666   29.9420 F       1  UNL1       -0.2237
     33 F         -23.6920    1.4249   24.6020 F       1  UNL1       -0.1658
     34 P         -28.1775   -0.0570   29.1900 P.3     1  UNL1        0.2735
     35 C         -22.5973    1.3653   27.9296 C.2     1  UNL1        0.1595
     36 C         -26.7438   -0.7313   28.6631 C.3     1  UNL1        0.1813
     37 C         -23.3447    0.6769   28.8324 C.3     1  UNL1        0.2455
     38 C         -24.6966    0.5858   28.3887 C.2     1  UNL1        0.0649
     39 C         -24.7127    1.2769   27.2327 C.2     1  UNL1        0.0206
     40 C         -23.0389    2.0938   25.6391 C.3     1  UNL1        0.4205
     41 O         -29.1759   -0.8274   28.5073 O.2     1  UNL1       -0.2852
     42 C         -23.4188    1.6074   26.9257 C.2     1  UNL1        0.0988
     43 F         -21.3126    1.5975   27.9492 F       1  UNL1       -0.2057
     44 F         -21.7558    1.9596   25.3472 F       1  UNL1       -0.1658
@<TRIPOS>BOND
     1     1    31    1
     2     2     7    1
     3     2     1    1
     4     3     2    2
     5     4     3    1
     6     4     5    2
     7     5     6    1
     8     6     7    2
     9     8     1    1
    10     8     9    1
    11     8    12    1
    12     9    10    1
    13    10    11    1
    14    12    11    1
    15    13    39    1
    16    14    13    1
    17    14    15    1
    18    15    18    2
    19    16    17    1
    20    16    15    1
    21    19    14    2
    22    20    21    2
    23    20    19    1
    24    21    26    1
    25    22    21    1
    26    23    22    1
    27    24    23    1
    28    24    25    1
    29    26    27    1
    30    26    13    2
    31    28    34    1
    32    30    40    1
    33    33    40    1
    34    34    29    1
    35    35    43    1
    36    35    37    1
    37    36    31    1
    38    36    34    1
    39    37    32    1
    40    38    37    1
    41    38    31    1
    42    39    38    2
    43    40    42    1
    44    41    34    2
    45    42    39    1
    46    42    35    2
    47    44    40    1
