@<TRIPOS>MOLECULE
outputs/IAG933/test6/raw/output_5768_IAG933_linker_design_.xyz
 41 44 0 0 0
SMALL
GASTEIGER

@<TRIPOS>ATOM
      1 C         -24.8550   -1.0120   30.1430 C.3     1  UNL1        0.1111
      2 C         -24.9730   -2.5050   29.7880 C.2     1  UNL1       -0.0051
      3 C         -23.9060   -3.1730   29.1460 C.2     1  UNL1       -0.0029
      4 C         -23.9890   -4.5490   28.8530 C.2     1  UNL1       -0.0003
      5 C         -25.1370   -5.2800   29.2050 C.2     1  UNL1       -0.0000
      6 C         -26.2320   -4.6110   29.7840 C.2     1  UNL1       -0.0003
      7 C         -26.1550   -3.2320   30.0650 C.2     1  UNL1       -0.0029
      8 C         -25.3870   -0.6790   31.5710 C.3     1  UNL1        0.0929
      9 C         -25.1890    0.7730   32.0280 C.3     1  UNL1        0.0206
     10 C         -25.3360    0.6840   33.5440 C.3     1  UNL1        0.0203
     11 C         -24.8290   -0.7150   33.9050 C.3     1  UNL1        0.0888
     12 N         -24.7580   -1.4810   32.6460 N.3     1  UNL1       -0.2177
     13 C         -25.6880    1.6140   26.4610 C.3     1  UNL1        0.0922
     14 C         -26.2500    2.9200   26.3950 C.2     1  UNL1        0.0589
     15 C         -25.6420    4.0930   27.1230 C.2     1  UNL1        0.2628
     16 N         -25.6140    5.2520   26.4490 N.am    1  UNL1       -0.2000
     17 C         -25.0260    6.4790   26.9630 C.3     1  UNL1        0.1388
     18 O         -25.1430    3.9660   28.2430 O.2     1  UNL1       -0.2686
     19 C         -27.4380    3.0910   25.6450 C.2     1  UNL1        0.1025
     20 N         -28.0750    2.0890   25.0030 N.2     1  UNL1       -0.2118
     21 C         -27.5430    0.8490   25.0790 C.2     1  UNL1        0.2344
     22 O         -28.1930   -0.2080   24.4770 O.2     1  UNL1       -0.4585
     23 C         -29.4600    0.0050   23.8660 C.3     1  UNL1        0.2423
     24 C         -30.0650   -1.3770   23.5730 C.3     1  UNL1        0.2292
     25 O         -30.7290   -1.8780   24.7210 O.3     1  UNL1       -0.2162
     26 C         -26.3540    0.5760   25.7770 C.3     1  UNL1        0.2440
     27 F         -25.8600   -0.6810   25.7950 F       1  UNL1       -0.2265
     28 C         -30.1563    1.8956   28.4145 C.3     1  UNL1        0.1769
     29 C         -28.1871    1.1081   29.5482 C.3     1  UNL1        0.2707
     30 O         -28.4372    0.0657   28.5824 O.3     1  UNL1       -0.1899
     31 C         -24.1953    1.1348   28.2221 C.2     1  UNL1        0.0291
     32 O         -29.0710    2.1717   29.2690 O.3     1  UNL1       -0.3258
     33 O         -22.5750   -0.2192   29.5062 O.2     1  UNL1       -0.2869
     34 C         -26.7545    1.6171   29.3184 C.3     1  UNL1        0.0863
     35 C         -21.9484    1.8865   26.5518 C.2     1  UNL1        0.0030
     36 C         -25.5824    0.9436   28.9159 C.3     1  UNL1        0.1032
     37 C         -21.7002    1.1542   27.7523 C.2     1  UNL1        0.0417
     38 C         -22.8170    0.7080   28.5411 C.2     1  UNL1        0.1927
     39 C         -24.3830    1.6235   26.9238 C.2     1  UNL1       -0.0146
     40 C         -23.2945    2.0218   26.0905 C.2     1  UNL1       -0.0039
     41 N         -25.7379   -0.4550   29.1731 N.3     1  UNL1       -0.2104
@<TRIPOS>BOND
     1     1    41    1
     2     2     7    1
     3     2     1    1
     4     3     2    2
     5     4     3    1
     6     4     5    2
     7     5     6    1
     8     6     7    2
     9     8     1    1
    10     8     9    1
    11     8    12    1
    12     9    10    1
    13    10    11    1
    14    12    11    1
    15    13    39    1
    16    14    13    1
    17    14    15    1
    18    15    18    2
    19    16    17    1
    20    16    15    1
    21    19    14    2
    22    20    21    2
    23    20    19    1
    24    21    26    1
    25    22    21    1
    26    23    22    1
    27    24    23    1
    28    24    25    1
    29    26    27    1
    30    26    13    1
    31    28    32    1
    32    29    30    1
    33    31    38    1
    34    31    36    1
    35    32    29    1
    36    34    29    1
    37    35    37    1
    38    36    41    1
    39    36    34    1
    40    37    38    2
    41    38    33    1
    42    39    31    2
    43    40    35    2
    44    40    39    1
