@<TRIPOS>MOLECULE
outputs/IAG933/test6/raw/output_577_IAG933_linker_design_.xyz
 44 50 0 0 0
SMALL
GASTEIGER

@<TRIPOS>ATOM
      1 C         -24.8550   -1.0120   30.1430 C.3     1  UNL1        0.1572
      2 C         -24.9730   -2.5050   29.7880 C.2     1  UNL1        0.0060
      3 C         -23.9060   -3.1730   29.1460 C.2     1  UNL1       -0.0019
      4 C         -23.9890   -4.5490   28.8530 C.2     1  UNL1       -0.0002
      5 C         -25.1370   -5.2800   29.2050 C.2     1  UNL1       -0.0000
      6 C         -26.2320   -4.6110   29.7840 C.2     1  UNL1       -0.0002
      7 C         -26.1550   -3.2320   30.0650 C.2     1  UNL1       -0.0019
      8 C         -25.3870   -0.6790   31.5710 C.3     1  UNL1        0.1042
      9 C         -25.1890    0.7730   32.0280 C.3     1  UNL1        0.0217
     10 C         -25.3360    0.6840   33.5440 C.3     1  UNL1        0.0203
     11 C         -24.8290   -0.7150   33.9050 C.3     1  UNL1        0.0888
     12 N         -24.7580   -1.4810   32.6460 N.3     1  UNL1       -0.2166
     13 C         -25.6880    1.6140   26.4610 C.3     1  UNL1        0.2322
     14 C         -26.2500    2.9200   26.3950 C.2     1  UNL1        0.0951
     15 C         -25.6420    4.0930   27.1230 C.2     1  UNL1        0.2216
     16 N         -25.6140    5.2520   26.4490 N.2     1  UNL1       -0.2358
     17 C         -25.0260    6.4790   26.9630 C.3     1  UNL1        0.1550
     18 O         -25.1430    3.9660   28.2430 O.2     1  UNL1       -0.4640
     19 C         -27.4380    3.0910   25.6450 C.2     1  UNL1        0.1061
     20 N         -28.0750    2.0890   25.0030 N.2     1  UNL1       -0.2116
     21 C         -27.5430    0.8490   25.0790 C.2     1  UNL1        0.2384
     22 O         -28.1930   -0.2080   24.4770 O.2     1  UNL1       -0.4584
     23 C         -29.4600    0.0050   23.8660 C.3     1  UNL1        0.2423
     24 C         -30.0650   -1.3770   23.5730 C.3     1  UNL1        0.2292
     25 O         -30.7290   -1.8780   24.7210 O.3     1  UNL1       -0.2162
     26 C         -26.3540    0.5760   25.7770 C.3     1  UNL1        0.2825
     27 F         -25.8600   -0.6810   25.7950 F       1  UNL1       -0.2225
     28 C         -20.8919    1.5040   27.9067 C.2     1  UNL1        0.1491
     29 N         -23.0375    0.5189   28.6086 N.2     1  UNL1       -0.0332
     30 C         -27.9846    2.4042   29.2997 C.3     1  UNL1        0.0836
     31 C         -21.6737    0.7803   28.7474 C.2     1  UNL1        0.2562
     32 C         -23.1779    2.4121   25.2010 C.3     1  UNL1        0.0601
     33 C         -25.7474    1.0950   28.8182 C.3     1  UNL1        0.2883
     34 C         -28.9201    2.9977   30.3463 C.3     1  UNL1        0.0886
     35 N         -21.4810    2.0632   26.8798 N.2     1  UNL1       -0.2367
     36 C         -23.6063    1.3214   27.5665 C.2     1  UNL1        0.3395
     37 C         -27.4978    4.9173   29.8098 C.3     1  UNL1        0.0759
     38 O         -25.7205   -0.3053   29.2165 O.3     1  UNL1       -0.3148
     39 C         -26.4146    2.1772   29.3029 C.3     1  UNL1        0.1291
     40 N         -28.3889    3.8275   29.3720 N.3     1  UNL1       -0.2711
     41 C         -22.7795    1.9156   26.6018 C.2     1  UNL1        0.1414
     42 N         -24.9383    1.2730   27.6045 N.pl3   1  UNL1       -0.1649
     43 C         -25.5360    3.3471   29.4973 C.3     1  UNL1        0.1767
     44 C         -26.2019    4.3560   30.4328 C.3     1  UNL1        0.0612
@<TRIPOS>BOND
     1     1    38    1
     2     2     7    1
     3     2     1    1
     4     3     2    2
     5     4     3    1
     6     4     5    2
     7     5     6    1
     8     6     7    2
     9     8     1    1
    10     8     9    1
    11     8    12    1
    12     9    10    1
    13    10    11    1
    14    12    11    1
    15    13    14    1
    16    13    42    1
    17    14    15    1
    18    15    18    1
    19    16    17    1
    20    16    15    2
    21    18    43    1
    22    19    14    2
    23    20    21    2
    24    20    19    1
    25    21    26    1
    26    22    21    1
    27    23    22    1
    28    24    23    1
    29    24    25    1
    30    26    27    1
    31    26    13    1
    32    28    31    1
    33    29    31    2
    34    30    39    1
    35    30    40    1
    36    30    34    1
    37    32    41    1
    38    33    38    1
    39    33    39    1
    40    35    28    2
    41    36    42    1
    42    36    29    1
    43    37    44    1
    44    39    43    1
    45    40    37    1
    46    40    34    1
    47    41    35    1
    48    41    36    2
    49    42    33    1
    50    43    44    1
