@<TRIPOS>MOLECULE
outputs/IAG933/test6/raw/output_5773_IAG933_linker_design_.xyz
 48 52 0 0 0
SMALL
GASTEIGER

@<TRIPOS>ATOM
      1 C         -24.8550   -1.0120   30.1430 C.3     1  UNL1        0.1111
      2 C         -24.9730   -2.5050   29.7880 C.2     1  UNL1       -0.0030
      3 C         -23.9060   -3.1730   29.1460 C.2     1  UNL1       -0.0026
      4 C         -23.9890   -4.5490   28.8530 C.2     1  UNL1       -0.0003
      5 C         -25.1370   -5.2800   29.2050 C.2     1  UNL1       -0.0000
      6 C         -26.2320   -4.6110   29.7840 C.2     1  UNL1       -0.0003
      7 C         -26.1550   -3.2320   30.0650 C.2     1  UNL1       -0.0026
      8 C         -25.3870   -0.6790   31.5710 C.3     1  UNL1        0.0950
      9 C         -25.1890    0.7730   32.0280 C.3     1  UNL1        0.0209
     10 C         -25.3360    0.6840   33.5440 C.3     1  UNL1        0.0203
     11 C         -24.8290   -0.7150   33.9050 C.3     1  UNL1        0.0888
     12 N         -24.7580   -1.4810   32.6460 N.3     1  UNL1       -0.2174
     13 C         -25.6880    1.6140   26.4610 C.2     1  UNL1        0.0398
     14 C         -26.2500    2.9200   26.3950 C.2     1  UNL1        0.0766
     15 C         -25.6420    4.0930   27.1230 C.2     1  UNL1        0.2664
     16 N         -25.6140    5.2520   26.4490 N.am    1  UNL1       -0.1997
     17 C         -25.0260    6.4790   26.9630 C.3     1  UNL1        0.1388
     18 O         -25.1430    3.9660   28.2430 O.2     1  UNL1       -0.2683
     19 C         -27.4380    3.0910   25.6450 C.2     1  UNL1        0.1067
     20 N         -28.0750    2.0890   25.0030 N.2     1  UNL1       -0.2081
     21 C         -27.5430    0.8490   25.0790 C.2     1  UNL1        0.2533
     22 O         -28.1930   -0.2080   24.4770 O.2     1  UNL1       -0.4558
     23 C         -29.4600    0.0050   23.8660 C.3     1  UNL1        0.2426
     24 C         -30.0650   -1.3770   23.5730 C.3     1  UNL1        0.2292
     25 O         -30.7290   -1.8780   24.7210 O.3     1  UNL1       -0.2162
     26 C         -26.3540    0.5760   25.7770 C.2     1  UNL1        0.1931
     27 F         -25.8600   -0.6810   25.7950 F       1  UNL1       -0.1992
     28 C         -24.4184    0.5343   28.2677 C.2     1  UNL1        0.0605
     29 CL        -22.6888    2.5446   25.2725 Cl      1  UNL1       -0.0828
     30 C         -24.4666    1.3019   27.0811 C.2     1  UNL1        0.0245
     31 C         -28.7640   -0.9990   29.5532 C.3     1  UNL1        0.0018
     32 C         -31.9839    0.1029   29.8904 C.3     1  UNL1        0.0853
     33 C         -26.6064   -0.1522   28.6530 C.3     1  UNL1        0.0909
     34 N         -30.3792    0.9991   31.5536 N.am    1  UNL1       -0.2778
     35 C         -31.2320   -1.0723   29.6134 C.3     1  UNL1        0.0096
     36 C         -31.3180    1.2002   30.5367 C.2     1  UNL1        0.2257
     37 N         -25.2989   -0.1392   29.0542 N.pl3   1  UNL1       -0.3051
     38 C         -23.0285    0.4889   28.5411 C.3     1  UNL1        0.2065
     39 O         -31.6694    2.3474   30.2194 O.2     1  UNL1       -0.2749
     40 C         -20.8509    1.4753   27.7916 C.3     1  UNL1        0.0302
     41 O         -22.5350   -0.0815   29.5892 O.3     1  UNL1       -0.2124
     42 C         -22.3712    1.1940   27.6334 C.2     1  UNL1        0.0019
     43 C         -27.8060    0.2680   29.3860 C.3     1  UNL1        0.0214
     44 C         -29.9348   -1.4506   31.6008 C.3     1  UNL1        0.0215
     45 C         -23.1989    1.6486   26.6659 C.2     1  UNL1        0.0535
     46 C         -30.2340    1.8241   32.5763 C.3     1  UNL1        0.1148
     47 C         -29.9850   -1.3290   30.2133 C.3     1  UNL1        0.0022
     48 C         -30.0666   -0.1987   32.0504 C.3     1  UNL1        0.0935
@<TRIPOS>BOND
     1     1    37    1
     2     2     7    1
     3     2     1    1
     4     3     2    2
     5     4     3    1
     6     4     5    2
     7     5     6    1
     8     6     7    2
     9     8     1    1
    10     8     9    1
    11     8    12    1
    12     9    10    1
    13    10    11    1
    14    12    11    1
    15    13    30    1
    16    14    13    1
    17    14    15    1
    18    15    18    2
    19    16    17    1
    20    16    15    1
    21    19    14    2
    22    20    21    2
    23    20    19    1
    24    21    26    1
    25    22    21    1
    26    23    22    1
    27    24    23    1
    28    24    25    1
    29    26    27    1
    30    26    13    2
    31    28    38    1
    32    28    37    1
    33    29    45    1
    34    30    28    2
    35    32    36    1
    36    33    37    1
    37    33    43    1
    38    34    48    1
    39    34    46    1
    40    35    32    1
    41    35    47    1
    42    36    34   am
    43    38    41    1
    44    39    36    2
    45    42    40    1
    46    42    38    1
    47    43    31    1
    48    44    48    1
    49    45    30    1
    50    45    42    2
    51    47    31    1
    52    47    44    1
