@<TRIPOS>MOLECULE
outputs/IAG933/test6/raw/output_578_IAG933_linker_design_.xyz
 44 47 0 0 0
SMALL
GASTEIGER

@<TRIPOS>ATOM
      1 C         -24.8550   -1.0120   30.1430 C.3     1  UNL1        0.1196
      2 C         -24.9730   -2.5050   29.7880 C.2     1  UNL1       -0.0025
      3 C         -23.9060   -3.1730   29.1460 C.2     1  UNL1       -0.0026
      4 C         -23.9890   -4.5490   28.8530 C.2     1  UNL1       -0.0003
      5 C         -25.1370   -5.2800   29.2050 C.2     1  UNL1       -0.0000
      6 C         -26.2320   -4.6110   29.7840 C.2     1  UNL1       -0.0003
      7 C         -26.1550   -3.2320   30.0650 C.2     1  UNL1       -0.0026
      8 C         -25.3870   -0.6790   31.5710 C.3     1  UNL1        0.0955
      9 C         -25.1890    0.7730   32.0280 C.3     1  UNL1        0.0209
     10 C         -25.3360    0.6840   33.5440 C.3     1  UNL1        0.0203
     11 C         -24.8290   -0.7150   33.9050 C.3     1  UNL1        0.0888
     12 N         -24.7580   -1.4810   32.6460 N.3     1  UNL1       -0.2174
     13 C         -25.6880    1.6140   26.4610 C.2     1  UNL1        0.0394
     14 C         -26.2500    2.9200   26.3950 C.2     1  UNL1        0.0766
     15 C         -25.6420    4.0930   27.1230 C.2     1  UNL1        0.2664
     16 N         -25.6140    5.2520   26.4490 N.am    1  UNL1       -0.1997
     17 C         -25.0260    6.4790   26.9630 C.3     1  UNL1        0.1388
     18 O         -25.1430    3.9660   28.2430 O.2     1  UNL1       -0.2683
     19 C         -27.4380    3.0910   25.6450 C.2     1  UNL1        0.1067
     20 N         -28.0750    2.0890   25.0030 N.2     1  UNL1       -0.2081
     21 C         -27.5430    0.8490   25.0790 C.2     1  UNL1        0.2533
     22 O         -28.1930   -0.2080   24.4770 O.2     1  UNL1       -0.4558
     23 C         -29.4600    0.0050   23.8660 C.3     1  UNL1        0.2426
     24 C         -30.0650   -1.3770   23.5730 C.3     1  UNL1        0.2292
     25 O         -30.7290   -1.8780   24.7210 O.3     1  UNL1       -0.2162
     26 C         -26.3540    0.5760   25.7770 C.2     1  UNL1        0.1931
     27 F         -25.8600   -0.6810   25.7950 F       1  UNL1       -0.1992
     28 C         -27.4128    2.8468   29.9910 C.3     1  UNL1        0.1488
     29 C         -22.1603    1.8438   25.4449 C.2     1  UNL1        0.1798
     30 C         -24.4084    1.3881   26.8989 C.2     1  UNL1        0.0208
     31 O         -25.4310    3.7509   31.2366 O.3     1  UNL1       -0.3335
     32 N         -25.1657    0.0060   29.0669 N.am    1  UNL1       -0.2368
     33 N         -26.6575    1.8287   29.2836 N.am    1  UNL1       -0.1855
     34 C         -22.6802    0.9916   28.4826 C.2     1  UNL1        0.1402
     35 C         -23.5772    1.7565   25.7725 C.2     1  UNL1        0.0420
     36 N         -25.8853    3.9301   33.5950 N.3     1  UNL1       -0.0957
     37 C         -24.1524    0.7306   28.2197 C.2     1  UNL1        0.0756
     38 C         -26.5791    0.5187   29.0163 C.2     1  UNL1        0.3273
     39 C         -26.7701    3.9229   30.8199 C.3     1  UNL1        0.1674
     40 C         -25.0211    4.3293   32.5030 C.3     1  UNL1        0.2525
     41 C         -21.5331    1.5633   27.6783 C.2     1  UNL1        0.1988
     42 O         -27.3847   -0.3218   28.7011 O.2     1  UNL1       -0.2504
     43 O         -21.1581    1.8534   26.3649 O.2     1  UNL1       -0.4459
     44 N         -22.2671    0.5404   29.6274 N.pl3   1  UNL1       -0.1234
@<TRIPOS>BOND
     1     1    32    1
     2     2     7    1
     3     2     1    1
     4     3     2    2
     5     4     3    1
     6     4     5    2
     7     5     6    1
     8     6     7    2
     9     8     1    1
    10     8     9    1
    11     8    12    1
    12     9    10    1
    13    10    11    1
    14    12    11    1
    15    13    30    1
    16    14    13    1
    17    14    15    1
    18    15    18    2
    19    16    17    1
    20    16    15    1
    21    19    14    2
    22    20    21    2
    23    20    19    1
    24    21    26    1
    25    22    21    1
    26    23    22    1
    27    24    23    1
    28    24    25    1
    29    26    27    1
    30    26    13    2
    31    28    39    1
    32    29    35    2
    33    29    43    1
    34    30    37    2
    35    31    40    1
    36    33    28    1
    37    34    44    1
    38    35    30    1
    39    37    34    1
    40    37    32    1
    41    38    32   am
    42    38    33    1
    43    39    31    1
    44    40    36    1
    45    41    34    2
    46    42    38    2
    47    43    41    1
