@<TRIPOS>MOLECULE
outputs/IAG933/test6/raw/output_5783_IAG933_linker_design_.xyz
 45 49 0 0 0
SMALL
GASTEIGER

@<TRIPOS>ATOM
      1 C         -24.8550   -1.0120   30.1430 C.3     1  UNL1        0.1114
      2 C         -24.9730   -2.5050   29.7880 C.2     1  UNL1       -0.0030
      3 C         -23.9060   -3.1730   29.1460 C.2     1  UNL1       -0.0026
      4 C         -23.9890   -4.5490   28.8530 C.2     1  UNL1       -0.0003
      5 C         -25.1370   -5.2800   29.2050 C.2     1  UNL1       -0.0000
      6 C         -26.2320   -4.6110   29.7840 C.2     1  UNL1       -0.0003
      7 C         -26.1550   -3.2320   30.0650 C.2     1  UNL1       -0.0026
      8 C         -25.3870   -0.6790   31.5710 C.3     1  UNL1        0.0950
      9 C         -25.1890    0.7730   32.0280 C.3     1  UNL1        0.0209
     10 C         -25.3360    0.6840   33.5440 C.3     1  UNL1        0.0203
     11 C         -24.8290   -0.7150   33.9050 C.3     1  UNL1        0.0888
     12 N         -24.7580   -1.4810   32.6460 N.3     1  UNL1       -0.2174
     13 C         -25.6880    1.6140   26.4610 C.3     1  UNL1        0.0936
     14 C         -26.2500    2.9200   26.3950 C.2     1  UNL1        0.0589
     15 C         -25.6420    4.0930   27.1230 C.2     1  UNL1        0.2628
     16 N         -25.6140    5.2520   26.4490 N.am    1  UNL1       -0.2000
     17 C         -25.0260    6.4790   26.9630 C.3     1  UNL1        0.1388
     18 O         -25.1430    3.9660   28.2430 O.2     1  UNL1       -0.2686
     19 C         -27.4380    3.0910   25.6450 C.2     1  UNL1        0.1025
     20 N         -28.0750    2.0890   25.0030 N.2     1  UNL1       -0.2118
     21 C         -27.5430    0.8490   25.0790 C.2     1  UNL1        0.2344
     22 O         -28.1930   -0.2080   24.4770 O.2     1  UNL1       -0.4585
     23 C         -29.4600    0.0050   23.8660 C.3     1  UNL1        0.2423
     24 C         -30.0650   -1.3770   23.5730 C.3     1  UNL1        0.2292
     25 O         -30.7290   -1.8780   24.7210 O.3     1  UNL1       -0.2162
     26 C         -26.3540    0.5760   25.7770 C.3     1  UNL1        0.2440
     27 F         -25.8600   -0.6810   25.7950 F       1  UNL1       -0.2265
     28 C         -22.6375    0.7604   28.4683 C.2     1  UNL1        0.2086
     29 N         -29.5828    1.0245   31.1034 N.3     1  UNL1       -0.2694
     30 C         -26.8414    1.0777   29.1993 C.3     1  UNL1        0.0532
     31 N         -24.7656   -0.1532   28.9053 N.pl3   1  UNL1       -0.3017
     32 C         -24.3516    1.3589   26.8580 C.2     1  UNL1        0.0014
     33 O         -22.3241    0.1581   29.6069 O.2     1  UNL1       -0.2853
     34 C         -30.9043    0.0788   29.2101 C.3     1  UNL1        0.0199
     35 O         -28.0757   -0.7835   28.7951 O.3     1  UNL1       -0.2242
     36 C         -28.3968    0.7359   28.9983 C.3     1  UNL1        0.1429
     37 C         -30.8106    0.5548   30.6833 C.3     1  UNL1        0.0723
     38 C         -23.9725    0.6483   28.0660 C.2     1  UNL1        0.0839
     39 C         -28.8741    1.8237   30.1089 C.3     1  UNL1        0.1029
     40 C         -22.0410    1.9630   26.4389 C.2     1  UNL1        0.0031
     41 C         -26.0292    0.0719   28.5234 C.3     1  UNL1        0.0937
     42 C         -29.8391    0.7100   28.2837 C.3     1  UNL1        0.0333
     43 C         -23.3729    1.9230   26.0241 C.2     1  UNL1       -0.0024
     44 C         -28.7699   -0.0373   31.8323 C.3     1  UNL1        0.0897
     45 C         -21.6644    1.4027   27.6638 C.2     1  UNL1        0.0433
@<TRIPOS>BOND
     1     1    31    1
     2     2     7    1
     3     2     1    1
     4     3     2    2
     5     4     3    1
     6     4     5    2
     7     5     6    1
     8     6     7    2
     9     8     1    1
    10     8     9    1
    11     8    12    1
    12     9    10    1
    13    10    11    1
    14    12    11    1
    15    13    32    1
    16    14    13    1
    17    14    15    1
    18    15    18    2
    19    16    17    1
    20    16    15    1
    21    19    14    2
    22    20    21    2
    23    20    19    1
    24    21    26    1
    25    22    21    1
    26    23    22    1
    27    24    23    1
    28    24    25    1
    29    26    27    1
    30    26    13    1
    31    28    33    1
    32    29    44    1
    33    32    38    2
    34    34    37    1
    35    36    35    1
    36    36    30    1
    37    36    39    1
    38    37    29    1
    39    38    28    1
    40    38    31    1
    41    39    29    1
    42    40    45    1
    43    41    31    1
    44    41    30    1
    45    42    36    1
    46    42    34    1
    47    43    40    2
    48    43    32    1
    49    45    28    2
