@<TRIPOS>MOLECULE
outputs/IAG933/test6/raw/output_5788_IAG933_linker_design_.xyz
 47 51 0 0 0
SMALL
GASTEIGER

@<TRIPOS>ATOM
      1 C         -24.8550   -1.0120   30.1430 C.3     1  UNL1        0.0424
      2 C         -24.9730   -2.5050   29.7880 C.2     1  UNL1       -0.0208
      3 C         -23.9060   -3.1730   29.1460 C.2     1  UNL1       -0.0042
      4 C         -23.9890   -4.5490   28.8530 C.2     1  UNL1       -0.0003
      5 C         -25.1370   -5.2800   29.2050 C.2     1  UNL1       -0.0000
      6 C         -26.2320   -4.6110   29.7840 C.2     1  UNL1       -0.0003
      7 C         -26.1550   -3.2320   30.0650 C.2     1  UNL1       -0.0042
      8 C         -25.3870   -0.6790   31.5710 C.3     1  UNL1        0.0771
      9 C         -25.1890    0.7730   32.0280 C.3     1  UNL1        0.0192
     10 C         -25.3360    0.6840   33.5440 C.3     1  UNL1        0.0202
     11 C         -24.8290   -0.7150   33.9050 C.3     1  UNL1        0.0887
     12 N         -24.7580   -1.4810   32.6460 N.3     1  UNL1       -0.2191
     13 C         -25.6880    1.6140   26.4610 C.2     1  UNL1        0.1085
     14 C         -26.2500    2.9200   26.3950 C.2     1  UNL1        0.0918
     15 C         -25.6420    4.0930   27.1230 C.2     1  UNL1        0.2677
     16 N         -25.6140    5.2520   26.4490 N.am    1  UNL1       -0.1997
     17 C         -25.0260    6.4790   26.9630 C.3     1  UNL1        0.1388
     18 O         -25.1430    3.9660   28.2430 O.2     1  UNL1       -0.2683
     19 C         -27.4380    3.0910   25.6450 C.2     1  UNL1        0.1080
     20 N         -28.0750    2.0890   25.0030 N.2     1  UNL1       -0.2080
     21 C         -27.5430    0.8490   25.0790 C.2     1  UNL1        0.2546
     22 O         -28.1930   -0.2080   24.4770 O.2     1  UNL1       -0.4558
     23 C         -29.4600    0.0050   23.8660 C.3     1  UNL1        0.2426
     24 C         -30.0650   -1.3770   23.5730 C.3     1  UNL1        0.2292
     25 O         -30.7290   -1.8780   24.7210 O.3     1  UNL1       -0.2162
     26 C         -26.3540    0.5760   25.7770 C.2     1  UNL1        0.2082
     27 F         -25.8600   -0.6810   25.7950 F       1  UNL1       -0.1978
     28 C         -28.8978    0.9241   28.7904 C.3     1  UNL1        0.0721
     29 C         -29.0657    2.0380   31.1313 C.3     1  UNL1        0.0720
     30 C         -28.2261    3.2725   31.5280 C.3     1  UNL1        0.0160
     31 C         -26.6423   -0.1536   28.5506 C.3     1  UNL1        0.0062
     32 C         -28.9359    3.7093   28.1633 C.3     1  UNL1        0.0173
     33 N         -24.7094    1.3893   27.0159 N.pl3   1  UNL1       -0.2069
     34 C         -26.8488    3.3457   30.8742 C.3     1  UNL1        0.0014
     35 C         -28.9910    4.5870   31.1668 C.3     1  UNL1        0.0028
     36 C         -21.5794    1.7897   27.2585 C.2     1  UNL1        0.0434
     37 C         -30.1322    4.3714   30.1291 C.3     1  UNL1        0.0160
     38 C         -29.9110    3.2067   29.1671 C.3     1  UNL1        0.0575
     39 N         -29.4185    2.0090   29.7198 N.3     1  UNL1       -0.2740
     40 C         -27.6931    0.2529   29.2442 C.3     1  UNL1        0.0177
     41 C         -25.1537    0.0903   29.1126 C.3     1  UNL1        0.0291
     42 C         -23.8149    0.6071   28.4071 C.2     1  UNL1       -0.0038
     43 C         -22.5758    0.2646   28.8975 C.2     1  UNL1       -0.0028
     44 O         -23.1175    2.7397   25.6413 O.2     1  UNL1       -0.2852
     45 C         -23.8831    1.3695   27.3462 C.2     1  UNL1        0.1054
     46 C         -22.8353    1.9857   26.7469 C.2     1  UNL1        0.2104
     47 C         -21.4616    0.8593   28.3034 C.2     1  UNL1        0.0030
@<TRIPOS>BOND
     1     1    41    1
     2     2     7    1
     3     2     1    1
     4     3     2    2
     5     4     3    1
     6     4     5    2
     7     5     6    1
     8     6     7    2
     9     8     1    1
    10     8     9    1
    11     8    12    1
    12     9    10    1
    13    10    11    1
    14    12    11    1
    15    13    33    1
    16    14    13    1
    17    14    15    1
    18    15    18    2
    19    16    17    1
    20    16    15    1
    21    19    14    2
    22    20    21    2
    23    20    19    1
    24    21    26    1
    25    22    21    1
    26    23    22    1
    27    24    23    1
    28    24    25    1
    29    26    27    1
    30    26    13    2
    31    28    40    1
    32    28    39    1
    33    29    30    1
    34    30    34    1
    35    31    40    1
    36    33    45    1
    37    35    30    1
    38    36    47    1
    39    37    35    1
    40    38    32    1
    41    38    39    1
    42    38    37    1
    43    39    29    1
    44    41    31    1
    45    42    43    1
    46    42    41    1
    47    44    46    1
    48    45    42    2
    49    46    36    2
    50    46    45    1
    51    47    43    2
