@<TRIPOS>MOLECULE
outputs/IAG933/test6/raw/output_5790_IAG933_linker_design_.xyz
 44 47 0 0 0
SMALL
GASTEIGER

@<TRIPOS>ATOM
      1 C         -24.8550   -1.0120   30.1430 C.3     1  UNL1        0.0697
      2 C         -24.9730   -2.5050   29.7880 C.2     1  UNL1       -0.0164
      3 C         -23.9060   -3.1730   29.1460 C.2     1  UNL1       -0.0039
      4 C         -23.9890   -4.5490   28.8530 C.2     1  UNL1       -0.0003
      5 C         -25.1370   -5.2800   29.2050 C.2     1  UNL1       -0.0000
      6 C         -26.2320   -4.6110   29.7840 C.2     1  UNL1       -0.0003
      7 C         -26.1550   -3.2320   30.0650 C.2     1  UNL1       -0.0039
      8 C         -25.3870   -0.6790   31.5710 C.3     1  UNL1        0.0815
      9 C         -25.1890    0.7730   32.0280 C.3     1  UNL1        0.0181
     10 C         -25.3360    0.6840   33.5440 C.3     1  UNL1        0.0202
     11 C         -24.8290   -0.7150   33.9050 C.3     1  UNL1        0.0887
     12 N         -24.7580   -1.4810   32.6460 N.3     1  UNL1       -0.2188
     13 C         -25.6880    1.6140   26.4610 C.2     1  UNL1        0.0300
     14 C         -26.2500    2.9200   26.3950 C.2     1  UNL1        0.0734
     15 C         -25.6420    4.0930   27.1230 C.2     1  UNL1        0.2661
     16 N         -25.6140    5.2520   26.4490 N.am    1  UNL1       -0.1997
     17 C         -25.0260    6.4790   26.9630 C.3     1  UNL1        0.1388
     18 O         -25.1430    3.9660   28.2430 O.2     1  UNL1       -0.2683
     19 C         -27.4380    3.0910   25.6450 C.2     1  UNL1        0.1064
     20 N         -28.0750    2.0890   25.0030 N.2     1  UNL1       -0.2081
     21 C         -27.5430    0.8490   25.0790 C.2     1  UNL1        0.2530
     22 O         -28.1930   -0.2080   24.4770 O.2     1  UNL1       -0.4558
     23 C         -29.4600    0.0050   23.8660 C.3     1  UNL1        0.2426
     24 C         -30.0650   -1.3770   23.5730 C.3     1  UNL1        0.2292
     25 O         -30.7290   -1.8780   24.7210 O.3     1  UNL1       -0.2162
     26 C         -26.3540    0.5760   25.7770 C.2     1  UNL1        0.1899
     27 F         -25.8600   -0.6810   25.7950 F       1  UNL1       -0.1996
     28 O         -20.4214   -0.5405   28.2018 O.2     1  UNL1       -0.2585
     29 C         -21.4680    1.4622   27.6844 C.3     1  UNL1        0.3425
     30 C         -23.8578    0.5147   28.0963 C.2     1  UNL1       -0.0082
     31 F         -20.2171    1.6275   28.1330 F       1  UNL1       -0.1876
     32 O         -23.2683    2.3761   24.8848 O.2     1  UNL1       -0.2493
     33 C         -24.6737    3.2359   31.8283 C.3     1  UNL1        0.0000
     34 C         -25.8934    4.0793   31.5672 C.3     1  UNL1        0.0000
     35 N         -27.2576   -0.0161   28.9541 N.1     1  UNL1       -0.1912
     36 C         -24.7301    1.8747   31.2368 C.3     1  UNL1        0.0015
     37 C         -26.1757    0.0278   28.6744 C.1     1  UNL1        0.0958
     38 C         -24.8906   -0.1168   28.8647 C.2     1  UNL1        0.0449
     39 C         -24.2440    1.3493   26.9119 C.3     1  UNL1        0.1432
     40 C         -22.4393    0.4680   28.2461 C.3     1  UNL1        0.1855
     41 O         -21.8648    2.0700   26.5989 O.3     1  UNL1       -0.4189
     42 C         -21.3992   -0.4628   28.7866 C.2     1  UNL1        0.3204
     43 F         -21.8138   -0.5000   30.1744 F       1  UNL1       -0.1630
     44 C         -23.2505    1.8797   26.2274 C.2     1  UNL1        0.3265
@<TRIPOS>BOND
     1     1    38    1
     2     2     7    1
     3     2     1    1
     4     3     2    2
     5     4     3    1
     6     4     5    2
     7     5     6    1
     8     6     7    2
     9     8     1    1
    10     8     9    1
    11     8    12    1
    12     9    36    1
    13     9    10    1
    14    10    11    1
    15    12    11    1
    16    14    13    1
    17    14    15    1
    18    15    18    2
    19    16    17    1
    20    16    15    1
    21    19    14    2
    22    20    21    2
    23    20    19    1
    24    21    26    1
    25    22    21    1
    26    23    22    1
    27    24    23    1
    28    24    25    1
    29    26    27    1
    30    26    13    2
    31    28    42    2
    32    29    31    1
    33    29    40    1
    34    30    40    1
    35    30    38    2
    36    32    44    2
    37    34    33    1
    38    36    33    1
    39    37    38    1
    40    37    35    3
    41    39    13    1
    42    39    30    1
    43    40    42    1
    44    41    29    1
    45    42    43    1
    46    44    41    1
    47    44    39    1
