@<TRIPOS>MOLECULE
outputs/IAG933/test6/raw/output_5792_IAG933_linker_design_.xyz
 41 45 0 0 0
SMALL
GASTEIGER

@<TRIPOS>ATOM
      1 C         -24.8550   -1.0120   30.1430 C.3     1  UNL1        0.1135
      2 C         -24.9730   -2.5050   29.7880 C.2     1  UNL1       -0.0029
      3 C         -23.9060   -3.1730   29.1460 C.2     1  UNL1       -0.0026
      4 C         -23.9890   -4.5490   28.8530 C.2     1  UNL1       -0.0003
      5 C         -25.1370   -5.2800   29.2050 C.2     1  UNL1       -0.0000
      6 C         -26.2320   -4.6110   29.7840 C.2     1  UNL1       -0.0003
      7 C         -26.1550   -3.2320   30.0650 C.2     1  UNL1       -0.0026
      8 C         -25.3870   -0.6790   31.5710 C.3     1  UNL1        0.0951
      9 C         -25.1890    0.7730   32.0280 C.3     1  UNL1        0.0209
     10 C         -25.3360    0.6840   33.5440 C.3     1  UNL1        0.0203
     11 C         -24.8290   -0.7150   33.9050 C.3     1  UNL1        0.0888
     12 N         -24.7580   -1.4810   32.6460 N.3     1  UNL1       -0.2174
     13 C         -25.6880    1.6140   26.4610 C.3     1  UNL1        0.1270
     14 C         -26.2500    2.9200   26.3950 C.2     1  UNL1        0.0620
     15 C         -25.6420    4.0930   27.1230 C.2     1  UNL1        0.2629
     16 N         -25.6140    5.2520   26.4490 N.am    1  UNL1       -0.2000
     17 C         -25.0260    6.4790   26.9630 C.3     1  UNL1        0.1388
     18 O         -25.1430    3.9660   28.2430 O.2     1  UNL1       -0.2686
     19 C         -27.4380    3.0910   25.6450 C.2     1  UNL1        0.1026
     20 N         -28.0750    2.0890   25.0030 N.2     1  UNL1       -0.2118
     21 C         -27.5430    0.8490   25.0790 C.2     1  UNL1        0.2345
     22 O         -28.1930   -0.2080   24.4770 O.2     1  UNL1       -0.4585
     23 C         -29.4600    0.0050   23.8660 C.3     1  UNL1        0.2423
     24 C         -30.0650   -1.3770   23.5730 C.3     1  UNL1        0.2292
     25 O         -30.7290   -1.8780   24.7210 O.3     1  UNL1       -0.2162
     26 C         -26.3540    0.5760   25.7770 C.3     1  UNL1        0.2471
     27 F         -25.8600   -0.6810   25.7950 F       1  UNL1       -0.2264
     28 C         -20.9255    1.1198   28.0000 C.2     1  UNL1        0.0372
     29 C         -21.9694    1.4335   27.2913 C.2     1  UNL1        0.1464
     30 C         -23.7371    0.3379   28.6301 C.2     1  UNL1        0.0554
     31 O         -27.4353    0.8669   28.8846 O.3     1  UNL1       -0.1959
     32 O         -21.4985    1.9524   26.1465 O.2     1  UNL1       -0.4376
     33 C         -22.8375   -0.3367   29.3147 C.2     1  UNL1        0.0148
     34 C         -24.1907    1.4425   26.5659 C.2     1  UNL1        0.1312
     35 C         -23.3396    1.0739   27.5481 C.2     1  UNL1        0.0777
     36 C         -21.6114   -0.5454   29.3975 C.2     1  UNL1        0.0014
     37 N         -25.0626    0.1580   29.1581 N.pl3   1  UNL1       -0.2765
     38 C         -26.4640   -0.1770   28.6705 C.3     1  UNL1        0.2785
     39 C         -22.4245    2.0242   25.1878 C.3     1  UNL1        0.4289
     40 O         -23.7160    1.7476   25.4037 O.2     1  UNL1       -0.4416
     41 C         -20.6309   -0.0345   28.7190 C.2     1  UNL1        0.0032
@<TRIPOS>BOND
     1     1    37    1
     2     2     7    1
     3     2     1    1
     4     3     2    2
     5     4     3    1
     6     4     5    2
     7     5     6    1
     8     6     7    2
     9     8     1    1
    10     8     9    1
    11     8    12    1
    12     9    10    1
    13    10    11    1
    14    12    11    1
    15    13    34    1
    16    14    13    1
    17    14    15    1
    18    15    18    2
    19    16    17    1
    20    16    15    1
    21    19    14    2
    22    20    21    2
    23    20    19    1
    24    21    26    1
    25    22    21    1
    26    23    22    1
    27    24    23    1
    28    24    25    1
    29    26    27    1
    30    26    13    1
    31    28    41    1
    32    29    35    1
    33    29    28    2
    34    30    37    1
    35    30    33    2
    36    32    29    1
    37    33    36    1
    38    34    35    2
    39    35    30    1
    40    38    31    1
    41    38    37    1
    42    39    40    1
    43    39    32    1
    44    40    34    1
    45    41    36    2
