@<TRIPOS>MOLECULE
outputs/IAG933/test6/raw/output_5797_IAG933_linker_design_.xyz
 46 50 0 0 0
SMALL
GASTEIGER

@<TRIPOS>ATOM
      1 C         -24.8550   -1.0120   30.1430 C.3     1  UNL1        0.0421
      2 C         -24.9730   -2.5050   29.7880 C.2     1  UNL1       -0.0208
      3 C         -23.9060   -3.1730   29.1460 C.2     1  UNL1       -0.0042
      4 C         -23.9890   -4.5490   28.8530 C.2     1  UNL1       -0.0003
      5 C         -25.1370   -5.2800   29.2050 C.2     1  UNL1       -0.0000
      6 C         -26.2320   -4.6110   29.7840 C.2     1  UNL1       -0.0003
      7 C         -26.1550   -3.2320   30.0650 C.2     1  UNL1       -0.0042
      8 C         -25.3870   -0.6790   31.5710 C.3     1  UNL1        0.0771
      9 C         -25.1890    0.7730   32.0280 C.3     1  UNL1        0.0192
     10 C         -25.3360    0.6840   33.5440 C.3     1  UNL1        0.0202
     11 C         -24.8290   -0.7150   33.9050 C.3     1  UNL1        0.0887
     12 N         -24.7580   -1.4810   32.6460 N.3     1  UNL1       -0.2191
     13 C         -25.6880    1.6140   26.4610 C.2     1  UNL1        0.0199
     14 C         -26.2500    2.9200   26.3950 C.2     1  UNL1        0.0729
     15 C         -25.6420    4.0930   27.1230 C.2     1  UNL1        0.2661
     16 N         -25.6140    5.2520   26.4490 N.am    1  UNL1       -0.1997
     17 C         -25.0260    6.4790   26.9630 C.3     1  UNL1        0.1388
     18 O         -25.1430    3.9660   28.2430 O.2     1  UNL1       -0.2683
     19 C         -27.4380    3.0910   25.6450 C.2     1  UNL1        0.1064
     20 N         -28.0750    2.0890   25.0030 N.2     1  UNL1       -0.2081
     21 C         -27.5430    0.8490   25.0790 C.2     1  UNL1        0.2530
     22 O         -28.1930   -0.2080   24.4770 O.2     1  UNL1       -0.4558
     23 C         -29.4600    0.0050   23.8660 C.3     1  UNL1        0.2426
     24 C         -30.0650   -1.3770   23.5730 C.3     1  UNL1        0.2292
     25 O         -30.7290   -1.8780   24.7210 O.3     1  UNL1       -0.2162
     26 C         -26.3540    0.5760   25.7770 C.2     1  UNL1        0.1894
     27 F         -25.8600   -0.6810   25.7950 F       1  UNL1       -0.1996
     28 O         -33.4254   -0.4896   31.3224 O.co2   1  UNL1       -0.2223
     29 C         -28.0885   -0.3969   29.7663 C.3     1  UNL1        0.1541
     30 C         -32.5029   -1.3620   31.2438 C.2     1  UNL1        0.4473
     31 O         -28.8707   -1.0977   28.8105 O.3     1  UNL1       -0.2231
     32 O         -22.3749    2.5536   25.1930 O.2     1  UNL1       -0.2501
     33 C         -24.5981    1.2058   27.1087 C.3     1  UNL1        0.0540
     34 C         -24.4213    0.5365   28.3198 C.2     1  UNL1       -0.0404
     35 C         -22.4369    1.9351   26.2506 C.2     1  UNL1        0.3180
     36 C         -23.0566    0.4293   28.9236 C.2     1  UNL1        0.0126
     37 C         -26.9653    0.4337   29.0148 C.3     1  UNL1        0.0373
     38 C         -30.0511   -0.7730   31.6735 C.3     1  UNL1        0.1011
     39 N         -31.2462   -1.0396   30.8543 N.am    1  UNL1       -0.2413
     40 C         -28.9922    0.1639   30.9043 C.3     1  UNL1        0.0545
     41 C         -23.4721    1.4623   26.4089 C.3     1  UNL1        0.1180
     42 C         -25.5441   -0.2583   28.9779 C.3     1  UNL1        0.0263
     43 O         -32.7600   -2.5686   31.5638 O.co2   1  UNL1       -0.2223
     44 C         -21.8244    1.0872   28.5163 C.3     1  UNL1        0.2342
     45 O         -21.5542    1.6119   27.2443 O.3     1  UNL1       -0.4435
     46 C         -30.1642   -2.0622   31.0545 C.3     1  UNL1        0.1167
@<TRIPOS>BOND
     1     1    42    1
     2     2     7    1
     3     2     1    1
     4     3     2    2
     5     4     3    1
     6     4     5    2
     7     5     6    1
     8     6     7    2
     9     8     1    1
    10     8     9    1
    11     8    12    1
    12     9    10    1
    13    10    11    1
    14    12    11    1
    15    14    13    1
    16    14    15    1
    17    15    18    2
    18    16    17    1
    19    16    15    1
    20    19    14    2
    21    20    21    2
    22    20    19    1
    23    21    26    1
    24    22    21    1
    25    23    22    1
    26    24    23    1
    27    24    25    1
    28    26    27    1
    29    26    13    2
    30    29    31    1
    31    29    40    1
    32    30    28   ar
    33    30    43   ar
    34    32    35    2
    35    33    13    1
    36    33    34    1
    37    34    36    2
    38    34    42    1
    39    35    41    1
    40    35    45    1
    41    37    29    1
    42    38    40    1
    43    39    46    1
    44    39    30   am
    45    39    38    1
    46    41    33    1
    47    42    37    1
    48    44    36    1
    49    45    44    1
    50    46    38    1
