@<TRIPOS>MOLECULE
outputs/IAG933/test6/raw/output_5799_IAG933_linker_design_.xyz
 42 45 0 0 0
SMALL
GASTEIGER

@<TRIPOS>ATOM
      1 C         -24.8550   -1.0120   30.1430 C.3     1  UNL1        0.1237
      2 C         -24.9730   -2.5050   29.7880 C.2     1  UNL1       -0.0021
      3 C         -23.9060   -3.1730   29.1460 C.2     1  UNL1       -0.0026
      4 C         -23.9890   -4.5490   28.8530 C.2     1  UNL1       -0.0003
      5 C         -25.1370   -5.2800   29.2050 C.2     1  UNL1       -0.0000
      6 C         -26.2320   -4.6110   29.7840 C.2     1  UNL1       -0.0003
      7 C         -26.1550   -3.2320   30.0650 C.2     1  UNL1       -0.0026
      8 C         -25.3870   -0.6790   31.5710 C.3     1  UNL1        0.0960
      9 C         -25.1890    0.7730   32.0280 C.3     1  UNL1        0.0209
     10 C         -25.3360    0.6840   33.5440 C.3     1  UNL1        0.0203
     11 C         -24.8290   -0.7150   33.9050 C.3     1  UNL1        0.0888
     12 N         -24.7580   -1.4810   32.6460 N.3     1  UNL1       -0.2174
     13 C         -25.6880    1.6140   26.4610 C.2     1  UNL1        0.0416
     14 C         -26.2500    2.9200   26.3950 C.2     1  UNL1        0.0767
     15 C         -25.6420    4.0930   27.1230 C.2     1  UNL1        0.2664
     16 N         -25.6140    5.2520   26.4490 N.am    1  UNL1       -0.1997
     17 C         -25.0260    6.4790   26.9630 C.3     1  UNL1        0.1388
     18 O         -25.1430    3.9660   28.2430 O.2     1  UNL1       -0.2683
     19 C         -27.4380    3.0910   25.6450 C.2     1  UNL1        0.1067
     20 N         -28.0750    2.0890   25.0030 N.2     1  UNL1       -0.2081
     21 C         -27.5430    0.8490   25.0790 C.2     1  UNL1        0.2533
     22 O         -28.1930   -0.2080   24.4770 O.2     1  UNL1       -0.4558
     23 C         -29.4600    0.0050   23.8660 C.3     1  UNL1        0.2426
     24 C         -30.0650   -1.3770   23.5730 C.3     1  UNL1        0.2292
     25 O         -30.7290   -1.8780   24.7210 O.3     1  UNL1       -0.2162
     26 C         -26.3540    0.5760   25.7770 C.2     1  UNL1        0.1932
     27 F         -25.8600   -0.6810   25.7950 F       1  UNL1       -0.1992
     28 F         -22.5589   -0.0948   30.1339 F       1  UNL1       -0.2004
     29 C         -23.0597    0.4210   28.9100 C.ar    1  UNL1        0.1838
     30 C         -22.1783    1.4822   26.9278 C.ar    1  UNL1        0.1969
     31 C         -24.5298    1.2410   27.1370 C.ar    1  UNL1        0.0487
     32 S         -26.9694    0.6761   29.1628 S.3     1  UNL1        0.0762
     33 F         -21.1563    2.1223   26.3393 F       1  UNL1       -0.1993
     34 C         -22.0215    0.8631   28.1089 C.ar    1  UNL1        0.1981
     35 F         -23.4358    1.8192   25.0163 F       1  UNL1       -0.2017
     36 C         -24.3848    0.6071   28.3981 C.ar    1  UNL1        0.0911
     37 N         -26.7990    2.3142   29.4037 N.3     1  UNL1       -0.0351
     38 O         -27.4331   -0.3054   28.0626 O.3     1  UNL1       -0.1362
     39 C         -23.3908    1.4982   26.3884 C.ar    1  UNL1        0.1710
     40 F         -20.8520    0.7676   28.4747 F       1  UNL1       -0.1993
     41 C         -28.2626    0.2263   30.3384 C.3     1  UNL1        0.1184
     42 N         -25.2849    0.0264   29.1720 N.pl3   1  UNL1       -0.2377
@<TRIPOS>BOND
     1     1    42    1
     2     2     7    1
     3     2     1    1
     4     3     2    2
     5     4     3    1
     6     4     5    2
     7     5     6    1
     8     6     7    2
     9     8     1    1
    10     8     9    1
    11     8    12    1
    12     9    10    1
    13    10    11    1
    14    12    11    1
    15    13    31    1
    16    14    13    1
    17    14    15    1
    18    15    18    2
    19    16    17    1
    20    16    15    1
    21    19    14    2
    22    20    21    2
    23    20    19    1
    24    21    26    1
    25    22    21    1
    26    23    22    1
    27    24    23    1
    28    24    25    1
    29    26    27    1
    30    26    13    2
    31    29    28    1
    32    30    34   ar
    33    31    36   ar
    34    32    42    1
    35    32    37    1
    36    32    41    1
    37    33    30    1
    38    34    40    1
    39    34    29   ar
    40    35    39    1
    41    36    29   ar
    42    36    42    1
    43    38    32    1
    44    39    30   ar
    45    39    31   ar
