@<TRIPOS>MOLECULE
outputs/IAG933/test6/raw/output_580_IAG933_linker_design_.xyz
 42 45 0 0 0
SMALL
GASTEIGER

@<TRIPOS>ATOM
      1 C         -24.8550   -1.0120   30.1430 C.3     1  UNL1        0.0632
      2 C         -24.9730   -2.5050   29.7880 C.2     1  UNL1       -0.0172
      3 C         -23.9060   -3.1730   29.1460 C.2     1  UNL1       -0.0039
      4 C         -23.9890   -4.5490   28.8530 C.2     1  UNL1       -0.0003
      5 C         -25.1370   -5.2800   29.2050 C.2     1  UNL1       -0.0000
      6 C         -26.2320   -4.6110   29.7840 C.2     1  UNL1       -0.0003
      7 C         -26.1550   -3.2320   30.0650 C.2     1  UNL1       -0.0039
      8 C         -25.3870   -0.6790   31.5710 C.3     1  UNL1        0.0808
      9 C         -25.1890    0.7730   32.0280 C.3     1  UNL1        0.0195
     10 C         -25.3360    0.6840   33.5440 C.3     1  UNL1        0.0203
     11 C         -24.8290   -0.7150   33.9050 C.3     1  UNL1        0.0887
     12 N         -24.7580   -1.4810   32.6460 N.3     1  UNL1       -0.2188
     13 C         -25.6880    1.6140   26.4610 C.2     1  UNL1        0.0989
     14 C         -26.2500    2.9200   26.3950 C.2     1  UNL1        0.0906
     15 C         -25.6420    4.0930   27.1230 C.2     1  UNL1        0.2677
     16 N         -25.6140    5.2520   26.4490 N.am    1  UNL1       -0.1997
     17 C         -25.0260    6.4790   26.9630 C.3     1  UNL1        0.1388
     18 O         -25.1430    3.9660   28.2430 O.2     1  UNL1       -0.2683
     19 C         -27.4380    3.0910   25.6450 C.2     1  UNL1        0.1080
     20 N         -28.0750    2.0890   25.0030 N.2     1  UNL1       -0.2080
     21 C         -27.5430    0.8490   25.0790 C.2     1  UNL1        0.2546
     22 O         -28.1930   -0.2080   24.4770 O.2     1  UNL1       -0.4558
     23 C         -29.4600    0.0050   23.8660 C.3     1  UNL1        0.2426
     24 C         -30.0650   -1.3770   23.5730 C.3     1  UNL1        0.2292
     25 O         -30.7290   -1.8780   24.7210 O.3     1  UNL1       -0.2162
     26 C         -26.3540    0.5760   25.7770 C.2     1  UNL1        0.2070
     27 F         -25.8600   -0.6810   25.7950 F       1  UNL1       -0.1979
     28 C         -29.1133    0.1119   31.3480 C.3     1  UNL1        0.0641
     29 C         -22.3889    1.0083   27.7638 C.3     1  UNL1        0.4065
     30 F         -21.0798    1.0073   27.6088 F       1  UNL1       -0.1779
     31 C         -27.1215   -0.1877   29.0472 C.3     1  UNL1        0.1691
     32 O         -22.9709    2.2593   25.7417 O.2     1  UNL1       -0.2670
     33 C         -23.3250    1.6073   26.7863 C.2     1  UNL1        0.3112
     34 N         -24.5077    1.2584   27.1472 N.am    1  UNL1       -0.2008
     35 O         -23.1217    0.2828   28.5999 O.2     1  UNL1       -0.4298
     36 O         -31.1244   -0.5756   32.6456 O.3     1  UNL1       -0.3510
     37 C         -25.4808   -0.1224   29.1147 C.2     1  UNL1        0.0398
     38 O         -28.1187   -1.1545   29.5062 O.3     1  UNL1       -0.3491
     39 C         -31.8600   -0.0044   33.7694 C.3     1  UNL1        0.1741
     40 C         -24.4447    0.4719   28.2559 C.2     1  UNL1        0.2011
     41 C         -29.7227   -0.3229   32.6988 C.3     1  UNL1        0.1449
     42 C         -29.2388   -0.6037   30.2229 C.3     1  UNL1        0.1452
@<TRIPOS>BOND
     1     1    37    1
     2     2     7    1
     3     2     1    1
     4     3     2    2
     5     4     3    1
     6     4     5    2
     7     5     6    1
     8     6     7    2
     9     8     1    1
    10     8     9    1
    11     8    12    1
    12     9    10    1
    13    10    11    1
    14    12    11    1
    15    13    34    1
    16    14    13    1
    17    14    15    1
    18    15    18    2
    19    16    17    1
    20    16    15    1
    21    19    14    2
    22    20    21    2
    23    20    19    1
    24    21    26    1
    25    22    21    1
    26    23    22    1
    27    24    23    1
    28    24    25    1
    29    26    27    1
    30    26    13    2
    31    28    41    1
    32    29    30    1
    33    29    35    1
    34    31    37    1
    35    31    38    1
    36    32    33    2
    37    33    34   am
    38    33    29    1
    39    34    40    1
    40    36    41    1
    41    36    39    1
    42    38    42    1
    43    40    35    1
    44    40    37    2
    45    42    28    1
