@<TRIPOS>MOLECULE
outputs/IAG933/test6/raw/output_5802_IAG933_linker_design_.xyz
 45 47 0 0 0
SMALL
GASTEIGER

@<TRIPOS>ATOM
      1 C         -24.8550   -1.0120   30.1430 C.3     1  UNL1        0.1113
      2 C         -24.9730   -2.5050   29.7880 C.2     1  UNL1       -0.0051
      3 C         -23.9060   -3.1730   29.1460 C.2     1  UNL1       -0.0029
      4 C         -23.9890   -4.5490   28.8530 C.2     1  UNL1       -0.0003
      5 C         -25.1370   -5.2800   29.2050 C.2     1  UNL1       -0.0000
      6 C         -26.2320   -4.6110   29.7840 C.2     1  UNL1       -0.0003
      7 C         -26.1550   -3.2320   30.0650 C.2     1  UNL1       -0.0029
      8 C         -25.3870   -0.6790   31.5710 C.3     1  UNL1        0.0953
      9 C         -25.1890    0.7730   32.0280 C.3     1  UNL1        0.0488
     10 C         -25.3360    0.6840   33.5440 C.3     1  UNL1        0.0228
     11 C         -24.8290   -0.7150   33.9050 C.3     1  UNL1        0.0888
     12 N         -24.7580   -1.4810   32.6460 N.3     1  UNL1       -0.2176
     13 C         -25.6880    1.6140   26.4610 C.2     1  UNL1        0.0344
     14 C         -26.2500    2.9200   26.3950 C.2     1  UNL1        0.0762
     15 C         -25.6420    4.0930   27.1230 C.2     1  UNL1        0.2664
     16 N         -25.6140    5.2520   26.4490 N.am    1  UNL1       -0.1997
     17 C         -25.0260    6.4790   26.9630 C.3     1  UNL1        0.1388
     18 O         -25.1430    3.9660   28.2430 O.2     1  UNL1       -0.2683
     19 C         -27.4380    3.0910   25.6450 C.2     1  UNL1        0.1067
     20 N         -28.0750    2.0890   25.0030 N.2     1  UNL1       -0.2081
     21 C         -27.5430    0.8490   25.0790 C.2     1  UNL1        0.2533
     22 O         -28.1930   -0.2080   24.4770 O.2     1  UNL1       -0.4558
     23 C         -29.4600    0.0050   23.8660 C.3     1  UNL1        0.2426
     24 C         -30.0650   -1.3770   23.5730 C.3     1  UNL1        0.2292
     25 O         -30.7290   -1.8780   24.7210 O.3     1  UNL1       -0.2162
     26 C         -26.3540    0.5760   25.7770 C.2     1  UNL1        0.1927
     27 F         -25.8600   -0.6810   25.7950 F       1  UNL1       -0.1993
     28 C         -21.9207    0.8059   27.2168 C.3     1  UNL1        0.0400
     29 C         -25.4833    6.5859   35.1515 C.3     1  UNL1        0.1741
     30 C         -22.9769    2.1154   25.3856 C.2     1  UNL1        0.3150
     31 N         -23.5036   -0.4739   30.2528 N.3     1  UNL1       -0.2079
     32 C         -24.9303    3.8599   31.6864 C.3     1  UNL1        0.1447
     33 C         -24.3858    1.3114   27.1239 C.2     1  UNL1       -0.0123
     34 F         -21.9109    1.8829   24.6048 F       1  UNL1       -0.1632
     35 C         -24.8505    5.9164   33.0207 C.3     1  UNL1        0.1449
     36 C         -21.8069    0.5251   28.2746 C.3     1  UNL1        0.1810
     37 F         -21.2199    0.8842   28.1225 F       1  UNL1       -0.2354
     38 O         -23.9303    2.8094   31.5220 O.3     1  UNL1       -0.3536
     39 C         -24.3610    1.6553   31.6209 C.3     1  UNL1        0.1436
     40 C         -23.0372    1.5269   26.6034 C.3     1  UNL1        0.1269
     41 O         -25.1213    5.4731   34.3084 O.3     1  UNL1       -0.3510
     42 C         -23.2418    0.2478   29.0822 C.3     1  UNL1        0.1272
     43 C         -24.0868    4.9246   32.1947 C.3     1  UNL1        0.0641
     44 C         -24.3652    0.7396   28.3469 C.2     1  UNL1       -0.0101
     45 O         -23.7393    3.0073   24.9875 O.2     1  UNL1       -0.2587
@<TRIPOS>BOND
     1     1    31    1
     2     2     7    1
     3     2     1    1
     4     3     2    2
     5     4     3    1
     6     4     5    2
     7     5     6    1
     8     6     7    2
     9     8     1    1
    10     8     9    1
    11     8    12    1
    12     9    39    1
    13     9    10    1
    14    10    11    1
    15    12    11    1
    16    13    33    1
    17    14    13    1
    18    14    15    1
    19    15    18    2
    20    16    17    1
    21    16    15    1
    22    19    14    2
    23    20    21    2
    24    20    19    1
    25    21    26    1
    26    22    21    1
    27    23    22    1
    28    24    23    1
    29    24    25    1
    30    26    27    1
    31    26    13    2
    32    30    40    1
    33    32    43    1
    34    33    44    2
    35    34    30    1
    36    35    41    1
    37    36    28    1
    38    36    42    1
    39    37    36    1
    40    38    39    1
    41    38    32    1
    42    40    33    1
    43    41    29    1
    44    42    44    1
    45    42    31    1
    46    43    35    1
    47    45    30    2
