@<TRIPOS>MOLECULE
outputs/IAG933/test6/raw/output_5817_IAG933_linker_design_.xyz
 46 50 0 0 0
SMALL
GASTEIGER

@<TRIPOS>ATOM
      1 C         -24.8550   -1.0120   30.1430 C.3     1  UNL1        0.1108
      2 C         -24.9730   -2.5050   29.7880 C.2     1  UNL1       -0.0051
      3 C         -23.9060   -3.1730   29.1460 C.2     1  UNL1       -0.0029
      4 C         -23.9890   -4.5490   28.8530 C.2     1  UNL1       -0.0003
      5 C         -25.1370   -5.2800   29.2050 C.2     1  UNL1       -0.0000
      6 C         -26.2320   -4.6110   29.7840 C.2     1  UNL1       -0.0003
      7 C         -26.1550   -3.2320   30.0650 C.2     1  UNL1       -0.0029
      8 C         -25.3870   -0.6790   31.5710 C.3     1  UNL1        0.0929
      9 C         -25.1890    0.7730   32.0280 C.3     1  UNL1        0.0206
     10 C         -25.3360    0.6840   33.5440 C.3     1  UNL1        0.0203
     11 C         -24.8290   -0.7150   33.9050 C.3     1  UNL1        0.0888
     12 N         -24.7580   -1.4810   32.6460 N.3     1  UNL1       -0.2177
     13 C         -25.6880    1.6140   26.4610 C.3     1  UNL1        0.0755
     14 C         -26.2500    2.9200   26.3950 C.2     1  UNL1        0.0552
     15 C         -25.6420    4.0930   27.1230 C.2     1  UNL1        0.2625
     16 N         -25.6140    5.2520   26.4490 N.am    1  UNL1       -0.2000
     17 C         -25.0260    6.4790   26.9630 C.3     1  UNL1        0.1388
     18 O         -25.1430    3.9660   28.2430 O.2     1  UNL1       -0.2687
     19 C         -27.4380    3.0910   25.6450 C.2     1  UNL1        0.1021
     20 N         -28.0750    2.0890   25.0030 N.2     1  UNL1       -0.2119
     21 C         -27.5430    0.8490   25.0790 C.2     1  UNL1        0.2341
     22 O         -28.1930   -0.2080   24.4770 O.2     1  UNL1       -0.4585
     23 C         -29.4600    0.0050   23.8660 C.3     1  UNL1        0.2423
     24 C         -30.0650   -1.3770   23.5730 C.3     1  UNL1        0.2292
     25 O         -30.7290   -1.8780   24.7210 O.3     1  UNL1       -0.2162
     26 C         -26.3540    0.5760   25.7770 C.3     1  UNL1        0.2404
     27 F         -25.8600   -0.6810   25.7950 F       1  UNL1       -0.2269
     28 N         -30.0655   -2.5013   31.2996 N.am    1  UNL1       -0.0692
     29 N         -25.3465   -0.3469   29.1848 N.3     1  UNL1       -0.2147
     30 C         -25.2102    1.0247   27.8242 C.3     1  UNL1        0.0457
     31 C         -28.7524    0.5068   28.5984 C.3     1  UNL1        0.0214
     32 C         -26.1258    0.1463   28.5446 C.3     1  UNL1        0.0776
     33 C         -30.8289    0.2860   27.4670 C.3     1  UNL1        0.0216
     34 C         -29.3483    1.4104   29.6309 C.3     1  UNL1        0.0232
     35 C         -23.2045    1.5953   26.7165 C.2     1  UNL1       -0.0042
     36 C         -21.8152    1.5736   26.6647 C.2     1  UNL1       -0.0003
     37 C         -23.1009    0.9397   29.0205 C.2     1  UNL1       -0.0042
     38 C         -29.8638    0.3831   30.6344 C.3     1  UNL1        0.0950
     39 O         -32.1285   -2.2512   30.4974 O.2     1  UNL1       -0.2490
     40 N         -30.6128   -0.6333   29.8766 N.am    1  UNL1       -0.2632
     41 C         -29.9612   -0.5178   28.4919 C.3     1  UNL1        0.0770
     42 C         -21.1007    1.1495   27.7436 C.2     1  UNL1       -0.0000
     43 C         -23.8976    1.1725   27.9050 C.2     1  UNL1       -0.0207
     44 C         -21.7047    0.8383   28.9259 C.2     1  UNL1       -0.0003
     45 C         -30.9734   -1.8281   30.5660 C.2     1  UNL1        0.3429
     46 C         -27.5000   -0.0354   29.0558 C.3     1  UNL1        0.0194
@<TRIPOS>BOND
     1     1    29    1
     2     2     7    1
     3     2     1    1
     4     3     2    2
     5     4     3    1
     6     4     5    2
     7     5     6    1
     8     6     7    2
     9     8     1    1
    10     8     9    1
    11     8    12    1
    12     9    10    1
    13    10    11    1
    14    12    11    1
    15    13    30    1
    16    14    13    1
    17    14    15    1
    18    15    18    2
    19    16    17    1
    20    16    15    1
    21    19    14    2
    22    20    21    2
    23    20    19    1
    24    21    26    1
    25    22    21    1
    26    23    22    1
    27    24    23    1
    28    24    25    1
    29    26    27    1
    30    26    13    1
    31    30    43    1
    32    30    32    1
    33    31    46    1
    34    31    34    1
    35    32    46    1
    36    32    29    1
    37    34    38    1
    38    35    43    1
    39    36    35    2
    40    36    42    1
    41    39    45    2
    42    40    45   am
    43    40    38    1
    44    41    33    1
    45    41    31    1
    46    41    40    1
    47    42    44    2
    48    43    37    2
    49    44    37    1
    50    45    28    1
