@<TRIPOS>MOLECULE
outputs/IAG933/test6/raw/output_5827_IAG933_linker_design_.xyz
 42 45 0 0 0
SMALL
GASTEIGER

@<TRIPOS>ATOM
      1 C         -24.8550   -1.0120   30.1430 C.3     1  UNL1        0.0582
      2 C         -24.9730   -2.5050   29.7880 C.2     1  UNL1       -0.0195
      3 C         -23.9060   -3.1730   29.1460 C.2     1  UNL1       -0.0042
      4 C         -23.9890   -4.5490   28.8530 C.2     1  UNL1       -0.0003
      5 C         -25.1370   -5.2800   29.2050 C.2     1  UNL1       -0.0000
      6 C         -26.2320   -4.6110   29.7840 C.2     1  UNL1       -0.0003
      7 C         -26.1550   -3.2320   30.0650 C.2     1  UNL1       -0.0042
      8 C         -25.3870   -0.6790   31.5710 C.3     1  UNL1        0.0784
      9 C         -25.1890    0.7730   32.0280 C.3     1  UNL1        0.0179
     10 C         -25.3360    0.6840   33.5440 C.3     1  UNL1        0.0202
     11 C         -24.8290   -0.7150   33.9050 C.3     1  UNL1        0.0887
     12 N         -24.7580   -1.4810   32.6460 N.3     1  UNL1       -0.2191
     13 C         -25.6880    1.6140   26.4610 C.2     1  UNL1        0.0355
     14 C         -26.2500    2.9200   26.3950 C.2     1  UNL1        0.0742
     15 C         -25.6420    4.0930   27.1230 C.2     1  UNL1        0.2662
     16 N         -25.6140    5.2520   26.4490 N.am    1  UNL1       -0.1997
     17 C         -25.0260    6.4790   26.9630 C.3     1  UNL1        0.1388
     18 O         -25.1430    3.9660   28.2430 O.2     1  UNL1       -0.2683
     19 C         -27.4380    3.0910   25.6450 C.2     1  UNL1        0.1065
     20 N         -28.0750    2.0890   25.0030 N.2     1  UNL1       -0.2081
     21 C         -27.5430    0.8490   25.0790 C.2     1  UNL1        0.2530
     22 O         -28.1930   -0.2080   24.4770 O.2     1  UNL1       -0.4558
     23 C         -29.4600    0.0050   23.8660 C.3     1  UNL1        0.2426
     24 C         -30.0650   -1.3770   23.5730 C.3     1  UNL1        0.2292
     25 O         -30.7290   -1.8780   24.7210 O.3     1  UNL1       -0.2162
     26 C         -26.3540    0.5760   25.7770 C.2     1  UNL1        0.1907
     27 F         -25.8600   -0.6810   25.7950 F       1  UNL1       -0.1995
     28 C         -25.6388    2.2537   31.7159 C.3     1  UNL1        0.0030
     29 F         -21.1668    2.0486   26.0023 F       1  UNL1       -0.2061
     30 C         -21.4869    0.9661   28.0602 C.2     1  UNL1        0.1166
     31 C         -21.9977    1.7055   26.9906 C.2     1  UNL1        0.1509
     32 C         -25.4344   -0.0714   29.0845 C.3     1  UNL1        0.1010
     33 C         -26.4576    4.6105   32.1524 C.3     1  UNL1        0.1093
     34 C         -26.3956    3.2113   32.7213 C.3     1  UNL1        0.0205
     35 N         -24.3662    0.8195   28.6271 N.am    1  UNL1       -0.2584
     36 O         -23.2154    1.7203   30.4060 O.2     1  UNL1       -0.2504
     37 C         -23.2704    0.9650   29.4754 C.2     1  UNL1        0.3278
     38 N         -26.8498    5.5796   33.1906 N.3     1  UNL1       -0.1314
     39 C         -24.3833    1.4003   27.2384 C.3     1  UNL1        0.1233
     40 N         -22.1444    0.2757   29.1081 N.am    1  UNL1       -0.1588
     41 C         -23.2465    1.9798   26.5953 C.3     1  UNL1        0.1534
     42 CL        -23.3952    3.1160   25.3657 Cl      1  UNL1       -0.1055
@<TRIPOS>BOND
     1     1    32    1
     2     2     7    1
     3     2     1    1
     4     3     2    2
     5     4     3    1
     6     4     5    2
     7     5     6    1
     8     6     7    2
     9     8     1    1
    10     8     9    1
    11     8    12    1
    12     9    28    1
    13     9    10    1
    14    10    11    1
    15    12    11    1
    16    14    13    1
    17    14    15    1
    18    15    18    2
    19    16    17    1
    20    16    15    1
    21    19    14    2
    22    20    21    2
    23    20    19    1
    24    21    26    1
    25    22    21    1
    26    23    22    1
    27    24    23    1
    28    24    25    1
    29    26    27    1
    30    26    13    2
    31    28    34    1
    32    29    31    1
    33    30    40    1
    34    31    30    2
    35    33    34    1
    36    33    38    1
    37    35    32    1
    38    35    37   am
    39    37    36    2
    40    39    13    1
    41    39    35    1
    42    40    37    1
    43    41    42    1
    44    41    31    1
    45    41    39    1
