@<TRIPOS>MOLECULE
outputs/IAG933/test6/raw/output_5828_IAG933_linker_design_.xyz
 47 52 0 0 0
SMALL
GASTEIGER

@<TRIPOS>ATOM
      1 C         -24.8550   -1.0120   30.1430 C.3     1  UNL1        0.2426
      2 C         -24.9730   -2.5050   29.7880 C.2     1  UNL1        0.0253
      3 C         -23.9060   -3.1730   29.1460 C.2     1  UNL1       -0.0003
      4 C         -23.9890   -4.5490   28.8530 C.2     1  UNL1       -0.0002
      5 C         -25.1370   -5.2800   29.2050 C.2     1  UNL1       -0.0000
      6 C         -26.2320   -4.6110   29.7840 C.2     1  UNL1       -0.0002
      7 C         -26.1550   -3.2320   30.0650 C.2     1  UNL1       -0.0003
      8 C         -25.3870   -0.6790   31.5710 C.3     1  UNL1        0.1239
      9 C         -25.1890    0.7730   32.0280 C.3     1  UNL1        0.0235
     10 C         -25.3360    0.6840   33.5440 C.3     1  UNL1        0.0204
     11 C         -24.8290   -0.7150   33.9050 C.3     1  UNL1        0.0889
     12 N         -24.7580   -1.4810   32.6460 N.3     1  UNL1       -0.2149
     13 C         -25.6880    1.6140   26.4610 C.2     1  UNL1        0.0684
     14 C         -26.2500    2.9200   26.3950 C.2     1  UNL1        0.0752
     15 C         -25.6420    4.0930   27.1230 C.2     1  UNL1        0.2286
     16 N         -25.6140    5.2520   26.4490 N.2     1  UNL1       -0.2353
     17 C         -25.0260    6.4790   26.9630 C.3     1  UNL1        0.1550
     18 O         -25.1430    3.9660   28.2430 O.2     1  UNL1       -0.4194
     19 C         -27.4380    3.0910   25.6450 C.2     1  UNL1        0.1066
     20 N         -28.0750    2.0890   25.0030 N.2     1  UNL1       -0.2081
     21 C         -27.5430    0.8490   25.0790 C.2     1  UNL1        0.2531
     22 O         -28.1930   -0.2080   24.4770 O.2     1  UNL1       -0.4558
     23 C         -29.4600    0.0050   23.8660 C.3     1  UNL1        0.2426
     24 C         -30.0650   -1.3770   23.5730 C.3     1  UNL1        0.2292
     25 O         -30.7290   -1.8780   24.7210 O.3     1  UNL1       -0.2162
     26 C         -26.3540    0.5760   25.7770 C.2     1  UNL1        0.1935
     27 F         -25.8600   -0.6810   25.7950 F       1  UNL1       -0.1994
     28 C         -27.7747    4.9081   30.2628 C.3     1  UNL1        0.1132
     29 O         -21.0881    1.5818   26.5148 O.2     1  UNL1       -0.3374
     30 C         -23.4843    0.3958   29.0721 C.2     1  UNL1        0.3404
     31 C         -24.4394    1.3715   27.3059 C.3     1  UNL1        0.2630
     32 C         -25.7555    4.3224   29.5173 C.2     1  UNL1        0.2269
     33 N         -26.9699    4.5685   29.2870 N.2     1  UNL1       -0.2391
     34 C         -29.1867    4.4234   30.0962 C.3     1  UNL1        0.0568
     35 O         -29.4980    6.4868   29.0773 O.3     1  UNL1       -0.3510
     36 N         -24.6061    0.6725   28.4146 N.2     1  UNL1       -0.0610
     37 C         -22.8728    2.1003   25.3451 C.3     1  UNL1        0.2250
     38 C         -25.2156    4.4982   30.8550 C.2     1  UNL1        0.0533
     39 C         -25.9626    5.2078   31.7563 C.2     1  UNL1       -0.0193
     40 C         -22.1602    1.3431   27.3580 C.2     1  UNL1        0.1714
     41 C         -29.6407    5.0792   28.7893 C.3     1  UNL1        0.1443
     42 C         -27.2520    5.5187   31.3766 C.3     1  UNL1        0.0506
     43 N         -23.5134   -0.5443   30.1159 N.pl3   1  UNL1       -0.0335
     44 C         -22.2634    0.8291   28.6172 C.3     1  UNL1        0.1877
     45 O         -21.6255    1.9460   25.2501 O.3     1  UNL1       -0.1682
     46 C         -28.3946    7.3591   28.8618 C.3     1  UNL1        0.1741
     47 C         -23.2764    1.6638   26.7522 C.2     1  UNL1        0.0763
@<TRIPOS>BOND
     1     1    43    1
     2     2     7    1
     3     2     1    1
     4     3     2    2
     5     4     3    1
     6     4     5    2
     7     5     6    1
     8     6     7    2
     9     8     1    1
    10     8     9    1
    11     8    12    1
    12     9    10    1
    13    10    11    1
    14    12    11    1
    15    14    13    1
    16    14    15    1
    17    15    18    1
    18    16    17    1
    19    16    15    2
    20    18    32    1
    21    19    14    2
    22    20    21    2
    23    20    19    1
    24    21    26    1
    25    22    21    1
    26    23    22    1
    27    24    23    1
    28    24    25    1
    29    26    27    1
    30    26    13    2
    31    28    34    1
    32    28    42    1
    33    29    40    1
    34    30    43    1
    35    31    13    1
    36    31    36    1
    37    32    38    1
    38    33    32    2
    39    33    28    1
    40    36    30    2
    41    37    47    1
    42    38    39    2
    43    40    44    1
    44    41    35    1
    45    41    34    1
    46    42    39    1
    47    44    30    1
    48    45    37    1
    49    45    29    1
    50    46    35    1
    51    47    31    1
    52    47    40    2
