@<TRIPOS>MOLECULE
outputs/IAG933/test6/raw/output_5831_IAG933_linker_design_.xyz
 40 43 0 0 0
SMALL
GASTEIGER

@<TRIPOS>ATOM
      1 C         -24.8550   -1.0120   30.1430 C.3     1  UNL1        0.2036
      2 C         -24.9730   -2.5050   29.7880 C.2     1  UNL1        0.0186
      3 C         -23.9060   -3.1730   29.1460 C.2     1  UNL1       -0.0008
      4 C         -23.9890   -4.5490   28.8530 C.2     1  UNL1       -0.0002
      5 C         -25.1370   -5.2800   29.2050 C.2     1  UNL1       -0.0000
      6 C         -26.2320   -4.6110   29.7840 C.2     1  UNL1       -0.0002
      7 C         -26.1550   -3.2320   30.0650 C.2     1  UNL1       -0.0008
      8 C         -25.3870   -0.6790   31.5710 C.3     1  UNL1        0.1170
      9 C         -25.1890    0.7730   32.0280 C.3     1  UNL1        0.0229
     10 C         -25.3360    0.6840   33.5440 C.3     1  UNL1        0.0204
     11 C         -24.8290   -0.7150   33.9050 C.3     1  UNL1        0.0888
     12 N         -24.7580   -1.4810   32.6460 N.3     1  UNL1       -0.2154
     13 C         -25.6880    1.6140   26.4610 C.2     1  UNL1        0.0399
     14 C         -26.2500    2.9200   26.3950 C.2     1  UNL1        0.0744
     15 C         -25.6420    4.0930   27.1230 C.2     1  UNL1        0.2662
     16 N         -25.6140    5.2520   26.4490 N.am    1  UNL1       -0.1997
     17 C         -25.0260    6.4790   26.9630 C.3     1  UNL1        0.1388
     18 O         -25.1430    3.9660   28.2430 O.2     1  UNL1       -0.2683
     19 C         -27.4380    3.0910   25.6450 C.2     1  UNL1        0.1065
     20 N         -28.0750    2.0890   25.0030 N.2     1  UNL1       -0.2081
     21 C         -27.5430    0.8490   25.0790 C.2     1  UNL1        0.2530
     22 O         -28.1930   -0.2080   24.4770 O.2     1  UNL1       -0.4558
     23 C         -29.4600    0.0050   23.8660 C.3     1  UNL1        0.2426
     24 C         -30.0650   -1.3770   23.5730 C.3     1  UNL1        0.2292
     25 O         -30.7290   -1.8780   24.7210 O.3     1  UNL1       -0.2162
     26 C         -26.3540    0.5760   25.7770 C.2     1  UNL1        0.1910
     27 F         -25.8600   -0.6810   25.7950 F       1  UNL1       -0.1995
     28 C         -20.9817   -0.0715   28.8413 C.3     1  UNL1        0.0756
     29 C         -22.4133    2.0220   26.3903 C.2     1  UNL1        0.3791
     30 F         -23.2150    2.4627   25.4483 F       1  UNL1       -0.1430
     31 O         -21.4974    1.5116   27.2651 O.2     1  UNL1       -0.4172
     32 N         -26.2126    0.7021   29.2934 N.3     1  UNL1       -0.1770
     33 C         -24.4803    1.3672   27.3160 C.3     1  UNL1        0.1567
     34 O         -23.4277   -0.4119   29.9884 O.2     1  UNL1       -0.4734
     35 C         -24.7798    1.0261   28.7250 C.3     1  UNL1        0.1611
     36 O         -27.4398   -1.0101   28.5178 O.3     1  UNL1       -0.1992
     37 C         -21.9674    0.5775   28.2935 C.2     1  UNL1        0.1582
     38 C         -27.5340   -0.0615   29.2871 C.3     1  UNL1        0.2735
     39 N         -23.4356    1.7306   26.6339 N.2     1  UNL1       -0.2067
     40 C         -23.2771    0.2521   28.9504 C.2     1  UNL1        0.1646
@<TRIPOS>BOND
     1     1    34    1
     2     2     7    1
     3     2     1    1
     4     3     2    2
     5     4     3    1
     6     4     5    2
     7     5     6    1
     8     6     7    2
     9     8     1    1
    10     8     9    1
    11     8    12    1
    12     9    10    1
    13    10    11    1
    14    12    11    1
    15    14    13    1
    16    14    15    1
    17    15    18    2
    18    16    17    1
    19    16    15    1
    20    19    14    2
    21    20    21    2
    22    20    19    1
    23    21    26    1
    24    22    21    1
    25    23    22    1
    26    24    23    1
    27    24    25    1
    28    26    27    1
    29    26    13    2
    30    29    39    2
    31    29    31    1
    32    30    29    1
    33    31    37    1
    34    33    13    1
    35    33    35    1
    36    35    40    1
    37    35    32    1
    38    36    38    1
    39    37    28    1
    40    37    40    2
    41    38    32    1
    42    39    33    1
    43    40    34    1
