@<TRIPOS>MOLECULE
outputs/IAG933/test6/raw/output_5832_IAG933_linker_design_.xyz
 48 53 0 0 0
SMALL
GASTEIGER

@<TRIPOS>ATOM
      1 C         -24.8550   -1.0120   30.1430 C.3     1  UNL1        0.0781
      2 C         -24.9730   -2.5050   29.7880 C.2     1  UNL1       -0.0156
      3 C         -23.9060   -3.1730   29.1460 C.2     1  UNL1       -0.0039
      4 C         -23.9890   -4.5490   28.8530 C.2     1  UNL1       -0.0003
      5 C         -25.1370   -5.2800   29.2050 C.2     1  UNL1       -0.0000
      6 C         -26.2320   -4.6110   29.7840 C.2     1  UNL1       -0.0003
      7 C         -26.1550   -3.2320   30.0650 C.2     1  UNL1       -0.0039
      8 C         -25.3870   -0.6790   31.5710 C.3     1  UNL1        0.0824
      9 C         -25.1890    0.7730   32.0280 C.3     1  UNL1        0.0196
     10 C         -25.3360    0.6840   33.5440 C.3     1  UNL1        0.0203
     11 C         -24.8290   -0.7150   33.9050 C.3     1  UNL1        0.0887
     12 N         -24.7580   -1.4810   32.6460 N.3     1  UNL1       -0.2187
     13 C         -25.6880    1.6140   26.4610 C.3     1  UNL1        0.0918
     14 C         -26.2500    2.9200   26.3950 C.2     1  UNL1        0.0589
     15 C         -25.6420    4.0930   27.1230 C.2     1  UNL1        0.2628
     16 N         -25.6140    5.2520   26.4490 N.am    1  UNL1       -0.2000
     17 C         -25.0260    6.4790   26.9630 C.3     1  UNL1        0.1388
     18 O         -25.1430    3.9660   28.2430 O.2     1  UNL1       -0.2686
     19 C         -27.4380    3.0910   25.6450 C.2     1  UNL1        0.1025
     20 N         -28.0750    2.0890   25.0030 N.2     1  UNL1       -0.2118
     21 C         -27.5430    0.8490   25.0790 C.2     1  UNL1        0.2344
     22 O         -28.1930   -0.2080   24.4770 O.2     1  UNL1       -0.4585
     23 C         -29.4600    0.0050   23.8660 C.3     1  UNL1        0.2423
     24 C         -30.0650   -1.3770   23.5730 C.3     1  UNL1        0.2292
     25 O         -30.7290   -1.8780   24.7210 O.3     1  UNL1       -0.2162
     26 C         -26.3540    0.5760   25.7770 C.3     1  UNL1        0.2440
     27 F         -25.8600   -0.6810   25.7950 F       1  UNL1       -0.2265
     28 C         -29.8497    3.2261   34.0663 C.3     1  UNL1        0.0930
     29 C         -23.4990    1.5343   27.2167 C.ar    1  UNL1       -0.0121
     30 O         -31.9170    3.4125   32.8088 O.2     1  UNL1       -0.2754
     31 C         -28.2139    2.8293   30.0112 C.3     1  UNL1        0.0724
     32 C         -25.6749    0.5969   28.4440 C.ar    1  UNL1       -0.0121
     33 C         -28.5825    2.9215   33.1873 C.3     1  UNL1        0.0238
     34 C         -27.1577    0.6749   28.7950 C.3     1  UNL1        0.0287
     35 C         -29.9702    4.2962   30.9715 C.3     1  UNL1        0.0799
     36 C         -28.0450    1.3490   29.9155 C.3     1  UNL1        0.0217
     37 O         -31.4934    5.0793   34.2849 O.2     1  UNL1       -0.2754
     38 C         -28.7167    0.8841   31.1249 C.3     1  UNL1        0.0177
     39 N         -23.1483    0.2163   29.1894 N.ar    1  UNL1       -0.2543
     40 N         -29.1768    3.0375   30.8542 N.3     1  UNL1       -0.2737
     41 C         -30.8454    4.1949   33.4676 C.3     1  UNL1        0.3530
     42 C         -21.1852    1.3650   27.9871 C.3     1  UNL1        0.0517
     43 C         -29.0523    2.1609   31.9527 C.3     1  UNL1        0.0578
     44 C         -24.7702    1.2502   27.4775 C.ar    1  UNL1       -0.0207
     45 C         -23.0014    2.2616   25.9848 C.3     1  UNL1        0.0319
     46 C         -30.1103    5.0296   32.3820 C.3     1  UNL1        0.1088
     47 C         -24.5331    0.0065   29.2587 C.ar    1  UNL1        0.0593
     48 C         -22.6816    1.0195   28.1617 C.ar    1  UNL1        0.0547
@<TRIPOS>BOND
     1     1    47    1
     2     2     7    1
     3     2     1    1
     4     3     2    2
     5     4     3    1
     6     4     5    2
     7     5     6    1
     8     6     7    2
     9     8     1    1
    10     8     9    1
    11     8    12    1
    12     9    10    1
    13    10    11    1
    14    12    11    1
    15    13    44    1
    16    14    13    1
    17    14    15    1
    18    15    18    2
    19    16    17    1
    20    16    15    1
    21    19    14    2
    22    20    21    2
    23    20    19    1
    24    21    26    1
    25    22    21    1
    26    23    22    1
    27    24    23    1
    28    24    25    1
    29    26    27    1
    30    26    13    1
    31    29    44   ar
    32    29    48   ar
    33    30    41    1
    34    32    34    1
    35    32    47   ar
    36    33    28    1
    37    35    46    1
    38    36    34    1
    39    36    31    1
    40    36    38    1
    41    39    47   ar
    42    40    31    1
    43    40    35    1
    44    40    43    1
    45    41    28    1
    46    41    37    1
    47    42    48    1
    48    43    38    1
    49    43    33    1
    50    44    32   ar
    51    45    29    1
    52    46    41    1
    53    48    39   ar
