@<TRIPOS>MOLECULE
outputs/IAG933/test6/raw/output_5836_IAG933_linker_design_.xyz
 42 45 0 0 0
SMALL
GASTEIGER

@<TRIPOS>ATOM
      1 C         -24.8550   -1.0120   30.1430 C.3     1  UNL1        0.2208
      2 C         -24.9730   -2.5050   29.7880 C.2     1  UNL1        0.0231
      3 C         -23.9060   -3.1730   29.1460 C.2     1  UNL1       -0.0003
      4 C         -23.9890   -4.5490   28.8530 C.2     1  UNL1       -0.0002
      5 C         -25.1370   -5.2800   29.2050 C.2     1  UNL1       -0.0000
      6 C         -26.2320   -4.6110   29.7840 C.2     1  UNL1       -0.0002
      7 C         -26.1550   -3.2320   30.0650 C.2     1  UNL1       -0.0003
      8 C         -25.3870   -0.6790   31.5710 C.3     1  UNL1        0.1219
      9 C         -25.1890    0.7730   32.0280 C.3     1  UNL1        0.0292
     10 C         -25.3360    0.6840   33.5440 C.3     1  UNL1        0.0208
     11 C         -24.8290   -0.7150   33.9050 C.3     1  UNL1        0.0889
     12 N         -24.7580   -1.4810   32.6460 N.3     1  UNL1       -0.2150
     13 C         -25.6880    1.6140   26.4610 C.2     1  UNL1        0.0866
     14 C         -26.2500    2.9200   26.3950 C.2     1  UNL1        0.0784
     15 C         -25.6420    4.0930   27.1230 C.2     1  UNL1        0.2663
     16 N         -25.6140    5.2520   26.4490 N.am    1  UNL1       -0.1997
     17 C         -25.0260    6.4790   26.9630 C.3     1  UNL1        0.1388
     18 O         -25.1430    3.9660   28.2430 O.2     1  UNL1       -0.2683
     19 C         -27.4380    3.0910   25.6450 C.2     1  UNL1        0.1066
     20 N         -28.0750    2.0890   25.0030 N.2     1  UNL1       -0.2081
     21 C         -27.5430    0.8490   25.0790 C.2     1  UNL1        0.2532
     22 O         -28.1930   -0.2080   24.4770 O.2     1  UNL1       -0.4558
     23 C         -29.4600    0.0050   23.8660 C.3     1  UNL1        0.2426
     24 C         -30.0650   -1.3770   23.5730 C.3     1  UNL1        0.2292
     25 O         -30.7290   -1.8780   24.7210 O.3     1  UNL1       -0.2162
     26 C         -26.3540    0.5760   25.7770 C.2     1  UNL1        0.1949
     27 F         -25.8600   -0.6810   25.7950 F       1  UNL1       -0.1994
     28 N         -22.5853   -0.4934   30.3123 N.3     1  UNL1        0.1031
     29 F         -21.0518    0.8324   28.7363 F       1  UNL1       -0.1924
     30 C         -24.5013    1.3294   26.9175 C.3     1  UNL1        0.3464
     31 N         -23.6372   -0.3621   29.7537 N.pl3   1  UNL1       -0.0822
     32 C         -22.2517    0.8912   28.1793 C.2     1  UNL1        0.2667
     33 C         -22.1685    1.6069   27.0154 C.2     1  UNL1        0.2572
     34 F         -21.1397    2.1923   26.5059 F       1  UNL1       -0.1827
     35 N         -23.3339    1.6456   26.3537 N.pl3   1  UNL1       -0.0805
     36 C         -23.4935    0.3707   28.6693 C.2     1  UNL1        0.3720
     37 C         -25.2749    3.2832   32.0158 C.2     1  UNL1        0.1511
     38 F         -23.3250    1.9275   25.0489 F       1  UNL1       -0.1020
     39 N         -24.6116    0.6679   28.0106 N.2     1  UNL1       -0.0367
     40 O         -24.1192    3.5584   31.9737 O.2     1  UNL1       -0.2960
     41 C         -26.1578    4.1639   32.6398 C.3     1  UNL1        0.0722
     42 C         -25.8705    2.0153   31.4923 C.3     1  UNL1        0.0661
@<TRIPOS>BOND
     1     1    31    1
     2     2     7    1
     3     2     1    1
     4     3     2    2
     5     4     3    1
     6     4     5    2
     7     5     6    1
     8     6     7    2
     9     8     1    1
    10     8     9    1
    11     8    12    1
    12     9    42    1
    13     9    10    1
    14    10    11    1
    15    12    11    1
    16    14    13    1
    17    14    15    1
    18    15    18    2
    19    16    17    1
    20    16    15    1
    21    19    14    2
    22    20    21    2
    23    20    19    1
    24    21    26    1
    25    22    21    1
    26    23    22    1
    27    24    23    1
    28    24    25    1
    29    26    27    1
    30    26    13    2
    31    30    13    1
    32    30    39    1
    33    31    28    1
    34    32    36    1
    35    32    29    1
    36    33    32    2
    37    34    33    1
    38    35    30    1
    39    35    33    1
    40    36    31    1
    41    37    41    1
    42    38    35    1
    43    39    36    2
    44    40    37    2
    45    42    37    1
