@<TRIPOS>MOLECULE
outputs/IAG933/test6/raw/output_5849_IAG933_linker_design_.xyz
 41 44 0 0 0
SMALL
GASTEIGER

@<TRIPOS>ATOM
      1 C         -24.8550   -1.0120   30.1430 C.3     1  UNL1        0.1255
      2 C         -24.9730   -2.5050   29.7880 C.2     1  UNL1       -0.0041
      3 C         -23.9060   -3.1730   29.1460 C.2     1  UNL1       -0.0029
      4 C         -23.9890   -4.5490   28.8530 C.2     1  UNL1       -0.0003
      5 C         -25.1370   -5.2800   29.2050 C.2     1  UNL1       -0.0000
      6 C         -26.2320   -4.6110   29.7840 C.2     1  UNL1       -0.0003
      7 C         -26.1550   -3.2320   30.0650 C.2     1  UNL1       -0.0029
      8 C         -25.3870   -0.6790   31.5710 C.3     1  UNL1        0.0939
      9 C         -25.1890    0.7730   32.0280 C.3     1  UNL1        0.0207
     10 C         -25.3360    0.6840   33.5440 C.3     1  UNL1        0.0203
     11 C         -24.8290   -0.7150   33.9050 C.3     1  UNL1        0.0888
     12 N         -24.7580   -1.4810   32.6460 N.3     1  UNL1       -0.2177
     13 C         -25.6880    1.6140   26.4610 C.2     1  UNL1        0.0385
     14 C         -26.2500    2.9200   26.3950 C.2     1  UNL1        0.0764
     15 C         -25.6420    4.0930   27.1230 C.2     1  UNL1        0.2664
     16 N         -25.6140    5.2520   26.4490 N.am    1  UNL1       -0.1997
     17 C         -25.0260    6.4790   26.9630 C.3     1  UNL1        0.1388
     18 O         -25.1430    3.9660   28.2430 O.2     1  UNL1       -0.2683
     19 C         -27.4380    3.0910   25.6450 C.2     1  UNL1        0.1067
     20 N         -28.0750    2.0890   25.0030 N.2     1  UNL1       -0.2081
     21 C         -27.5430    0.8490   25.0790 C.2     1  UNL1        0.2533
     22 O         -28.1930   -0.2080   24.4770 O.2     1  UNL1       -0.4558
     23 C         -29.4600    0.0050   23.8660 C.3     1  UNL1        0.2426
     24 C         -30.0650   -1.3770   23.5730 C.3     1  UNL1        0.2292
     25 O         -30.7290   -1.8780   24.7210 O.3     1  UNL1       -0.2162
     26 C         -26.3540    0.5760   25.7770 C.2     1  UNL1        0.1929
     27 F         -25.8600   -0.6810   25.7950 F       1  UNL1       -0.1992
     28 C         -23.1540    0.8621   29.0821 C.3     1  UNL1        0.1864
     29 C         -24.2931    0.3170   28.1801 C.3     1  UNL1        0.1454
     30 F         -23.9480    0.8752   23.8299 F       1  UNL1       -0.1809
     31 C         -23.1948    1.9431   24.1464 C.3     1  UNL1        0.4034
     32 O         -26.6149   -0.3013   28.5628 O.3     1  UNL1       -0.1173
     33 C         -23.5300    1.7684   26.1830 C.2     1  UNL1        0.1661
     34 F         -21.8906    1.5084   24.6608 F       1  UNL1       -0.2013
     35 C         -21.3856    1.2659   27.0873 C.2     1  UNL1        0.0095
     36 N         -25.3325   -0.0955   29.0715 N.3     1  UNL1       -0.1233
     37 O         -23.9158    2.6314   25.1437 O.2     1  UNL1       -0.4426
     38 C         -21.8942    1.2844   28.3702 C.3     1  UNL1        0.0656
     39 C         -24.5012    1.2610   27.0754 C.2     1  UNL1        0.0361
     40 C         -22.2397    1.5189   25.9809 C.2     1  UNL1        0.1695
     41 F         -22.6874    0.1009   30.1290 F       1  UNL1       -0.2350
@<TRIPOS>BOND
     1     1    36    1
     2     2     7    1
     3     2     1    1
     4     3     2    2
     5     4     3    1
     6     4     5    2
     7     5     6    1
     8     6     7    2
     9     8     1    1
    10     8     9    1
    11     8    12    1
    12     9    10    1
    13    10    11    1
    14    12    11    1
    15    13    39    1
    16    14    13    1
    17    14    15    1
    18    15    18    2
    19    16    17    1
    20    16    15    1
    21    19    14    2
    22    20    21    2
    23    20    19    1
    24    21    26    1
    25    22    21    1
    26    23    22    1
    27    24    23    1
    28    24    25    1
    29    26    27    1
    30    26    13    2
    31    28    41    1
    32    29    36    1
    33    29    28    1
    34    30    31    1
    35    31    37    1
    36    32    36    1
    37    33    39    2
    38    34    40    1
    39    35    38    1
    40    37    33    1
    41    38    28    1
    42    39    29    1
    43    40    33    1
    44    40    35    2
