@<TRIPOS>MOLECULE
outputs/IAG933/test6/raw/output_5852_IAG933_linker_design_.xyz
 47 51 0 0 0
SMALL
GASTEIGER

@<TRIPOS>ATOM
      1 C         -24.8550   -1.0120   30.1430 C.3     1  UNL1        0.1306
      2 C         -24.9730   -2.5050   29.7880 C.2     1  UNL1       -0.0013
      3 C         -23.9060   -3.1730   29.1460 C.2     1  UNL1       -0.0026
      4 C         -23.9890   -4.5490   28.8530 C.2     1  UNL1       -0.0003
      5 C         -25.1370   -5.2800   29.2050 C.2     1  UNL1       -0.0000
      6 C         -26.2320   -4.6110   29.7840 C.2     1  UNL1       -0.0003
      7 C         -26.1550   -3.2320   30.0650 C.2     1  UNL1       -0.0026
      8 C         -25.3870   -0.6790   31.5710 C.3     1  UNL1        0.0968
      9 C         -25.1890    0.7730   32.0280 C.3     1  UNL1        0.0210
     10 C         -25.3360    0.6840   33.5440 C.3     1  UNL1        0.0203
     11 C         -24.8290   -0.7150   33.9050 C.3     1  UNL1        0.0888
     12 N         -24.7580   -1.4810   32.6460 N.3     1  UNL1       -0.2174
     13 C         -25.6880    1.6140   26.4610 C.2     1  UNL1        0.0404
     14 C         -26.2500    2.9200   26.3950 C.2     1  UNL1        0.0744
     15 C         -25.6420    4.0930   27.1230 C.2     1  UNL1        0.2219
     16 N         -25.6140    5.2520   26.4490 N.2     1  UNL1       -0.2357
     17 C         -25.0260    6.4790   26.9630 C.3     1  UNL1        0.1550
     18 O         -25.1430    3.9660   28.2430 O.2     1  UNL1       -0.4601
     19 C         -27.4380    3.0910   25.6450 C.2     1  UNL1        0.1068
     20 N         -28.0750    2.0890   25.0030 N.2     1  UNL1       -0.2081
     21 C         -27.5430    0.8490   25.0790 C.2     1  UNL1        0.2533
     22 O         -28.1930   -0.2080   24.4770 O.2     1  UNL1       -0.4558
     23 C         -29.4600    0.0050   23.8660 C.3     1  UNL1        0.2426
     24 C         -30.0650   -1.3770   23.5730 C.3     1  UNL1        0.2292
     25 O         -30.7290   -1.8780   24.7210 O.3     1  UNL1       -0.2162
     26 C         -26.3540    0.5760   25.7770 C.2     1  UNL1        0.1931
     27 F         -25.8600   -0.6810   25.7950 F       1  UNL1       -0.1992
     28 C         -27.1997    5.8728   33.1423 C.2     1  UNL1       -0.0154
     29 C         -24.3415    0.5270   28.3499 C.2     1  UNL1        0.1077
     30 C         -23.1366    1.7604   26.7790 C.2     1  UNL1        0.0897
     31 C         -27.3213    7.1809   32.7671 C.3     1  UNL1        0.0485
     32 C         -27.7727    8.9189   31.0894 C.3     1  UNL1        0.0267
     33 BR        -27.8401    3.1792   32.7649 Br      1  UNL1       -0.0497
     34 C         -22.3061    1.3451   27.7727 C.2     1  UNL1        0.1906
     35 F         -20.9618    1.6030   27.8878 F       1  UNL1       -0.1998
     36 C         -27.0784    7.7193   31.5041 C.2     1  UNL1       -0.0395
     37 N         -25.3645   -0.1001   29.0752 N.pl3   1  UNL1       -0.2302
     38 C         -22.9871    0.5868   28.7072 C.2     1  UNL1        0.2383
     39 C         -26.8861    4.7414   32.3352 C.2     1  UNL1        0.0268
     40 CL        -22.6184    2.6068   25.3785 Cl      1  UNL1       -0.0797
     41 C         -25.3645    3.1567   29.3004 C.3     1  UNL1        0.2118
     42 C         -24.3983    1.3759   27.1335 C.2     1  UNL1        0.0335
     43 C         -26.1972    7.2224   30.5605 C.2     1  UNL1       -0.0085
     44 C         -25.6277    3.4178   30.7020 C.3     1  UNL1        0.0742
     45 C         -26.0967    4.7487   31.1911 C.2     1  UNL1       -0.0125
     46 O         -22.4410    0.0719   29.7269 O.2     1  UNL1       -0.2827
     47 C         -25.7405    5.9170   30.4307 C.2     1  UNL1       -0.0043
@<TRIPOS>BOND
     1     1    37    1
     2     2     7    1
     3     2     1    1
     4     3     2    2
     5     4     3    1
     6     4     5    2
     7     5     6    1
     8     6     7    2
     9     8     1    1
    10     8     9    1
    11     8    12    1
    12     9    10    1
    13    10    11    1
    14    12    11    1
    15    13    42    1
    16    14    13    1
    17    14    15    1
    18    15    18    1
    19    16    17    1
    20    16    15    2
    21    18    41    1
    22    19    14    2
    23    20    21    2
    24    20    19    1
    25    21    26    1
    26    22    21    1
    27    23    22    1
    28    24    23    1
    29    24    25    1
    30    26    27    1
    31    26    13    2
    32    29    38    1
    33    29    37    1
    34    30    42    1
    35    30    34    2
    36    31    28    1
    37    32    36    1
    38    34    35    1
    39    34    38    1
    40    36    31    1
    41    38    46    2
    42    39    33    1
    43    39    28    2
    44    40    30    1
    45    41    44    1
    46    42    29    2
    47    43    36    2
    48    44    45    1
    49    45    39    1
    50    47    43    1
    51    47    45    2
