@<TRIPOS>MOLECULE
outputs/IAG933/test6/raw/output_5854_IAG933_linker_design_.xyz
 45 49 0 0 0
SMALL
GASTEIGER

@<TRIPOS>ATOM
      1 C         -24.8550   -1.0120   30.1430 C.3     1  UNL1        0.1113
      2 C         -24.9730   -2.5050   29.7880 C.2     1  UNL1       -0.0030
      3 C         -23.9060   -3.1730   29.1460 C.2     1  UNL1       -0.0026
      4 C         -23.9890   -4.5490   28.8530 C.2     1  UNL1       -0.0003
      5 C         -25.1370   -5.2800   29.2050 C.2     1  UNL1       -0.0000
      6 C         -26.2320   -4.6110   29.7840 C.2     1  UNL1       -0.0003
      7 C         -26.1550   -3.2320   30.0650 C.2     1  UNL1       -0.0026
      8 C         -25.3870   -0.6790   31.5710 C.3     1  UNL1        0.0950
      9 C         -25.1890    0.7730   32.0280 C.3     1  UNL1        0.0209
     10 C         -25.3360    0.6840   33.5440 C.3     1  UNL1        0.0203
     11 C         -24.8290   -0.7150   33.9050 C.3     1  UNL1        0.0888
     12 N         -24.7580   -1.4810   32.6460 N.3     1  UNL1       -0.2174
     13 C         -25.6880    1.6140   26.4610 C.2     1  UNL1        0.0414
     14 C         -26.2500    2.9200   26.3950 C.2     1  UNL1        0.0767
     15 C         -25.6420    4.0930   27.1230 C.2     1  UNL1        0.2664
     16 N         -25.6140    5.2520   26.4490 N.am    1  UNL1       -0.1997
     17 C         -25.0260    6.4790   26.9630 C.3     1  UNL1        0.1388
     18 O         -25.1430    3.9660   28.2430 O.2     1  UNL1       -0.2683
     19 C         -27.4380    3.0910   25.6450 C.2     1  UNL1        0.1067
     20 N         -28.0750    2.0890   25.0030 N.2     1  UNL1       -0.2081
     21 C         -27.5430    0.8490   25.0790 C.2     1  UNL1        0.2533
     22 O         -28.1930   -0.2080   24.4770 O.2     1  UNL1       -0.4558
     23 C         -29.4600    0.0050   23.8660 C.3     1  UNL1        0.2426
     24 C         -30.0650   -1.3770   23.5730 C.3     1  UNL1        0.2292
     25 O         -30.7290   -1.8780   24.7210 O.3     1  UNL1       -0.2162
     26 C         -26.3540    0.5760   25.7770 C.2     1  UNL1        0.1932
     27 F         -25.8600   -0.6810   25.7950 F       1  UNL1       -0.1992
     28 C         -31.2834    0.9973   31.0247 C.3     1  UNL1        0.1424
     29 C         -21.8074    1.6810   27.2401 C.2     1  UNL1        0.0297
     30 C         -22.8782    0.5051   29.0631 C.2     1  UNL1        0.0147
     31 F         -22.9060    2.1794   25.2919 F       1  UNL1       -0.2041
     32 C         -24.2974    1.3302   27.0938 C.2     1  UNL1        0.0433
     33 O         -31.2497    1.8090   29.9014 O.3     1  UNL1       -0.3511
     34 O         -30.3795   -0.3809   27.4132 O.3     1  UNL1       -0.2205
     35 C         -31.0037   -0.2294   28.7123 C.3     1  UNL1        0.1814
     36 C         -30.0564   -0.7626   29.6077 C.3     1  UNL1        0.0355
     37 C         -28.5648   -0.9084   29.3406 C.3     1  UNL1        0.0044
     38 C         -22.9942    1.7129   26.5545 C.2     1  UNL1        0.1413
     39 C         -26.4945    0.7444   29.2342 C.3     1  UNL1        0.0911
     40 C         -24.1351    0.6189   28.4920 C.2     1  UNL1        0.0503
     41 N         -25.2016   -0.0244   29.1625 N.pl3   1  UNL1       -0.3040
     42 C         -21.7434    1.1268   28.5097 C.2     1  UNL1        0.0036
     43 C         -31.7311    1.1047   28.7599 C.3     1  UNL1        0.1748
     44 C         -30.2135   -0.1532   31.0662 C.3     1  UNL1        0.0347
     45 C         -27.8786    0.4204   29.6003 C.3     1  UNL1        0.0215
@<TRIPOS>BOND
     1     1    41    1
     2     2     7    1
     3     2     1    1
     4     3     2    2
     5     4     3    1
     6     4     5    2
     7     5     6    1
     8     6     7    2
     9     8     1    1
    10     8     9    1
    11     8    12    1
    12     9    10    1
    13    10    11    1
    14    12    11    1
    15    13    32    1
    16    14    13    1
    17    14    15    1
    18    15    18    2
    19    16    17    1
    20    16    15    1
    21    19    14    2
    22    20    21    2
    23    20    19    1
    24    21    26    1
    25    22    21    1
    26    23    22    1
    27    24    23    1
    28    24    25    1
    29    26    27    1
    30    26    13    2
    31    28    44    1
    32    29    42    1
    33    31    38    1
    34    32    40    2
    35    33    28    1
    36    35    34    1
    37    35    43    1
    38    35    36    1
    39    36    37    1
    40    36    44    1
    41    37    45    1
    42    38    32    1
    43    38    29    2
    44    39    45    1
    45    40    30    1
    46    40    41    1
    47    41    39    1
    48    42    30    2
    49    43    33    1
