@<TRIPOS>MOLECULE
outputs/IAG933/test6/raw/output_5859_IAG933_linker_design_.xyz
 44 47 0 0 0
SMALL
GASTEIGER

@<TRIPOS>ATOM
      1 C         -24.8550   -1.0120   30.1430 C.3     1  UNL1        0.1534
      2 C         -24.9730   -2.5050   29.7880 C.2     1  UNL1        0.0059
      3 C         -23.9060   -3.1730   29.1460 C.2     1  UNL1       -0.0019
      4 C         -23.9890   -4.5490   28.8530 C.2     1  UNL1       -0.0002
      5 C         -25.1370   -5.2800   29.2050 C.2     1  UNL1       -0.0000
      6 C         -26.2320   -4.6110   29.7840 C.2     1  UNL1       -0.0002
      7 C         -26.1550   -3.2320   30.0650 C.2     1  UNL1       -0.0019
      8 C         -25.3870   -0.6790   31.5710 C.3     1  UNL1        0.1041
      9 C         -25.1890    0.7730   32.0280 C.3     1  UNL1        0.0217
     10 C         -25.3360    0.6840   33.5440 C.3     1  UNL1        0.0203
     11 C         -24.8290   -0.7150   33.9050 C.3     1  UNL1        0.0888
     12 N         -24.7580   -1.4810   32.6460 N.3     1  UNL1       -0.2166
     13 C         -25.6880    1.6140   26.4610 C.2     1  UNL1        0.0254
     14 C         -26.2500    2.9200   26.3950 C.2     1  UNL1        0.0709
     15 C         -25.6420    4.0930   27.1230 C.2     1  UNL1        0.2242
     16 N         -25.6140    5.2520   26.4490 N.2     1  UNL1       -0.2356
     17 C         -25.0260    6.4790   26.9630 C.3     1  UNL1        0.1550
     18 O         -25.1430    3.9660   28.2430 O.2     1  UNL1       -0.4281
     19 C         -27.4380    3.0910   25.6450 C.2     1  UNL1        0.1065
     20 N         -28.0750    2.0890   25.0030 N.2     1  UNL1       -0.2081
     21 C         -27.5430    0.8490   25.0790 C.2     1  UNL1        0.2530
     22 O         -28.1930   -0.2080   24.4770 O.2     1  UNL1       -0.4558
     23 C         -29.4600    0.0050   23.8660 C.3     1  UNL1        0.2426
     24 C         -30.0650   -1.3770   23.5730 C.3     1  UNL1        0.2292
     25 O         -30.7290   -1.8780   24.7210 O.3     1  UNL1       -0.2162
     26 C         -26.3540    0.5760   25.7770 C.2     1  UNL1        0.1896
     27 F         -25.8600   -0.6810   25.7950 F       1  UNL1       -0.1996
     28 O         -24.9142    3.9724   31.7174 O.3     1  UNL1       -0.4401
     29 O         -24.4597    2.2981   29.4457 O.3     1  UNL1       -0.3112
     30 C         -25.6722    4.2035   30.6317 C.2     1  UNL1        0.3892
     31 O         -23.6237    2.5292   24.6302 O.3     1  UNL1        0.0281
     32 C         -22.8024    1.6961   26.6755 C.2     1  UNL1        0.1953
     33 C         -22.2044    0.8038   28.9402 C.3     1  UNL1        0.2520
     34 C         -25.2085    4.6257   32.9600 C.3     1  UNL1        0.2558
     35 O         -25.5760   -0.3607   29.2088 O.3     1  UNL1       -0.3478
     36 C         -25.4612    3.3222   29.4443 C.3     1  UNL1        0.3923
     37 F         -20.6095    1.3883   27.5381 F       1  UNL1       -0.2029
     38 C         -24.2909    1.4240   27.0337 C.3     1  UNL1        0.1174
     39 F         -22.1594   -0.2217   29.3783 F       1  UNL1       -0.2264
     40 O         -26.4673    5.1607   30.5818 O.2     1  UNL1       -0.2430
     41 C         -21.9369    1.2912   27.6680 C.2     1  UNL1        0.1870
     42 O         -22.4557    2.2815   25.5513 O.2     1  UNL1       -0.3050
     43 C         -24.4571    1.3375   28.3020 C.3     1  UNL1        0.1602
     44 C         -24.6129    0.2404   28.3254 C.3     1  UNL1        0.1728
@<TRIPOS>BOND
     1     1    35    1
     2     2     7    1
     3     2     1    1
     4     3     2    2
     5     4     3    1
     6     4     5    2
     7     5     6    1
     8     6     7    2
     9     8     1    1
    10     8     9    1
    11     8    12    1
    12     9    10    1
    13    10    11    1
    14    12    11    1
    15    13    38    1
    16    14    13    1
    17    14    15    1
    18    15    18    1
    19    16    17    1
    20    16    15    2
    21    18    36    1
    22    19    14    2
    23    20    21    2
    24    20    19    1
    25    21    26    1
    26    22    21    1
    27    23    22    1
    28    24    23    1
    29    24    25    1
    30    26    27    1
    31    26    13    2
    32    28    34    1
    33    30    28    1
    34    31    42    1
    35    32    41    2
    36    33    39    1
    37    36    29    1
    38    36    30    1
    39    37    41    1
    40    38    32    1
    41    38    43    1
    42    40    30    2
    43    41    33    1
    44    42    32    1
    45    43    44    1
    46    43    29    1
    47    44    35    1
