@<TRIPOS>MOLECULE
outputs/IAG933/test6/raw/output_5861_IAG933_linker_design_.xyz
 44 46 0 0 0
SMALL
GASTEIGER

@<TRIPOS>ATOM
      1 C         -24.8550   -1.0120   30.1430 C.3     1  UNL1        0.0487
      2 C         -24.9730   -2.5050   29.7880 C.2     1  UNL1       -0.0206
      3 C         -23.9060   -3.1730   29.1460 C.2     1  UNL1       -0.0042
      4 C         -23.9890   -4.5490   28.8530 C.2     1  UNL1       -0.0003
      5 C         -25.1370   -5.2800   29.2050 C.2     1  UNL1       -0.0000
      6 C         -26.2320   -4.6110   29.7840 C.2     1  UNL1       -0.0003
      7 C         -26.1550   -3.2320   30.0650 C.2     1  UNL1       -0.0042
      8 C         -25.3870   -0.6790   31.5710 C.3     1  UNL1        0.0773
      9 C         -25.1890    0.7730   32.0280 C.3     1  UNL1        0.0192
     10 C         -25.3360    0.6840   33.5440 C.3     1  UNL1        0.0202
     11 C         -24.8290   -0.7150   33.9050 C.3     1  UNL1        0.0887
     12 N         -24.7580   -1.4810   32.6460 N.3     1  UNL1       -0.2191
     13 C         -25.6880    1.6140   26.4610 C.2     1  UNL1        0.0864
     14 C         -26.2500    2.9200   26.3950 C.2     1  UNL1        0.0899
     15 C         -25.6420    4.0930   27.1230 C.2     1  UNL1        0.2676
     16 N         -25.6140    5.2520   26.4490 N.am    1  UNL1       -0.1997
     17 C         -25.0260    6.4790   26.9630 C.3     1  UNL1        0.1388
     18 O         -25.1430    3.9660   28.2430 O.2     1  UNL1       -0.2683
     19 C         -27.4380    3.0910   25.6450 C.2     1  UNL1        0.1080
     20 N         -28.0750    2.0890   25.0030 N.2     1  UNL1       -0.2080
     21 C         -27.5430    0.8490   25.0790 C.2     1  UNL1        0.2546
     22 O         -28.1930   -0.2080   24.4770 O.2     1  UNL1       -0.4558
     23 C         -29.4600    0.0050   23.8660 C.3     1  UNL1        0.2426
     24 C         -30.0650   -1.3770   23.5730 C.3     1  UNL1        0.2292
     25 O         -30.7290   -1.8780   24.7210 O.3     1  UNL1       -0.2162
     26 C         -26.3540    0.5760   25.7770 C.2     1  UNL1        0.2062
     27 F         -25.8600   -0.6810   25.7950 F       1  UNL1       -0.1979
     28 C         -29.3112    2.9931   30.4406 C.3     1  UNL1        0.1574
     29 S         -29.7576    3.5649   32.0960 S.3     1  UNL1        0.0226
     30 C         -27.9491    2.7965   30.2764 C.3     1  UNL1        0.1391
     31 N         -27.3254    1.5590   29.6547 N.am    1  UNL1       -0.2035
     32 C         -27.0632    0.2933   29.1234 C.2     1  UNL1        0.2430
     33 O         -30.0367    2.2751   32.7895 O.3     1  UNL1       -0.0695
     34 C         -22.1766    2.0637   26.8693 C.3     1  UNL1        0.0232
     35 C         -30.1099    1.9000   29.6194 C.3     1  UNL1        0.0278
     36 O         -30.8261    4.5801   31.9488 O.3     1  UNL1       -0.0695
     37 C         -23.5168    1.5537   26.2368 C.3     1  UNL1        0.0909
     38 O         -22.7022    0.7138   29.5301 O.3     1  UNL1       -0.2186
     39 C         -23.3853    0.1151   28.3569 C.3     1  UNL1        0.2021
     40 C         -25.5218   -0.0898   29.0561 C.3     1  UNL1        0.1042
     41 C         -24.7289    0.5221   28.2673 C.3     1  UNL1        0.1147
     42 O         -27.8085   -0.4958   28.6456 O.2     1  UNL1       -0.2733
     43 N         -24.6171    1.2554   27.1816 N.pl3   1  UNL1       -0.3040
     44 O         -28.5731    4.3140   32.6880 O.3     1  UNL1       -0.0695
@<TRIPOS>BOND
     1     1    40    1
     2     2     7    1
     3     2     1    1
     4     3     2    2
     5     4     3    1
     6     4     5    2
     7     5     6    1
     8     6     7    2
     9     8     1    1
    10     8     9    1
    11     8    12    1
    12     9    10    1
    13    10    11    1
    14    12    11    1
    15    13    43    1
    16    14    13    1
    17    14    15    1
    18    15    18    2
    19    16    17    1
    20    16    15    1
    21    19    14    2
    22    20    21    2
    23    20    19    1
    24    21    26    1
    25    22    21    1
    26    23    22    1
    27    24    23    1
    28    24    25    1
    29    26    27    1
    30    26    13    2
    31    28    35    1
    32    28    29    1
    33    29    44    1
    34    29    33    1
    35    30    28    1
    36    31    30    1
    37    32    31    1
    38    36    29    1
    39    37    34    1
    40    37    43    1
    41    39    38    1
    42    40    32    1
    43    41    39    1
    44    41    40    1
    45    42    32    2
    46    43    41    1
