@<TRIPOS>MOLECULE
outputs/IAG933/test6/raw/output_5863_IAG933_linker_design_.xyz
 44 49 0 0 0
SMALL
GASTEIGER

@<TRIPOS>ATOM
      1 C         -24.8550   -1.0120   30.1430 C.3     1  UNL1        0.0734
      2 C         -24.9730   -2.5050   29.7880 C.2     1  UNL1       -0.0180
      3 C         -23.9060   -3.1730   29.1460 C.2     1  UNL1       -0.0041
      4 C         -23.9890   -4.5490   28.8530 C.2     1  UNL1       -0.0003
      5 C         -25.1370   -5.2800   29.2050 C.2     1  UNL1       -0.0000
      6 C         -26.2320   -4.6110   29.7840 C.2     1  UNL1       -0.0003
      7 C         -26.1550   -3.2320   30.0650 C.2     1  UNL1       -0.0041
      8 C         -25.3870   -0.6790   31.5710 C.3     1  UNL1        0.0799
      9 C         -25.1890    0.7730   32.0280 C.3     1  UNL1        0.0193
     10 C         -25.3360    0.6840   33.5440 C.3     1  UNL1        0.0202
     11 C         -24.8290   -0.7150   33.9050 C.3     1  UNL1        0.0887
     12 N         -24.7580   -1.4810   32.6460 N.3     1  UNL1       -0.2190
     13 C         -25.6880    1.6140   26.4610 C.2     1  UNL1        0.0377
     14 C         -26.2500    2.9200   26.3950 C.2     1  UNL1        0.0763
     15 C         -25.6420    4.0930   27.1230 C.2     1  UNL1        0.2664
     16 N         -25.6140    5.2520   26.4490 N.am    1  UNL1       -0.1997
     17 C         -25.0260    6.4790   26.9630 C.3     1  UNL1        0.1388
     18 O         -25.1430    3.9660   28.2430 O.2     1  UNL1       -0.2683
     19 C         -27.4380    3.0910   25.6450 C.2     1  UNL1        0.1067
     20 N         -28.0750    2.0890   25.0030 N.2     1  UNL1       -0.2081
     21 C         -27.5430    0.8490   25.0790 C.2     1  UNL1        0.2533
     22 O         -28.1930   -0.2080   24.4770 O.2     1  UNL1       -0.4558
     23 C         -29.4600    0.0050   23.8660 C.3     1  UNL1        0.2426
     24 C         -30.0650   -1.3770   23.5730 C.3     1  UNL1        0.2292
     25 O         -30.7290   -1.8780   24.7210 O.3     1  UNL1       -0.2162
     26 C         -26.3540    0.5760   25.7770 C.2     1  UNL1        0.1929
     27 F         -25.8600   -0.6810   25.7950 F       1  UNL1       -0.1992
     28 O         -22.4488    2.5994   25.7866 O.2     1  UNL1       -0.2938
     29 O         -25.9162    1.5850   29.5284 O.3     1  UNL1       -0.3466
     30 C         -27.7950    3.3042   29.7466 C.3     1  UNL1        0.1006
     31 C         -25.3936    0.0622   29.1149 C.3     1  UNL1        0.1446
     32 C         -30.3097    2.1441   29.0711 C.3     1  UNL1        0.0810
     33 C         -28.3508    0.3464   28.7051 C.3     1  UNL1        0.1270
     34 C         -24.3912    1.2755   27.0661 C.2     1  UNL1        0.0285
     35 O         -28.7197    1.5944   31.3551 O.3     1  UNL1       -0.1701
     36 S         -28.7589    1.8392   29.7638 S.3     1  UNL1       -0.0583
     37 C         -23.0916    1.7709   26.7168 C.2     1  UNL1        0.2204
     38 C         -24.1863    0.4378   28.1996 C.3     1  UNL1        0.0856
     39 C         -22.7753    0.4073   28.5759 C.2     1  UNL1        0.0256
     40 O         -21.0379    1.9059   27.4205 O.2     1  UNL1       -0.2938
     41 C         -22.3162    1.3195   27.6734 C.2     1  UNL1        0.2202
     42 C         -26.4075    2.8353   30.3081 C.3     1  UNL1        0.1555
     43 S         -26.9537   -0.5736   28.4329 S.3     1  UNL1       -0.1013
     44 O         -21.1902    2.4277   26.1062 O.3     1  UNL1        0.0427
@<TRIPOS>BOND
     1     1     2    1
     2     2     7    1
     3     3     2    2
     4     4     3    1
     5     4     5    2
     6     5     6    1
     7     6     7    2
     8     8     1    1
     9     8     9    1
    10     8    12    1
    11     9    10    1
    12    10    11    1
    13    12    11    1
    14    13    34    1
    15    14    13    1
    16    14    15    1
    17    15    18    2
    18    16    17    1
    19    16    15    1
    20    19    14    2
    21    20    21    2
    22    20    19    1
    23    21    26    1
    24    22    21    1
    25    23    22    1
    26    24    23    1
    27    24    25    1
    28    26    27    1
    29    26    13    2
    30    28    44    1
    31    28    37    1
    32    29    42    1
    33    30    36    1
    34    30    42    1
    35    31    29    1
    36    31     1    1
    37    33    36    1
    38    34    38    1
    39    36    32    1
    40    36    35    1
    41    37    34    2
    42    37    41    1
    43    38    39    1
    44    38    31    1
    45    40    41    1
    46    41    39    2
    47    43    33    1
    48    43    31    1
    49    44    40    1
