@<TRIPOS>MOLECULE
outputs/IAG933/test6/raw/output_5865_IAG933_linker_design_.xyz
 40 43 0 0 0
SMALL
GASTEIGER

@<TRIPOS>ATOM
      1 C         -24.8550   -1.0120   30.1430 C.3     1  UNL1        0.0736
      2 C         -24.9730   -2.5050   29.7880 C.2     1  UNL1       -0.0181
      3 C         -23.9060   -3.1730   29.1460 C.2     1  UNL1       -0.0041
      4 C         -23.9890   -4.5490   28.8530 C.2     1  UNL1       -0.0003
      5 C         -25.1370   -5.2800   29.2050 C.2     1  UNL1       -0.0000
      6 C         -26.2320   -4.6110   29.7840 C.2     1  UNL1       -0.0003
      7 C         -26.1550   -3.2320   30.0650 C.2     1  UNL1       -0.0041
      8 C         -25.3870   -0.6790   31.5710 C.3     1  UNL1        0.0798
      9 C         -25.1890    0.7730   32.0280 C.3     1  UNL1        0.0193
     10 C         -25.3360    0.6840   33.5440 C.3     1  UNL1        0.0202
     11 C         -24.8290   -0.7150   33.9050 C.3     1  UNL1        0.0887
     12 N         -24.7580   -1.4810   32.6460 N.3     1  UNL1       -0.2190
     13 C         -25.6880    1.6140   26.4610 C.3     1  UNL1        0.0936
     14 C         -26.2500    2.9200   26.3950 C.2     1  UNL1        0.0589
     15 C         -25.6420    4.0930   27.1230 C.2     1  UNL1        0.2628
     16 N         -25.6140    5.2520   26.4490 N.am    1  UNL1       -0.2000
     17 C         -25.0260    6.4790   26.9630 C.3     1  UNL1        0.1388
     18 O         -25.1430    3.9660   28.2430 O.2     1  UNL1       -0.2686
     19 C         -27.4380    3.0910   25.6450 C.2     1  UNL1        0.1025
     20 N         -28.0750    2.0890   25.0030 N.2     1  UNL1       -0.2118
     21 C         -27.5430    0.8490   25.0790 C.2     1  UNL1        0.2344
     22 O         -28.1930   -0.2080   24.4770 O.2     1  UNL1       -0.4585
     23 C         -29.4600    0.0050   23.8660 C.3     1  UNL1        0.2423
     24 C         -30.0650   -1.3770   23.5730 C.3     1  UNL1        0.2292
     25 O         -30.7290   -1.8780   24.7210 O.3     1  UNL1       -0.2162
     26 C         -26.3540    0.5760   25.7770 C.3     1  UNL1        0.2440
     27 F         -25.8600   -0.6810   25.7950 F       1  UNL1       -0.2265
     28 C         -24.0256    0.9434   27.7816 C.2     1  UNL1        0.0632
     29 O         -29.1299   -1.4983   29.3456 O.3     1  UNL1       -0.2005
     30 C         -22.7220    1.0984   28.2404 C.2     1  UNL1        0.0158
     31 C         -24.3780    1.6103   26.6478 C.2     1  UNL1       -0.0001
     32 C         -22.0722    2.0939   26.1467 C.2     1  UNL1       -0.0002
     33 N         -25.0081    0.2169   28.2824 N.pl3   1  UNL1       -0.2228
     34 C         -21.7638    1.6302   27.4067 C.2     1  UNL1        0.0013
     35 C         -28.7778   -0.4447   28.5235 C.3     1  UNL1        0.2602
     36 C         -29.1724    1.8079   29.8408 C.3     1  UNL1        0.0189
     37 C         -25.6621   -0.2079   29.1400 C.3     1  UNL1        0.1589
     38 N         -27.4539    0.1448   29.1138 N.3     1  UNL1       -0.2286
     39 C         -27.7192    1.5729   29.4286 C.3     1  UNL1        0.0760
     40 C         -23.4110    2.1032   25.7789 C.2     1  UNL1       -0.0026
@<TRIPOS>BOND
     1     1    37    1
     2     2     7    1
     3     2     1    1
     4     3     2    2
     5     4     3    1
     6     4     5    2
     7     5     6    1
     8     6     7    2
     9     8     1    1
    10     8     9    1
    11     8    12    1
    12     9    10    1
    13    10    11    1
    14    12    11    1
    15    13    31    1
    16    14    13    1
    17    14    15    1
    18    15    18    2
    19    16    17    1
    20    16    15    1
    21    19    14    2
    22    20    21    2
    23    20    19    1
    24    21    26    1
    25    22    21    1
    26    23    22    1
    27    24    23    1
    28    24    25    1
    29    26    27    1
    30    26    13    1
    31    28    30    1
    32    28    33    1
    33    31    28    2
    34    32    34    1
    35    34    30    2
    36    35    38    1
    37    35    29    1
    38    37    33    1
    39    38    37    1
    40    38    39    1
    41    39    36    1
    42    40    32    2
    43    40    31    1
