@<TRIPOS>MOLECULE
outputs/IAG933/test6/raw/output_5871_IAG933_linker_design_.xyz
 44 47 0 0 0
SMALL
GASTEIGER

@<TRIPOS>ATOM
      1 C         -24.8550   -1.0120   30.1430 C.3     1  UNL1        0.0438
      2 C         -24.9730   -2.5050   29.7880 C.2     1  UNL1       -0.0208
      3 C         -23.9060   -3.1730   29.1460 C.2     1  UNL1       -0.0042
      4 C         -23.9890   -4.5490   28.8530 C.2     1  UNL1       -0.0003
      5 C         -25.1370   -5.2800   29.2050 C.2     1  UNL1       -0.0000
      6 C         -26.2320   -4.6110   29.7840 C.2     1  UNL1       -0.0003
      7 C         -26.1550   -3.2320   30.0650 C.2     1  UNL1       -0.0042
      8 C         -25.3870   -0.6790   31.5710 C.3     1  UNL1        0.0811
      9 C         -25.1890    0.7730   32.0280 C.3     1  UNL1        0.0650
     10 C         -25.3360    0.6840   33.5440 C.3     1  UNL1        0.0243
     11 C         -24.8290   -0.7150   33.9050 C.3     1  UNL1        0.0888
     12 N         -24.7580   -1.4810   32.6460 N.3     1  UNL1       -0.2190
     13 C         -25.6880    1.6140   26.4610 C.2     1  UNL1        0.1058
     14 C         -26.2500    2.9200   26.3950 C.2     1  UNL1        0.0915
     15 C         -25.6420    4.0930   27.1230 C.2     1  UNL1        0.2677
     16 N         -25.6140    5.2520   26.4490 N.am    1  UNL1       -0.1997
     17 C         -25.0260    6.4790   26.9630 C.3     1  UNL1        0.1388
     18 O         -25.1430    3.9660   28.2430 O.2     1  UNL1       -0.2683
     19 C         -27.4380    3.0910   25.6450 C.2     1  UNL1        0.1080
     20 N         -28.0750    2.0890   25.0030 N.2     1  UNL1       -0.2080
     21 C         -27.5430    0.8490   25.0790 C.2     1  UNL1        0.2546
     22 O         -28.1930   -0.2080   24.4770 O.2     1  UNL1       -0.4558
     23 C         -29.4600    0.0050   23.8660 C.3     1  UNL1        0.2426
     24 C         -30.0650   -1.3770   23.5730 C.3     1  UNL1        0.2292
     25 O         -30.7290   -1.8780   24.7210 O.3     1  UNL1       -0.2162
     26 C         -26.3540    0.5760   25.7770 C.2     1  UNL1        0.2078
     27 F         -25.8600   -0.6810   25.7950 F       1  UNL1       -0.1979
     28 C         -22.8542    1.2129   29.3697 C.2     1  UNL1        0.3937
     29 C         -23.3089    1.6595   27.0039 C.3     1  UNL1        0.2211
     30 O         -22.7938    1.6764   25.6953 O.3     1  UNL1       -0.3332
     31 C         -24.1475    1.7043   31.3872 C.3     1  UNL1        0.2105
     32 C         -24.0935    3.1197   31.8337 C.3     1  UNL1        0.0785
     33 N         -24.1695    1.7045   29.8313 N.pl3   1  UNL1       -0.0355
     34 C         -27.2962    5.7885   32.8451 C.3     1  UNL1        0.1175
     35 N         -24.5646    1.4656   27.1145 N.pl3   1  UNL1       -0.2075
     36 N         -22.2007    0.1624   30.0459 N.2     1  UNL1        0.1919
     37 C         -27.4487    5.0442   31.6675 C.2     1  UNL1       -0.0050
     38 C         -22.2907    1.6688   28.0120 C.3     1  UNL1        0.1781
     39 C         -25.2789    4.0228   32.0747 C.2     1  UNL1       -0.0038
     40 C         -26.0005    6.6450   34.6729 C.3     1  UNL1        0.1125
     41 N         -26.0938    5.7367   33.5110 N.pl3   1  UNL1       -0.3011
     42 C         -22.8733    2.6291   24.8552 C.3     1  UNL1        0.1761
     43 C         -26.4693    4.0970   31.3368 C.2     1  UNL1       -0.0057
     44 C         -25.0401    4.9228   33.1050 C.2     1  UNL1        0.0574
@<TRIPOS>BOND
     1     2     7    1
     2     2     1    1
     3     3     2    2
     4     4     3    1
     5     4     5    2
     6     5     6    1
     7     6     7    2
     8     8     1    1
     9     8     9    1
    10     8    12    1
    11     9    31    1
    12     9    10    1
    13    10    11    1
    14    12    11    1
    15    13    35    1
    16    14    13    1
    17    14    15    1
    18    15    18    2
    19    16    17    1
    20    16    15    1
    21    19    14    2
    22    20    21    2
    23    20    19    1
    24    21    26    1
    25    22    21    1
    26    23    22    1
    27    24    23    1
    28    24    25    1
    29    26    27    1
    30    26    13    2
    31    28    33    1
    32    28    36    2
    33    29    35    1
    34    29    38    1
    35    30    29    1
    36    31    32    1
    37    32    39    1
    38    33    31    1
    39    34    41    1
    40    37    34    1
    41    38    28    1
    42    39    44    2
    43    41    40    1
    44    42    30    1
    45    43    37    2
    46    43    39    1
    47    44    41    1
