@<TRIPOS>MOLECULE
outputs/IAG933/test6/raw/output_5874_IAG933_linker_design_.xyz
 49 54 0 0 0
SMALL
GASTEIGER

@<TRIPOS>ATOM
      1 C         -24.8550   -1.0120   30.1430 C.3     1  UNL1        0.1111
      2 C         -24.9730   -2.5050   29.7880 C.2     1  UNL1       -0.0030
      3 C         -23.9060   -3.1730   29.1460 C.2     1  UNL1       -0.0026
      4 C         -23.9890   -4.5490   28.8530 C.2     1  UNL1       -0.0003
      5 C         -25.1370   -5.2800   29.2050 C.2     1  UNL1       -0.0000
      6 C         -26.2320   -4.6110   29.7840 C.2     1  UNL1       -0.0003
      7 C         -26.1550   -3.2320   30.0650 C.2     1  UNL1       -0.0026
      8 C         -25.3870   -0.6790   31.5710 C.3     1  UNL1        0.0950
      9 C         -25.1890    0.7730   32.0280 C.3     1  UNL1        0.0209
     10 C         -25.3360    0.6840   33.5440 C.3     1  UNL1        0.0203
     11 C         -24.8290   -0.7150   33.9050 C.3     1  UNL1        0.0888
     12 N         -24.7580   -1.4810   32.6460 N.3     1  UNL1       -0.2174
     13 C         -25.6880    1.6140   26.4610 C.2     1  UNL1        0.0258
     14 C         -26.2500    2.9200   26.3950 C.2     1  UNL1        0.0733
     15 C         -25.6420    4.0930   27.1230 C.2     1  UNL1        0.2661
     16 N         -25.6140    5.2520   26.4490 N.am    1  UNL1       -0.1997
     17 C         -25.0260    6.4790   26.9630 C.3     1  UNL1        0.1388
     18 O         -25.1430    3.9660   28.2430 O.2     1  UNL1       -0.2683
     19 C         -27.4380    3.0910   25.6450 C.2     1  UNL1        0.1064
     20 N         -28.0750    2.0890   25.0030 N.2     1  UNL1       -0.2081
     21 C         -27.5430    0.8490   25.0790 C.2     1  UNL1        0.2530
     22 O         -28.1930   -0.2080   24.4770 O.2     1  UNL1       -0.4558
     23 C         -29.4600    0.0050   23.8660 C.3     1  UNL1        0.2426
     24 C         -30.0650   -1.3770   23.5730 C.3     1  UNL1        0.2292
     25 O         -30.7290   -1.8780   24.7210 O.3     1  UNL1       -0.2162
     26 C         -26.3540    0.5760   25.7770 C.2     1  UNL1        0.1898
     27 F         -25.8600   -0.6810   25.7950 F       1  UNL1       -0.1996
     28 C         -23.2172    1.8710   26.4490 C.2     1  UNL1        0.0445
     29 C         -31.9869    1.8231   30.8814 C.2     1  UNL1        0.0145
     30 C         -28.0251    0.4055   29.5015 C.3     1  UNL1        0.0426
     31 C         -21.6975    0.3379   28.6358 C.2     1  UNL1        0.0010
     32 C         -22.0253    2.0691   26.9882 C.2     1  UNL1        0.0077
     33 C         -23.0501   -0.0124   28.8447 C.2     1  UNL1        0.0108
     34 C         -30.7437    2.0925   31.4460 C.2     1  UNL1        0.0488
     35 N         -25.2723   -0.1027   29.0877 N.pl3   1  UNL1       -0.3068
     36 C         -27.4320    2.2772   31.0935 C.3     1  UNL1        0.1103
     37 N         -29.6571    1.3499   30.9436 N.pl3   1  UNL1       -0.2930
     38 C         -21.2723    1.4149   27.8908 C.2     1  UNL1        0.0006
     39 C         -24.3821    1.2773   27.0949 C.3     1  UNL1        0.0934
     40 C         -24.2638    0.4162   28.3086 C.2     1  UNL1        0.0339
     41 C         -28.9324    0.8618   32.1320 C.3     1  UNL1        0.1833
     42 N         -27.8148    1.7286   32.3290 N.3     1  UNL1       -0.1956
     43 C         -28.4593    1.7250   30.1059 C.3     1  UNL1        0.0932
     44 C         -31.7765    3.8231   32.8132 C.2     1  UNL1        0.0013
     45 CL        -23.1990    2.4066   24.8426 Cl      1  UNL1       -0.0862
     46 C         -33.0142    3.6481   32.1552 C.2     1  UNL1        0.0001
     47 C         -33.1239    2.6433   31.1649 C.2     1  UNL1        0.0013
     48 C         -26.5562    0.5544   29.0611 C.3     1  UNL1        0.0925
     49 C         -30.6302    3.0690   32.4802 C.2     1  UNL1        0.0145
@<TRIPOS>BOND
     1     1    35    1
     2     2     7    1
     3     2     1    1
     4     3     2    2
     5     4     3    1
     6     4     5    2
     7     5     6    1
     8     6     7    2
     9     8     1    1
    10     8     9    1
    11     8    12    1
    12     9    10    1
    13    10    11    1
    14    12    11    1
    15    14    13    1
    16    14    15    1
    17    15    18    2
    18    16    17    1
    19    16    15    1
    20    19    14    2
    21    20    21    2
    22    20    19    1
    23    21    26    1
    24    22    21    1
    25    23    22    1
    26    24    23    1
    27    24    25    1
    28    26    27    1
    29    26    13    2
    30    28    32    2
    31    28    39    1
    32    29    47    2
    33    29    34    1
    34    31    33    1
    35    32    38    1
    36    34    49    2
    37    36    42    1
    38    37    34    1
    39    37    41    1
    40    38    31    2
    41    39    13    1
    42    39    40    1
    43    40    33    2
    44    40    35    1
    45    41    42    1
    46    43    30    1
    47    43    37    1
    48    43    36    1
    49    45    28    1
    50    46    44    2
    51    47    46    1
    52    48    35    1
    53    48    30    1
    54    49    44    1
