@<TRIPOS>MOLECULE
outputs/IAG933/test6/raw/output_5876_IAG933_linker_design_.xyz
 42 45 0 0 0
SMALL
GASTEIGER

@<TRIPOS>ATOM
      1 C         -24.8550   -1.0120   30.1430 C.3     1  UNL1        0.1154
      2 C         -24.9730   -2.5050   29.7880 C.2     1  UNL1       -0.0029
      3 C         -23.9060   -3.1730   29.1460 C.2     1  UNL1       -0.0026
      4 C         -23.9890   -4.5490   28.8530 C.2     1  UNL1       -0.0003
      5 C         -25.1370   -5.2800   29.2050 C.2     1  UNL1       -0.0000
      6 C         -26.2320   -4.6110   29.7840 C.2     1  UNL1       -0.0003
      7 C         -26.1550   -3.2320   30.0650 C.2     1  UNL1       -0.0026
      8 C         -25.3870   -0.6790   31.5710 C.3     1  UNL1        0.0952
      9 C         -25.1890    0.7730   32.0280 C.3     1  UNL1        0.0209
     10 C         -25.3360    0.6840   33.5440 C.3     1  UNL1        0.0203
     11 C         -24.8290   -0.7150   33.9050 C.3     1  UNL1        0.0888
     12 N         -24.7580   -1.4810   32.6460 N.3     1  UNL1       -0.2174
     13 C         -25.6880    1.6140   26.4610 C.3     1  UNL1        0.1469
     14 C         -26.2500    2.9200   26.3950 C.2     1  UNL1        0.0732
     15 C         -25.6420    4.0930   27.1230 C.2     1  UNL1        0.2640
     16 N         -25.6140    5.2520   26.4490 N.am    1  UNL1       -0.1999
     17 C         -25.0260    6.4790   26.9630 C.3     1  UNL1        0.1388
     18 O         -25.1430    3.9660   28.2430 O.2     1  UNL1       -0.2686
     19 C         -27.4380    3.0910   25.6450 C.2     1  UNL1        0.1038
     20 N         -28.0750    2.0890   25.0030 N.2     1  UNL1       -0.2118
     21 C         -27.5430    0.8490   25.0790 C.2     1  UNL1        0.2358
     22 O         -28.1930   -0.2080   24.4770 O.2     1  UNL1       -0.4585
     23 C         -29.4600    0.0050   23.8660 C.3     1  UNL1        0.2423
     24 C         -30.0650   -1.3770   23.5730 C.3     1  UNL1        0.2292
     25 O         -30.7290   -1.8780   24.7210 O.3     1  UNL1       -0.2162
     26 C         -26.3540    0.5760   25.7770 C.3     1  UNL1        0.2581
     27 F         -25.8600   -0.6810   25.7950 F       1  UNL1       -0.2251
     28 O         -24.3010    2.3879   29.2912 O.2     1  UNL1       -0.2747
     29 C         -22.9109    0.0680   29.5937 C.2     1  UNL1        0.2603
     30 C         -23.0843    2.1891   25.2350 C.3     1  UNL1        0.3984
     31 N         -24.8952    1.2183   27.4817 N.am    1  UNL1       -0.2564
     32 F         -23.4591    3.4227   25.4207 F       1  UNL1       -0.1700
     33 C         -22.1943    1.8617   26.5141 C.3     1  UNL1        0.1157
     34 C         -24.0334    1.8349   28.1356 C.2     1  UNL1        0.2301
     35 F         -22.2548    1.9776   24.1946 F       1  UNL1       -0.1700
     36 F         -23.9371    1.2576   25.0095 F       1  UNL1       -0.1700
     37 C         -22.2395    0.6792   28.5134 C.3     1  UNL1        0.2452
     38 F         -20.8571    0.7026   28.2938 F       1  UNL1       -0.2269
     39 N         -24.2057   -0.1924   29.2463 N.am    1  UNL1       -0.2563
     40 C         -22.7071    1.5564   27.7206 C.3     1  UNL1        0.1267
     41 O         -22.3465   -0.2306   30.6752 O.2     1  UNL1       -0.2719
     42 C         -24.7737    0.0287   28.0558 C.3     1  UNL1        0.1933
@<TRIPOS>BOND
     1     1     2    1
     2     2     7    1
     3     3     2    2
     4     4     3    1
     5     4     5    2
     6     5     6    1
     7     6     7    2
     8     8     1    1
     9     8     9    1
    10     8    12    1
    11     9    10    1
    12    10    11    1
    13    12    11    1
    14    13    31    1
    15    14    13    1
    16    14    15    1
    17    15    18    2
    18    16    17    1
    19    16    15    1
    20    19    14    2
    21    20    21    2
    22    20    19    1
    23    21    26    1
    24    22    21    1
    25    23    22    1
    26    24    23    1
    27    24    25    1
    28    26    27    1
    29    26    13    1
    30    29    41    2
    31    30    32    1
    32    30    33    1
    33    31    42    1
    34    31    34   am
    35    34    28    2
    36    35    30    1
    37    36    30    1
    38    37    38    1
    39    37    29    1
    40    39    29   am
    41    39     1    1
    42    40    33    1
    43    40    34    1
    44    40    37    1
    45    42    39    1
