@<TRIPOS>MOLECULE
outputs/IAG933/test6/raw/output_5879_IAG933_linker_design_.xyz
 43 47 0 0 0
SMALL
GASTEIGER

@<TRIPOS>ATOM
      1 C         -24.8550   -1.0120   30.1430 C.3     1  UNL1        0.0585
      2 C         -24.9730   -2.5050   29.7880 C.2     1  UNL1       -0.0195
      3 C         -23.9060   -3.1730   29.1460 C.2     1  UNL1       -0.0042
      4 C         -23.9890   -4.5490   28.8530 C.2     1  UNL1       -0.0003
      5 C         -25.1370   -5.2800   29.2050 C.2     1  UNL1       -0.0000
      6 C         -26.2320   -4.6110   29.7840 C.2     1  UNL1       -0.0003
      7 C         -26.1550   -3.2320   30.0650 C.2     1  UNL1       -0.0042
      8 C         -25.3870   -0.6790   31.5710 C.3     1  UNL1        0.0785
      9 C         -25.1890    0.7730   32.0280 C.3     1  UNL1        0.0192
     10 C         -25.3360    0.6840   33.5440 C.3     1  UNL1        0.0202
     11 C         -24.8290   -0.7150   33.9050 C.3     1  UNL1        0.0887
     12 N         -24.7580   -1.4810   32.6460 N.3     1  UNL1       -0.2191
     13 C         -25.6880    1.6140   26.4610 C.3     1  UNL1        0.1060
     14 C         -26.2500    2.9200   26.3950 C.2     1  UNL1        0.0577
     15 C         -25.6420    4.0930   27.1230 C.2     1  UNL1        0.2625
     16 N         -25.6140    5.2520   26.4490 N.am    1  UNL1       -0.2000
     17 C         -25.0260    6.4790   26.9630 C.3     1  UNL1        0.1388
     18 O         -25.1430    3.9660   28.2430 O.2     1  UNL1       -0.2687
     19 C         -27.4380    3.0910   25.6450 C.2     1  UNL1        0.1022
     20 N         -28.0750    2.0890   25.0030 N.2     1  UNL1       -0.2119
     21 C         -27.5430    0.8490   25.0790 C.2     1  UNL1        0.2342
     22 O         -28.1930   -0.2080   24.4770 O.2     1  UNL1       -0.4585
     23 C         -29.4600    0.0050   23.8660 C.3     1  UNL1        0.2423
     24 C         -30.0650   -1.3770   23.5730 C.3     1  UNL1        0.2292
     25 O         -30.7290   -1.8780   24.7210 O.3     1  UNL1       -0.2162
     26 C         -26.3540    0.5760   25.7770 C.3     1  UNL1        0.2428
     27 F         -25.8600   -0.6810   25.7950 F       1  UNL1       -0.2268
     28 C         -23.4043    0.3357   28.6988 C.2     1  UNL1       -0.0022
     29 O         -29.8253    1.2724   28.1994 O.co2   1  UNL1       -0.2456
     30 O         -23.4556    2.2866   25.6655 O.3     1  UNL1       -0.1670
     31 C         -21.0087    0.2373   28.6398 C.3     1  UNL1        0.2348
     32 C         -23.3939    1.1471   27.5148 C.2     1  UNL1        0.0808
     33 C         -28.0564   -0.2278   28.4356 C.3     1  UNL1        0.1328
     34 O         -22.1452    2.2369   25.9912 O.2     1  UNL1       -0.2951
     35 C         -24.2448    1.6560   26.5481 C.3     1  UNL1        0.1999
     36 O         -20.9756    1.2094   27.7269 O.2     1  UNL1       -0.4414
     37 O         -29.9389   -0.2208   29.7778 O.co2   1  UNL1       -0.2456
     38 C         -29.4152    0.3031   28.8235 C.2     1  UNL1        0.3663
     39 C         -24.7876   -0.0258   29.1936 C.3     1  UNL1        0.1000
     40 C         -22.1061    1.5695   27.1058 C.2     1  UNL1        0.3263
     41 N         -25.8168    0.4886   28.6019 N.3     1  UNL1       -0.2141
     42 C         -27.0422    0.5282   29.3406 C.3     1  UNL1        0.1009
     43 C         -22.2951   -0.0862   29.2772 C.2     1  UNL1        0.0178
@<TRIPOS>BOND
     1     1    39    1
     2     2     7    1
     3     2     1    1
     4     3     2    2
     5     4     3    1
     6     4     5    2
     7     5     6    1
     8     6     7    2
     9     8     1    1
    10     8     9    1
    11     8    12    1
    12     9    10    1
    13    10    11    1
    14    12    11    1
    15    13    14    1
    16    13    35    1
    17    14    15    1
    18    15    18    2
    19    16    17    1
    20    16    15    1
    21    19    14    2
    22    20    21    2
    23    20    19    1
    24    21    26    1
    25    22    21    1
    26    23    22    1
    27    24    23    1
    28    24    25    1
    29    26    27    1
    30    26    13    1
    31    28    39    1
    32    28    43    2
    33    29    38   ar
    34    30    34    1
    35    31    43    1
    36    32    28    1
    37    33    38    1
    38    33    42    1
    39    34    40    1
    40    35    30    1
    41    35    32    1
    42    36    31    1
    43    38    37   ar
    44    39    41    1
    45    40    32    2
    46    40    36    1
    47    41    42    1
