@<TRIPOS>MOLECULE
No_588-gen_results/8p0m/2024-11-27-11-27-31/
 14 16 0 0 0
SMALL
GASTEIGER

@<TRIPOS>ATOM
      1 N         -28.0544   -1.0498   28.7246 N.ar    1  UNL1       -0.2251
      2 C         -26.9659   -0.4722   28.7709 C.ar    1  UNL1        0.1623
      3 C         -26.4477    0.3414   27.9328 C.ar    1  UNL1        0.0359
      4 C         -27.3171    0.7634   26.8203 C.ar    1  UNL1        0.0044
      5 C         -28.5568    0.2440   26.8337 C.ar    1  UNL1        0.0193
      6 C         -28.9454   -0.4965   28.0357 C.ar    1  UNL1        0.1005
      7 C         -29.4671    0.6894   25.8068 C.ar    1  UNL1        0.0015
      8 C         -29.0745    1.1920   24.6961 C.ar    1  UNL1        0.0000
      9 C         -27.6618    1.7252   24.6248 C.ar    1  UNL1        0.0000
     10 C         -26.7843    1.4964   25.7270 C.ar    1  UNL1        0.0001
     11 N         -25.9723   -0.9786   29.8071 N.ar    1  UNL1       -0.2251
     12 C         -24.7048   -0.7206   29.7997 C.ar    1  UNL1        0.1006
     13 C         -24.2506    0.2610   28.9090 C.ar    1  UNL1        0.0208
     14 C         -25.0044    0.7510   27.8769 C.ar    1  UNL1        0.0046
@<TRIPOS>BOND
     1     5     7   ar
     2     7     8   ar
     3     8     9   ar
     4     9    10   ar
     5    10     4   ar
     6     1     2   ar
     7     3     4   ar
     8     4     5   ar
     9     5     6   ar
    10     6     1   ar
    11     2     3   ar
    12     3    14   ar
    13    14    13   ar
    14    13    12   ar
    15    12    11   ar
    16    11     2   ar
