@<TRIPOS>MOLECULE
outputs/IAG933/test6/raw/output_5880_IAG933_linker_design_.xyz
 42 46 0 0 0
SMALL
GASTEIGER

@<TRIPOS>ATOM
      1 C         -24.8550   -1.0120   30.1430 C.3     1  UNL1        0.0609
      2 C         -24.9730   -2.5050   29.7880 C.2     1  UNL1       -0.0171
      3 C         -23.9060   -3.1730   29.1460 C.2     1  UNL1       -0.0039
      4 C         -23.9890   -4.5490   28.8530 C.2     1  UNL1       -0.0003
      5 C         -25.1370   -5.2800   29.2050 C.2     1  UNL1       -0.0000
      6 C         -26.2320   -4.6110   29.7840 C.2     1  UNL1       -0.0003
      7 C         -26.1550   -3.2320   30.0650 C.2     1  UNL1       -0.0039
      8 C         -25.3870   -0.6790   31.5710 C.3     1  UNL1        0.0808
      9 C         -25.1890    0.7730   32.0280 C.3     1  UNL1        0.0195
     10 C         -25.3360    0.6840   33.5440 C.3     1  UNL1        0.0203
     11 C         -24.8290   -0.7150   33.9050 C.3     1  UNL1        0.0887
     12 N         -24.7580   -1.4810   32.6460 N.3     1  UNL1       -0.2188
     13 C         -25.6880    1.6140   26.4610 C.3     1  UNL1        0.0924
     14 C         -26.2500    2.9200   26.3950 C.2     1  UNL1        0.0589
     15 C         -25.6420    4.0930   27.1230 C.2     1  UNL1        0.2628
     16 N         -25.6140    5.2520   26.4490 N.am    1  UNL1       -0.2000
     17 C         -25.0260    6.4790   26.9630 C.3     1  UNL1        0.1388
     18 O         -25.1430    3.9660   28.2430 O.2     1  UNL1       -0.2686
     19 C         -27.4380    3.0910   25.6450 C.2     1  UNL1        0.1025
     20 N         -28.0750    2.0890   25.0030 N.2     1  UNL1       -0.2118
     21 C         -27.5430    0.8490   25.0790 C.2     1  UNL1        0.2344
     22 O         -28.1930   -0.2080   24.4770 O.2     1  UNL1       -0.4585
     23 C         -29.4600    0.0050   23.8660 C.3     1  UNL1        0.2423
     24 C         -30.0650   -1.3770   23.5730 C.3     1  UNL1        0.2292
     25 O         -30.7290   -1.8780   24.7210 O.3     1  UNL1       -0.2162
     26 C         -26.3540    0.5760   25.7770 C.3     1  UNL1        0.2440
     27 F         -25.8600   -0.6810   25.7950 F       1  UNL1       -0.2265
     28 C         -21.0764    1.2605   27.6239 C.3     1  UNL1        0.3625
     29 C         -24.5015   -0.0624   29.3409 C.2     1  UNL1       -0.0068
     30 O         -22.3964    1.9821   25.8234 O.3     1  UNL1       -0.1706
     31 F         -20.4233    2.1695   27.5700 F       1  UNL1       -0.1852
     32 N         -27.6600   -0.2549   28.8801 N.pl3   1  UNL1        0.2047
     33 C         -22.3956    1.0499   26.9168 C.3     1  UNL1        0.2538
     34 C         -23.2316    0.2908   28.9984 C.2     1  UNL1        0.0321
     35 O         -20.8467    0.2373   28.5469 O.2     1  UNL1       -0.4440
     36 N         -27.1948    1.8009   29.7951 N.pl3   1  UNL1        0.2047
     37 C         -25.4193    0.6439   28.6566 C.2     1  UNL1        0.0902
     38 F         -23.2411    1.5787   25.0033 F       1  UNL1       -0.0464
     39 C         -23.4197    1.0545   27.7863 C.2     1  UNL1        0.0140
     40 C         -24.8168    1.1246   27.5442 C.2     1  UNL1       -0.0089
     41 C         -21.9975   -0.1357   29.3638 C.2     1  UNL1        0.1748
     42 C         -26.8160    0.7591   29.0857 C.2     1  UNL1        0.4760
@<TRIPOS>BOND
     1     1    29    1
     2     2     7    1
     3     2     1    1
     4     3     2    2
     5     4     3    1
     6     4     5    2
     7     5     6    1
     8     6     7    2
     9     8     1    1
    10     8     9    1
    11     8    12    1
    12     9    10    1
    13    10    11    1
    14    12    11    1
    15    13    40    1
    16    14    13    1
    17    14    15    1
    18    15    18    2
    19    16    17    1
    20    16    15    1
    21    19    14    2
    22    20    21    2
    23    20    19    1
    24    21    26    1
    25    22    21    1
    26    23    22    1
    27    24    23    1
    28    24    25    1
    29    26    27    1
    30    26    13    1
    31    28    31    1
    32    28    35    1
    33    32    42    2
    34    33    30    1
    35    33    28    1
    36    33    39    1
    37    34    29    1
    38    34    41    2
    39    35    41    1
    40    37    42    1
    41    37    29    2
    42    38    30    1
    43    39    34    1
    44    40    39    2
    45    40    37    1
    46    42    36    1
