@<TRIPOS>MOLECULE
outputs/IAG933/test6/raw/output_5890_IAG933_linker_design_.xyz
 45 48 0 0 0
SMALL
GASTEIGER

@<TRIPOS>ATOM
      1 C         -24.8550   -1.0120   30.1430 C.3     1  UNL1        0.0437
      2 C         -24.9730   -2.5050   29.7880 C.2     1  UNL1       -0.0208
      3 C         -23.9060   -3.1730   29.1460 C.2     1  UNL1       -0.0042
      4 C         -23.9890   -4.5490   28.8530 C.2     1  UNL1       -0.0003
      5 C         -25.1370   -5.2800   29.2050 C.2     1  UNL1       -0.0000
      6 C         -26.2320   -4.6110   29.7840 C.2     1  UNL1       -0.0003
      7 C         -26.1550   -3.2320   30.0650 C.2     1  UNL1       -0.0042
      8 C         -25.3870   -0.6790   31.5710 C.3     1  UNL1        0.0772
      9 C         -25.1890    0.7730   32.0280 C.3     1  UNL1        0.0195
     10 C         -25.3360    0.6840   33.5440 C.3     1  UNL1        0.0203
     11 C         -24.8290   -0.7150   33.9050 C.3     1  UNL1        0.0887
     12 N         -24.7580   -1.4810   32.6460 N.3     1  UNL1       -0.2191
     13 C         -25.6880    1.6140   26.4610 C.2     1  UNL1        0.0432
     14 C         -26.2500    2.9200   26.3950 C.2     1  UNL1        0.0746
     15 C         -25.6420    4.0930   27.1230 C.2     1  UNL1        0.2662
     16 N         -25.6140    5.2520   26.4490 N.am    1  UNL1       -0.1997
     17 C         -25.0260    6.4790   26.9630 C.3     1  UNL1        0.1388
     18 O         -25.1430    3.9660   28.2430 O.2     1  UNL1       -0.2683
     19 C         -27.4380    3.0910   25.6450 C.2     1  UNL1        0.1065
     20 N         -28.0750    2.0890   25.0030 N.2     1  UNL1       -0.2081
     21 C         -27.5430    0.8490   25.0790 C.2     1  UNL1        0.2530
     22 O         -28.1930   -0.2080   24.4770 O.2     1  UNL1       -0.4558
     23 C         -29.4600    0.0050   23.8660 C.3     1  UNL1        0.2426
     24 C         -30.0650   -1.3770   23.5730 C.3     1  UNL1        0.2292
     25 O         -30.7290   -1.8780   24.7210 O.3     1  UNL1       -0.2162
     26 C         -26.3540    0.5760   25.7770 C.2     1  UNL1        0.1911
     27 F         -25.8600   -0.6810   25.7950 F       1  UNL1       -0.1995
     28 C         -26.2155    6.3493   32.5247 C.3     1  UNL1        0.0329
     29 C         -27.8526    4.2116   33.9088 C.3     1  UNL1        0.0026
     30 C         -27.9859    5.7087   34.1383 C.3     1  UNL1        0.0002
     31 C         -24.3981    1.8435   28.9946 C.2     1  UNL1        0.2644
     32 C         -26.4351    1.5968   31.5248 C.3     1  UNL1        0.0231
     33 O         -26.2568    5.1801   30.4046 O.3     1  UNL1       -0.2232
     34 C         -26.6051    4.0287   32.8606 C.3     1  UNL1        0.0321
     35 C         -25.6607    2.8303   30.8965 C.3     1  UNL1        0.0955
     36 N         -25.5591    2.1290   29.4242 N.am    1  UNL1       -0.2055
     37 N         -20.9977    1.9145   27.9888 N.1     1  UNL1       -0.1741
     38 C         -23.0456    1.9246   25.1940 C.3     1  UNL1        0.1246
     39 C         -26.7678    5.1881   31.7763 C.3     1  UNL1        0.1520
     40 C         -24.4475    1.2877   27.4024 C.3     1  UNL1        0.1853
     41 C         -25.2355    3.5590   32.2627 C.3     1  UNL1        0.0242
     42 C         -26.6464    6.3722   33.8970 C.3     1  UNL1        0.0026
     43 N         -23.1135    1.6204   26.6575 N.pl3   1  UNL1       -0.2344
     44 C         -21.9965    1.8122   27.3476 C.1     1  UNL1        0.1710
     45 O         -23.3918    1.9930   29.6812 O.2     1  UNL1       -0.2712
@<TRIPOS>BOND
     1     2     7    1
     2     2     1    1
     3     3     2    2
     4     4     3    1
     5     4     5    2
     6     5     6    1
     7     6     7    2
     8     8     1    1
     9     8     9    1
    10     8    12    1
    11     9    32    1
    12     9    10    1
    13    10    11    1
    14    12    11    1
    15    13    40    1
    16    14    13    1
    17    14    15    1
    18    15    18    2
    19    16    17    1
    20    16    15    1
    21    19    14    2
    22    20    21    2
    23    20    19    1
    24    21    26    1
    25    22    21    1
    26    23    22    1
    27    24    23    1
    28    24    25    1
    29    26    27    1
    30    26    13    2
    31    28    42    1
    32    29    30    1
    33    31    36    1
    34    31    45    2
    35    34    41    1
    36    34    29    1
    37    35    32    1
    38    35    41    1
    39    36    35    1
    40    38    43    1
    41    39    33    1
    42    39    28    1
    43    39    34    1
    44    40    31    1
    45    42    30    1
    46    43    44    1
    47    43    40    1
    48    44    37    3
