@<TRIPOS>MOLECULE
outputs/IAG933/test6/raw/output_5894_IAG933_linker_design_.xyz
 42 47 0 0 0
SMALL
GASTEIGER

@<TRIPOS>ATOM
      1 C         -24.8550   -1.0120   30.1430 C.3     1  UNL1        0.1153
      2 C         -24.9730   -2.5050   29.7880 C.2     1  UNL1       -0.0029
      3 C         -23.9060   -3.1730   29.1460 C.2     1  UNL1       -0.0026
      4 C         -23.9890   -4.5490   28.8530 C.2     1  UNL1       -0.0003
      5 C         -25.1370   -5.2800   29.2050 C.2     1  UNL1       -0.0000
      6 C         -26.2320   -4.6110   29.7840 C.2     1  UNL1       -0.0003
      7 C         -26.1550   -3.2320   30.0650 C.2     1  UNL1       -0.0026
      8 C         -25.3870   -0.6790   31.5710 C.3     1  UNL1        0.0956
      9 C         -25.1890    0.7730   32.0280 C.3     1  UNL1        0.0282
     10 C         -25.3360    0.6840   33.5440 C.3     1  UNL1        0.0207
     11 C         -24.8290   -0.7150   33.9050 C.3     1  UNL1        0.0888
     12 N         -24.7580   -1.4810   32.6460 N.3     1  UNL1       -0.2174
     13 C         -25.6880    1.6140   26.4610 C.2     1  UNL1        0.0974
     14 C         -26.2500    2.9200   26.3950 C.2     1  UNL1        0.0906
     15 C         -25.6420    4.0930   27.1230 C.2     1  UNL1        0.2677
     16 N         -25.6140    5.2520   26.4490 N.am    1  UNL1       -0.1997
     17 C         -25.0260    6.4790   26.9630 C.3     1  UNL1        0.1388
     18 O         -25.1430    3.9660   28.2430 O.2     1  UNL1       -0.2683
     19 C         -27.4380    3.0910   25.6450 C.2     1  UNL1        0.1080
     20 N         -28.0750    2.0890   25.0030 N.2     1  UNL1       -0.2080
     21 C         -27.5430    0.8490   25.0790 C.2     1  UNL1        0.2546
     22 O         -28.1930   -0.2080   24.4770 O.2     1  UNL1       -0.4558
     23 C         -29.4600    0.0050   23.8660 C.3     1  UNL1        0.2426
     24 C         -30.0650   -1.3770   23.5730 C.3     1  UNL1        0.2292
     25 O         -30.7290   -1.8780   24.7210 O.3     1  UNL1       -0.2162
     26 C         -26.3540    0.5760   25.7770 C.2     1  UNL1        0.2070
     27 F         -25.8600   -0.6810   25.7950 F       1  UNL1       -0.1979
     28 C         -25.1010    3.1402   32.2338 C.2     1  UNL1        0.2604
     29 C         -25.0717    0.2198   28.1643 C.2     1  UNL1        0.3150
     30 O         -26.2302   -0.2478   28.0918 O.2     1  UNL1       -0.2517
     31 O         -21.3988    1.7580   27.7413 O.3     1  UNL1       -0.1675
     32 O         -24.1435    3.8275   32.6199 O.2     1  UNL1       -0.2717
     33 N         -24.7132    1.1706   27.1898 N.am    1  UNL1       -0.2172
     34 C         -23.4199    1.1413   29.2475 C.3     1  UNL1        0.1146
     35 C         -22.7853    1.4529   28.0229 C.3     1  UNL1        0.2215
     36 C         -23.4697    1.9565   30.5401 C.3     1  UNL1        0.0321
     37 N         -24.2801    0.0317   29.2356 N.am    1  UNL1       -0.2587
     38 C         -24.8513    2.0042   31.2422 C.3     1  UNL1        0.0830
     39 N         -26.3423    3.3632   32.7965 N.am    1  UNL1       -0.0878
     40 C         -23.4356    1.5550   26.9435 C.2     1  UNL1        0.1108
     41 C         -22.5968    2.0753   25.8241 C.2     1  UNL1        0.2335
     42 O         -21.2622    2.1935   26.3450 O.2     1  UNL1       -0.3288
@<TRIPOS>BOND
     1     1     2    1
     2     1     8    1
     3     2     7    1
     4     3     2    2
     5     4     3    1
     6     4     5    2
     7     5     6    1
     8     6     7    2
     9     8     9    1
    10     8    12    1
    11     9    10    1
    12    10    11    1
    13    12    11    1
    14    13    33    1
    15    14    13    1
    16    14    15    1
    17    15    18    2
    18    16    17    1
    19    16    15    1
    20    19    14    2
    21    20    21    2
    22    20    19    1
    23    21    26    1
    24    22    21    1
    25    23    22    1
    26    24    23    1
    27    24    25    1
    28    26    27    1
    29    26    13    2
    30    28    32    2
    31    28    39    1
    32    29    37   am
    33    30    29    2
    34    31    35    1
    35    33    29   am
    36    34    36    1
    37    35    40    1
    38    35    34    1
    39    36    38    1
    40    37    34    1
    41    37     1    1
    42    38     9    1
    43    38    28    1
    44    40    33    1
    45    41    42    1
    46    41    40    2
    47    42    31    1
