@<TRIPOS>MOLECULE
outputs/IAG933/test6/raw/output_5895_IAG933_linker_design_.xyz
 43 48 0 0 0
SMALL
GASTEIGER

@<TRIPOS>ATOM
      1 C         -24.8550   -1.0120   30.1430 C.3     1  UNL1        0.0603
      2 C         -24.9730   -2.5050   29.7880 C.2     1  UNL1       -0.0171
      3 C         -23.9060   -3.1730   29.1460 C.2     1  UNL1       -0.0039
      4 C         -23.9890   -4.5490   28.8530 C.2     1  UNL1       -0.0003
      5 C         -25.1370   -5.2800   29.2050 C.2     1  UNL1       -0.0000
      6 C         -26.2320   -4.6110   29.7840 C.2     1  UNL1       -0.0003
      7 C         -26.1550   -3.2320   30.0650 C.2     1  UNL1       -0.0039
      8 C         -25.3870   -0.6790   31.5710 C.3     1  UNL1        0.0808
      9 C         -25.1890    0.7730   32.0280 C.3     1  UNL1        0.0195
     10 C         -25.3360    0.6840   33.5440 C.3     1  UNL1        0.0203
     11 C         -24.8290   -0.7150   33.9050 C.3     1  UNL1        0.0887
     12 N         -24.7580   -1.4810   32.6460 N.3     1  UNL1       -0.2188
     13 C         -25.6880    1.6140   26.4610 C.3     1  UNL1        0.0953
     14 C         -26.2500    2.9200   26.3950 C.2     1  UNL1        0.0590
     15 C         -25.6420    4.0930   27.1230 C.2     1  UNL1        0.2628
     16 N         -25.6140    5.2520   26.4490 N.am    1  UNL1       -0.2000
     17 C         -25.0260    6.4790   26.9630 C.3     1  UNL1        0.1388
     18 O         -25.1430    3.9660   28.2430 O.2     1  UNL1       -0.2686
     19 C         -27.4380    3.0910   25.6450 C.2     1  UNL1        0.1025
     20 N         -28.0750    2.0890   25.0030 N.2     1  UNL1       -0.2118
     21 C         -27.5430    0.8490   25.0790 C.2     1  UNL1        0.2344
     22 O         -28.1930   -0.2080   24.4770 O.2     1  UNL1       -0.4585
     23 C         -29.4600    0.0050   23.8660 C.3     1  UNL1        0.2423
     24 C         -30.0650   -1.3770   23.5730 C.3     1  UNL1        0.2292
     25 O         -30.7290   -1.8780   24.7210 O.3     1  UNL1       -0.2162
     26 C         -26.3540    0.5760   25.7770 C.3     1  UNL1        0.2441
     27 F         -25.8600   -0.6810   25.7950 F       1  UNL1       -0.2265
     28 C         -23.4484    1.4538   27.1079 C.2     1  UNL1        0.2190
     29 C         -29.1678    3.0028   29.4167 C.3     1  UNL1        0.0432
     30 C         -22.4890    0.9592   28.0324 C.2     1  UNL1        0.1782
     31 C         -24.8181    1.2619   27.3796 C.2     1  UNL1        0.0233
     32 C         -29.0604    0.7592   28.4470 C.2     1  UNL1        0.0030
     33 F         -21.1894    1.3299   27.9367 F       1  UNL1       -0.2008
     34 N         -27.1427    1.8020   29.6480 N.3     1  UNL1       -0.2512
     35 C         -22.9842    0.1797   29.0676 C.2     1  UNL1        0.0288
     36 N         -28.0971   -0.6964   29.9970 N.3     1  UNL1       -0.1115
     37 C         -27.8364    0.6052   29.2384 C.3     1  UNL1        0.1596
     38 O         -23.0311    2.1684   26.0993 O.2     1  UNL1       -0.2845
     39 C         -26.7312    0.9948   29.0774 C.3     1  UNL1        0.1154
     40 C         -25.3753    0.7558   28.5999 C.2     1  UNL1       -0.0087
     41 C         -27.8340    3.1139   29.9436 C.3     1  UNL1        0.0786
     42 C         -24.3820   -0.0115   29.2161 C.2     1  UNL1       -0.0175
     43 C         -29.6898    1.9912   28.5661 C.2     1  UNL1       -0.0265
@<TRIPOS>BOND
     1     1    42    1
     2     2     7    1
     3     2     1    1
     4     3     2    2
     5     4     3    1
     6     4     5    2
     7     5     6    1
     8     6     7    2
     9     8     1    1
    10     8     9    1
    11     8    12    1
    12     9    10    1
    13    10    11    1
    14    12    11    1
    15    13    31    1
    16    14    13    1
    17    14    15    1
    18    15    18    2
    19    16    17    1
    20    16    15    1
    21    19    14    2
    22    20    21    2
    23    20    19    1
    24    21    26    1
    25    22    21    1
    26    23    22    1
    27    24    23    1
    28    24    25    1
    29    26    27    1
    30    26    13    1
    31    28    31    2
    32    28    30    1
    33    29    41    1
    34    30    35    2
    35    31    40    1
    36    32    43    2
    37    32    37    1
    38    33    30    1
    39    34    41    1
    40    35    42    1
    41    37    34    1
    42    37    36    1
    43    38    28    1
    44    39    40    1
    45    39    37    1
    46    39    34    1
    47    40    42    2
    48    43    29    1
