@<TRIPOS>MOLECULE
outputs/IAG933/test6/raw/output_5896_IAG933_linker_design_.xyz
 47 52 0 0 0
SMALL
GASTEIGER

@<TRIPOS>ATOM
      1 C         -24.8550   -1.0120   30.1430 C.3     1  UNL1        0.0384
      2 C         -24.9730   -2.5050   29.7880 C.2     1  UNL1       -0.0212
      3 C         -23.9060   -3.1730   29.1460 C.2     1  UNL1       -0.0042
      4 C         -23.9890   -4.5490   28.8530 C.2     1  UNL1       -0.0003
      5 C         -25.1370   -5.2800   29.2050 C.2     1  UNL1       -0.0000
      6 C         -26.2320   -4.6110   29.7840 C.2     1  UNL1       -0.0003
      7 C         -26.1550   -3.2320   30.0650 C.2     1  UNL1       -0.0042
      8 C         -25.3870   -0.6790   31.5710 C.3     1  UNL1        0.0768
      9 C         -25.1890    0.7730   32.0280 C.3     1  UNL1        0.0192
     10 C         -25.3360    0.6840   33.5440 C.3     1  UNL1        0.0202
     11 C         -24.8290   -0.7150   33.9050 C.3     1  UNL1        0.0887
     12 N         -24.7580   -1.4810   32.6460 N.3     1  UNL1       -0.2191
     13 C         -25.6880    1.6140   26.4610 C.3     1  UNL1        0.0860
     14 C         -26.2500    2.9200   26.3950 C.2     1  UNL1        0.0562
     15 C         -25.6420    4.0930   27.1230 C.2     1  UNL1        0.2625
     16 N         -25.6140    5.2520   26.4490 N.am    1  UNL1       -0.2000
     17 C         -25.0260    6.4790   26.9630 C.3     1  UNL1        0.1388
     18 O         -25.1430    3.9660   28.2430 O.2     1  UNL1       -0.2687
     19 C         -27.4380    3.0910   25.6450 C.2     1  UNL1        0.1022
     20 N         -28.0750    2.0890   25.0030 N.2     1  UNL1       -0.2119
     21 C         -27.5430    0.8490   25.0790 C.2     1  UNL1        0.2341
     22 O         -28.1930   -0.2080   24.4770 O.2     1  UNL1       -0.4585
     23 C         -29.4600    0.0050   23.8660 C.3     1  UNL1        0.2423
     24 C         -30.0650   -1.3770   23.5730 C.3     1  UNL1        0.2292
     25 O         -30.7290   -1.8780   24.7210 O.3     1  UNL1       -0.2162
     26 C         -26.3540    0.5760   25.7770 C.3     1  UNL1        0.2413
     27 F         -25.8600   -0.6810   25.7950 F       1  UNL1       -0.2268
     28 C         -29.2230    4.7560   30.4239 C.3     1  UNL1        0.0232
     29 O         -28.6123    0.1404   28.7825 O.2     1  UNL1       -0.2960
     30 N         -23.5393    1.5227   27.2727 N.3     1  UNL1       -0.2007
     31 C         -28.4887    2.6912   30.4303 C.3     1  UNL1        0.0093
     32 C         -30.4043    5.9294   28.2040 C.2     1  UNL1        0.0666
     33 C         -26.6719    1.2628   29.2111 C.3     1  UNL1        0.0659
     34 CL        -22.8198    2.2130   25.6409 Cl      1  UNL1       -0.0198
     35 N         -29.7499    4.7619   27.9962 N.2     1  UNL1       -0.2751
     36 C         -22.6222    1.5039   28.2587 C.3     1  UNL1        0.0731
     37 C         -29.0527    2.7114   29.2523 C.3     1  UNL1        0.0799
     38 C         -22.7439    0.3224   29.1928 C.3     1  UNL1        0.0177
     39 C         -28.3265    3.9819   31.2410 C.3     1  UNL1        0.0024
     40 C         -28.0451    1.1229   28.9491 C.2     1  UNL1        0.1522
     41 C         -25.5196    0.7090   28.7826 C.3     1  UNL1        0.0241
     42 C         -24.1929   -0.0828   28.9832 C.3     1  UNL1        0.0085
     43 C         -24.7806    1.2118   27.4836 C.3     1  UNL1        0.0807
     44 C         -29.2960    4.1395   29.1337 C.3     1  UNL1        0.1097
     45 C         -30.7055    6.3802   29.5139 C.3     1  UNL1        0.0466
     46 C         -21.1517    1.5406   27.7617 C.3     1  UNL1        0.0187
     47 C         -30.0691    5.8199   30.6887 C.3     1  UNL1        0.0083
@<TRIPOS>BOND
     1     1     2    1
     2     2     7    1
     3     3     2    2
     4     4     3    1
     5     4     5    2
     6     5     6    1
     7     6     7    2
     8     8     1    1
     9     8     9    1
    10     8    12    1
    11     9    10    1
    12    10    11    1
    13    12    11    1
    14    13    14    1
    15    13    43    1
    16    14    15    1
    17    15    18    2
    18    16    17    1
    19    16    15    1
    20    19    14    2
    21    20    21    2
    22    20    19    1
    23    21    26    1
    24    22    21    1
    25    23    22    1
    26    24    23    1
    27    24    25    1
    28    26    27    1
    29    26    13    1
    30    28    47    1
    31    28    39    1
    32    29    40    2
    33    30    36    1
    34    31    39    1
    35    32    45    1
    36    34    30    1
    37    35    32    2
    38    36    46    1
    39    36    38    1
    40    37    40    1
    41    37    31    1
    42    40    33    1
    43    41    42    1
    44    41    33    1
    45    42    38    1
    46    42     1    1
    47    43    30    1
    48    43    41    1
    49    44    35    1
    50    44    37    1
    51    44    28    1
    52    45    47    1
