@<TRIPOS>MOLECULE
outputs/IAG933/test6/raw/output_59_IAG933_linker_design_.xyz
 40 43 0 0 0
SMALL
GASTEIGER

@<TRIPOS>ATOM
      1 C         -24.8550   -1.0120   30.1430 C.3     1  UNL1        0.1119
      2 C         -24.9730   -2.5050   29.7880 C.2     1  UNL1       -0.0030
      3 C         -23.9060   -3.1730   29.1460 C.2     1  UNL1       -0.0026
      4 C         -23.9890   -4.5490   28.8530 C.2     1  UNL1       -0.0003
      5 C         -25.1370   -5.2800   29.2050 C.2     1  UNL1       -0.0000
      6 C         -26.2320   -4.6110   29.7840 C.2     1  UNL1       -0.0003
      7 C         -26.1550   -3.2320   30.0650 C.2     1  UNL1       -0.0026
      8 C         -25.3870   -0.6790   31.5710 C.3     1  UNL1        0.0951
      9 C         -25.1890    0.7730   32.0280 C.3     1  UNL1        0.0209
     10 C         -25.3360    0.6840   33.5440 C.3     1  UNL1        0.0203
     11 C         -24.8290   -0.7150   33.9050 C.3     1  UNL1        0.0888
     12 N         -24.7580   -1.4810   32.6460 N.3     1  UNL1       -0.2174
     13 C         -25.6880    1.6140   26.4610 C.2     1  UNL1        0.0382
     14 C         -26.2500    2.9200   26.3950 C.2     1  UNL1        0.0764
     15 C         -25.6420    4.0930   27.1230 C.2     1  UNL1        0.2664
     16 N         -25.6140    5.2520   26.4490 N.am    1  UNL1       -0.1997
     17 C         -25.0260    6.4790   26.9630 C.3     1  UNL1        0.1388
     18 O         -25.1430    3.9660   28.2430 O.2     1  UNL1       -0.2683
     19 C         -27.4380    3.0910   25.6450 C.2     1  UNL1        0.1067
     20 N         -28.0750    2.0890   25.0030 N.2     1  UNL1       -0.2081
     21 C         -27.5430    0.8490   25.0790 C.2     1  UNL1        0.2533
     22 O         -28.1930   -0.2080   24.4770 O.2     1  UNL1       -0.4558
     23 C         -29.4600    0.0050   23.8660 C.3     1  UNL1        0.2426
     24 C         -30.0650   -1.3770   23.5730 C.3     1  UNL1        0.2292
     25 O         -30.7290   -1.8780   24.7210 O.3     1  UNL1       -0.2162
     26 C         -26.3540    0.5760   25.7770 C.2     1  UNL1        0.1929
     27 F         -25.8600   -0.6810   25.7950 F       1  UNL1       -0.1992
     28 F         -22.9868    2.4064   26.0266 F       1  UNL1       -0.2020
     29 C         -29.2674    0.9630   29.5400 C.3     1  UNL1        0.1867
     30 C         -24.6806    1.3062   27.2974 C.2     1  UNL1        0.0321
     31 C         -23.3592    1.5949   27.0256 C.2     1  UNL1        0.1666
     32 O         -28.3250    1.9924   29.2464 O.3     1  UNL1       -0.2200
     33 C         -25.0440    0.5612   28.3418 C.3     1  UNL1        0.1202
     34 F         -21.0907    1.5734   27.4315 F       1  UNL1       -0.2005
     35 C         -26.4522    0.3198   28.5939 C.2     1  UNL1       -0.0067
     36 N         -24.1430   -0.0965   29.2332 N.pl3   1  UNL1       -0.2954
     37 C         -27.3778   -0.4840   28.9856 C.2     1  UNL1       -0.0260
     38 C         -22.3455    1.1330   27.8086 C.2     1  UNL1        0.1816
     39 C         -22.6580    0.2530   28.9120 C.2     1  UNL1        0.0944
     40 C         -28.8365   -0.3069   28.8492 C.3     1  UNL1        0.0613
@<TRIPOS>BOND
     1     1     2    1
     2     2     7    1
     3     3     2    2
     4     4     3    1
     5     4     5    2
     6     5     6    1
     7     6     7    2
     8     8     1    1
     9     8     9    1
    10     8    12    1
    11     9    10    1
    12    10    11    1
    13    12    11    1
    14    13    30    1
    15    14    13    1
    16    14    15    1
    17    15    18    2
    18    16    17    1
    19    16    15    1
    20    19    14    2
    21    20    21    2
    22    20    19    1
    23    21    26    1
    24    22    21    1
    25    23    22    1
    26    24    23    1
    27    24    25    1
    28    26    27    1
    29    26    13    2
    30    28    31    1
    31    30    33    1
    32    31    30    2
    33    31    38    1
    34    32    29    1
    35    33    35    1
    36    33    36    1
    37    34    38    1
    38    35    37    2
    39    36     1    1
    40    38    39    2
    41    39    36    1
    42    40    37    1
    43    40    29    1
