@<TRIPOS>MOLECULE
outputs/IAG933/test6/raw/output_5901_IAG933_linker_design_.xyz
 44 47 0 0 0
SMALL
GASTEIGER

@<TRIPOS>ATOM
      1 C         -24.8550   -1.0120   30.1430 C.3     1  UNL1        0.1150
      2 C         -24.9730   -2.5050   29.7880 C.2     1  UNL1       -0.0050
      3 C         -23.9060   -3.1730   29.1460 C.2     1  UNL1       -0.0029
      4 C         -23.9890   -4.5490   28.8530 C.2     1  UNL1       -0.0003
      5 C         -25.1370   -5.2800   29.2050 C.2     1  UNL1       -0.0000
      6 C         -26.2320   -4.6110   29.7840 C.2     1  UNL1       -0.0003
      7 C         -26.1550   -3.2320   30.0650 C.2     1  UNL1       -0.0029
      8 C         -25.3870   -0.6790   31.5710 C.3     1  UNL1        0.0930
      9 C         -25.1890    0.7730   32.0280 C.3     1  UNL1        0.0206
     10 C         -25.3360    0.6840   33.5440 C.3     1  UNL1        0.0203
     11 C         -24.8290   -0.7150   33.9050 C.3     1  UNL1        0.0888
     12 N         -24.7580   -1.4810   32.6460 N.3     1  UNL1       -0.2177
     13 C         -25.6880    1.6140   26.4610 C.2     1  UNL1        0.0407
     14 C         -26.2500    2.9200   26.3950 C.2     1  UNL1        0.0745
     15 C         -25.6420    4.0930   27.1230 C.2     1  UNL1        0.2240
     16 N         -25.6140    5.2520   26.4490 N.2     1  UNL1       -0.2356
     17 C         -25.0260    6.4790   26.9630 C.3     1  UNL1        0.1550
     18 O         -25.1430    3.9660   28.2430 O.2     1  UNL1       -0.4363
     19 C         -27.4380    3.0910   25.6450 C.2     1  UNL1        0.1068
     20 N         -28.0750    2.0890   25.0030 N.2     1  UNL1       -0.2081
     21 C         -27.5430    0.8490   25.0790 C.2     1  UNL1        0.2533
     22 O         -28.1930   -0.2080   24.4770 O.2     1  UNL1       -0.4558
     23 C         -29.4600    0.0050   23.8660 C.3     1  UNL1        0.2426
     24 C         -30.0650   -1.3770   23.5730 C.3     1  UNL1        0.2292
     25 O         -30.7290   -1.8780   24.7210 O.3     1  UNL1       -0.2162
     26 C         -26.3540    0.5760   25.7770 C.2     1  UNL1        0.1931
     27 F         -25.8600   -0.6810   25.7950 F       1  UNL1       -0.1992
     28 C         -31.0127   -0.1102   27.9013 C.3     1  UNL1        0.1423
     29 O         -24.3935    2.2735   29.8496 O.3     1  UNL1       -0.2875
     30 N         -24.2939   -0.0142   29.2541 N.3     1  UNL1       -0.1675
     31 N         -20.7090    1.4549   27.4683 N.am    1  UNL1       -0.0678
     32 C         -26.4687    3.8531   30.3170 C.3     1  UNL1        0.0952
     33 N         -22.1231    0.8486   29.1400 N.am    1  UNL1       -0.1415
     34 C         -27.9029    3.4674   29.9621 C.3     1  UNL1        0.0952
     35 C         -28.7518    1.4123   28.9410 C.3     1  UNL1        0.1024
     36 O         -29.5983   -0.4706   27.7211 O.3     1  UNL1       -0.3523
     37 C         -23.4551    1.0292   29.8344 C.3     1  UNL1        0.2986
     38 C         -30.1435    2.1228   28.8796 C.3     1  UNL1        0.0225
     39 C         -21.8290    1.7448   28.2003 C.2     1  UNL1        0.3621
     40 C         -25.4534    3.1612   29.3027 C.3     1  UNL1        0.2928
     41 C         -31.2454    1.1159   28.7588 C.3     1  UNL1        0.0336
     42 C         -28.8212   -0.1285   28.9219 C.3     1  UNL1        0.1594
     43 N         -27.9556    2.0821   29.9175 N.3     1  UNL1       -0.2167
     44 O         -22.5619    2.7949   28.0039 O.2     1  UNL1       -0.2473
@<TRIPOS>BOND
     1     1    30    1
     2     2     7    1
     3     2     1    1
     4     3     2    2
     5     4     3    1
     6     4     5    2
     7     5     6    1
     8     6     7    2
     9     8     1    1
    10     8     9    1
    11     8    12    1
    12     9    10    1
    13    10    11    1
    14    12    11    1
    15    14    13    1
    16    14    15    1
    17    15    18    1
    18    16    17    1
    19    16    15    2
    20    18    40    1
    21    19    14    2
    22    20    21    2
    23    20    19    1
    24    21    26    1
    25    22    21    1
    26    23    22    1
    27    24    23    1
    28    24    25    1
    29    26    27    1
    30    26    13    2
    31    28    41    1
    32    30    37    1
    33    31    39    1
    34    34    32    1
    35    35    43    1
    36    36    28    1
    37    36    42    1
    38    37    33    1
    39    37    29    1
    40    38    35    1
    41    39    33    1
    42    40    29    1
    43    40    32    1
    44    41    38    1
    45    42    35    1
    46    43    34    1
    47    44    39    2
