@<TRIPOS>MOLECULE
outputs/IAG933/test6/raw/output_5904_IAG933_linker_design_.xyz
 43 46 0 0 0
SMALL
GASTEIGER

@<TRIPOS>ATOM
      1 C         -24.8550   -1.0120   30.1430 C.3     1  UNL1        0.1011
      2 C         -24.9730   -2.5050   29.7880 C.2     1  UNL1       -0.0063
      3 C         -23.9060   -3.1730   29.1460 C.2     1  UNL1       -0.0029
      4 C         -23.9890   -4.5490   28.8530 C.2     1  UNL1       -0.0003
      5 C         -25.1370   -5.2800   29.2050 C.2     1  UNL1       -0.0000
      6 C         -26.2320   -4.6110   29.7840 C.2     1  UNL1       -0.0003
      7 C         -26.1550   -3.2320   30.0650 C.2     1  UNL1       -0.0029
      8 C         -25.3870   -0.6790   31.5710 C.3     1  UNL1        0.0917
      9 C         -25.1890    0.7730   32.0280 C.3     1  UNL1        0.0206
     10 C         -25.3360    0.6840   33.5440 C.3     1  UNL1        0.0203
     11 C         -24.8290   -0.7150   33.9050 C.3     1  UNL1        0.0888
     12 N         -24.7580   -1.4810   32.6460 N.3     1  UNL1       -0.2178
     13 C         -25.6880    1.6140   26.4610 C.2     1  UNL1        0.0718
     14 C         -26.2500    2.9200   26.3950 C.2     1  UNL1        0.0696
     15 C         -25.6420    4.0930   27.1230 C.2     1  UNL1        0.2637
     16 N         -25.6140    5.2520   26.4490 N.am    1  UNL1       -0.2000
     17 C         -25.0260    6.4790   26.9630 C.3     1  UNL1        0.1388
     18 O         -25.1430    3.9660   28.2430 O.2     1  UNL1       -0.2686
     19 C         -27.4380    3.0910   25.6450 C.3     1  UNL1        0.1604
     20 N         -28.0750    2.0890   25.0030 N.2     1  UNL1       -0.2340
     21 C         -27.5430    0.8490   25.0790 C.2     1  UNL1        0.2355
     22 O         -28.1930   -0.2080   24.4770 O.2     1  UNL1       -0.4585
     23 C         -29.4600    0.0050   23.8660 C.3     1  UNL1        0.2423
     24 C         -30.0650   -1.3770   23.5730 C.3     1  UNL1        0.2292
     25 O         -30.7290   -1.8780   24.7210 O.3     1  UNL1       -0.2162
     26 C         -26.3540    0.5760   25.7770 C.3     1  UNL1        0.2708
     27 F         -25.8600   -0.6810   25.7950 F       1  UNL1       -0.2210
     28 O         -29.1842   -0.6840   28.3734 O.co2   1  UNL1       -0.2456
     29 N         -24.5459    0.1361   29.3200 N.3     1  UNL1       -0.2108
     30 C         -29.4690    0.4359   27.9363 C.2     1  UNL1        0.3663
     31 F         -22.4194   -0.3534   28.6647 F       1  UNL1       -0.2158
     32 N         -26.8096    0.6864   29.0716 N.3     1  UNL1       -0.1863
     33 C         -23.1958    0.6782   29.1327 C.3     1  UNL1        0.2600
     34 C         -28.0006    1.3621   29.6979 C.3     1  UNL1        0.0871
     35 CL        -22.9916    2.1829   25.6541 Cl      1  UNL1       -0.0896
     36 O         -30.2038    0.5865   26.9185 O.co2   1  UNL1       -0.2456
     37 C         -23.5273    1.7736   27.2124 C.3     1  UNL1        0.1927
     38 N         -24.8181    1.4049   27.3659 N.pl3   1  UNL1       -0.2689
     39 C         -28.9739    1.7065   28.5662 C.3     1  UNL1        0.1315
     40 C         -22.7078    1.8507   28.2707 C.3     1  UNL1        0.2425
     41 F         -21.4465    1.8978   27.9351 F       1  UNL1       -0.2296
     42 C         -28.7738    1.0032   30.9716 C.3     1  UNL1        0.0195
     43 C         -25.3534    0.8322   28.5737 C.3     1  UNL1        0.2170
@<TRIPOS>BOND
     1     1     2    1
     2     2     7    1
     3     3     2    2
     4     4     3    1
     5     4     5    2
     6     5     6    1
     7     6     7    2
     8     8     1    1
     9     8     9    1
    10     8    12    1
    11     9    10    1
    12    10    11    1
    13    12    11    1
    14    13    38    1
    15    14    13    2
    16    14    15    1
    17    15    18    2
    18    16    17    1
    19    16    15    1
    20    19    14    1
    21    20    21    2
    22    20    19    1
    23    21    26    1
    24    22    21    1
    25    23    22    1
    26    24    23    1
    27    24    25    1
    28    26    27    1
    29    26    13    1
    30    29     1    1
    31    30    28   ar
    32    30    39    1
    33    32    34    1
    34    33    31    1
    35    33    29    1
    36    34    42    1
    37    36    30   ar
    38    37    35    1
    39    37    38    1
    40    37    40    1
    41    38    43    1
    42    39    34    1
    43    40    41    1
    44    40    33    1
    45    43    32    1
    46    43    29    1
