@<TRIPOS>MOLECULE
outputs/IAG933/test6/raw/output_5906_IAG933_linker_design_.xyz
 43 47 0 0 0
SMALL
GASTEIGER

@<TRIPOS>ATOM
      1 C         -24.8550   -1.0120   30.1430 C.3     1  UNL1        0.0563
      2 C         -24.9730   -2.5050   29.7880 C.2     1  UNL1       -0.0197
      3 C         -23.9060   -3.1730   29.1460 C.2     1  UNL1       -0.0042
      4 C         -23.9890   -4.5490   28.8530 C.2     1  UNL1       -0.0003
      5 C         -25.1370   -5.2800   29.2050 C.2     1  UNL1       -0.0000
      6 C         -26.2320   -4.6110   29.7840 C.2     1  UNL1       -0.0003
      7 C         -26.1550   -3.2320   30.0650 C.2     1  UNL1       -0.0042
      8 C         -25.3870   -0.6790   31.5710 C.3     1  UNL1        0.0782
      9 C         -25.1890    0.7730   32.0280 C.3     1  UNL1        0.0192
     10 C         -25.3360    0.6840   33.5440 C.3     1  UNL1        0.0202
     11 C         -24.8290   -0.7150   33.9050 C.3     1  UNL1        0.0887
     12 N         -24.7580   -1.4810   32.6460 N.3     1  UNL1       -0.2191
     13 C         -25.6880    1.6140   26.4610 C.2     1  UNL1        0.0200
     14 C         -26.2500    2.9200   26.3950 C.2     1  UNL1        0.0713
     15 C         -25.6420    4.0930   27.1230 C.2     1  UNL1        0.2333
     16 N         -25.6140    5.2520   26.4490 N.2     1  UNL1       -0.2352
     17 C         -25.0260    6.4790   26.9630 C.3     1  UNL1        0.1550
     18 O         -25.1430    3.9660   28.2430 O.3     1  UNL1       -0.3735
     19 C         -27.4380    3.0910   25.6450 C.2     1  UNL1        0.1065
     20 N         -28.0750    2.0890   25.0030 N.2     1  UNL1       -0.2081
     21 C         -27.5430    0.8490   25.0790 C.2     1  UNL1        0.2530
     22 O         -28.1930   -0.2080   24.4770 O.2     1  UNL1       -0.4558
     23 C         -29.4600    0.0050   23.8660 C.3     1  UNL1        0.2426
     24 C         -30.0650   -1.3770   23.5730 C.3     1  UNL1        0.2292
     25 O         -30.7290   -1.8780   24.7210 O.3     1  UNL1       -0.2162
     26 C         -26.3540    0.5760   25.7770 C.2     1  UNL1        0.1894
     27 F         -25.8600   -0.6810   25.7950 F       1  UNL1       -0.1996
     28 C         -23.4688    1.2192   27.6155 C.2     1  UNL1       -0.0208
     29 C         -23.5643    0.5945   28.7321 C.2     1  UNL1       -0.0242
     30 C         -21.1440    0.4734   28.8543 C.2     1  UNL1       -0.0005
     31 C         -25.8815   -0.2578   29.1731 C.3     1  UNL1        0.1017
     32 C         -21.1167    1.1771   27.6494 C.2     1  UNL1        0.0006
     33 C         -22.3315    0.0933   29.4342 C.2     1  UNL1       -0.0045
     34 C         -22.3323    1.5597   26.9741 C.2     1  UNL1        0.0374
     35 O         -24.6973    3.4028   30.3004 O.co2   1  UNL1       -0.1996
     36 O         -26.7092    2.7562   29.7185 O.co2   1  UNL1       -0.1996
     37 C         -25.0529    0.9562   28.7880 C.3     1  UNL1        0.0481
     38 C         -24.7301    1.2726   27.3802 C.3     1  UNL1        0.0521
     39 C         -25.5739    3.3347   29.4830 C.2     1  UNL1        0.5579
     40 N         -27.3036   -0.0100   29.2670 N.3     1  UNL1       -0.1322
     41 F         -21.3764    2.2811   25.4860 F       1  UNL1       -0.1959
     42 O         -23.5841    1.8870   24.9708 O.3     1  UNL1       -0.1791
     43 C         -22.5538    2.3834   25.7846 C.3     1  UNL1        0.3318
@<TRIPOS>BOND
     1     1    31    1
     2     2     7    1
     3     2     1    1
     4     3     2    2
     5     4     3    1
     6     4     5    2
     7     5     6    1
     8     6     7    2
     9     8     1    1
    10     8     9    1
    11     8    12    1
    12     9    10    1
    13    10    11    1
    14    12    11    1
    15    14    13    1
    16    14    15    1
    17    15    18    1
    18    16    17    1
    19    16    15    2
    20    18    39    1
    21    19    14    2
    22    20    21    2
    23    20    19    1
    24    21    26    1
    25    22    21    1
    26    23    22    1
    27    24    23    1
    28    24    25    1
    29    26    27    1
    30    26    13    2
    31    28    29    1
    32    29    37    1
    33    29    33    2
    34    30    33    1
    35    31    40    1
    36    32    30    2
    37    34    28    2
    38    34    32    1
    39    37    31    1
    40    38    13    1
    41    38    28    1
    42    38    37    1
    43    39    36   ar
    44    39    35   ar
    45    41    43    1
    46    43    42    1
    47    43    34    1
