@<TRIPOS>MOLECULE
outputs/IAG933/test6/raw/output_5912_IAG933_linker_design_.xyz
 45 50 0 0 0
SMALL
GASTEIGER

@<TRIPOS>ATOM
      1 C         -24.8550   -1.0120   30.1430 C.3     1  UNL1        0.0407
      2 C         -24.9730   -2.5050   29.7880 C.2     1  UNL1       -0.0211
      3 C         -23.9060   -3.1730   29.1460 C.2     1  UNL1       -0.0042
      4 C         -23.9890   -4.5490   28.8530 C.2     1  UNL1       -0.0003
      5 C         -25.1370   -5.2800   29.2050 C.2     1  UNL1       -0.0000
      6 C         -26.2320   -4.6110   29.7840 C.2     1  UNL1       -0.0003
      7 C         -26.1550   -3.2320   30.0650 C.2     1  UNL1       -0.0042
      8 C         -25.3870   -0.6790   31.5710 C.3     1  UNL1        0.0769
      9 C         -25.1890    0.7730   32.0280 C.3     1  UNL1        0.0192
     10 C         -25.3360    0.6840   33.5440 C.3     1  UNL1        0.0202
     11 C         -24.8290   -0.7150   33.9050 C.3     1  UNL1        0.0887
     12 N         -24.7580   -1.4810   32.6460 N.3     1  UNL1       -0.2191
     13 C         -25.6880    1.6140   26.4610 C.3     1  UNL1        0.1437
     14 C         -26.2500    2.9200   26.3950 C.2     1  UNL1        0.0730
     15 C         -25.6420    4.0930   27.1230 C.2     1  UNL1        0.2640
     16 N         -25.6140    5.2520   26.4490 N.am    1  UNL1       -0.1999
     17 C         -25.0260    6.4790   26.9630 C.3     1  UNL1        0.1388
     18 O         -25.1430    3.9660   28.2430 O.2     1  UNL1       -0.2686
     19 C         -27.4380    3.0910   25.6450 C.2     1  UNL1        0.1038
     20 N         -28.0750    2.0890   25.0030 N.2     1  UNL1       -0.2118
     21 C         -27.5430    0.8490   25.0790 C.2     1  UNL1        0.2358
     22 O         -28.1930   -0.2080   24.4770 O.2     1  UNL1       -0.4585
     23 C         -29.4600    0.0050   23.8660 C.3     1  UNL1        0.2423
     24 C         -30.0650   -1.3770   23.5730 C.3     1  UNL1        0.2292
     25 O         -30.7290   -1.8780   24.7210 O.3     1  UNL1       -0.2162
     26 C         -26.3540    0.5760   25.7770 C.3     1  UNL1        0.2580
     27 F         -25.8600   -0.6810   25.7950 F       1  UNL1       -0.2251
     28 C         -29.8199    2.8033   28.3657 C.2     1  UNL1        0.0001
     29 C         -29.4249    3.9171   29.1111 C.2     1  UNL1        0.0000
     30 O         -21.1270    1.7486   25.9561 O.2     1  UNL1       -0.4678
     31 C         -27.7355    1.6293   28.9807 C.2     1  UNL1        0.0364
     32 C         -27.4349    2.7081   29.8519 C.2     1  UNL1        0.0029
     33 C         -23.5715    1.4948   27.0058 C.2     1  UNL1        0.0466
     34 C         -22.8991    0.4238   29.0756 C.3     1  UNL1        0.0332
     35 C         -23.3978    2.1694   25.7409 C.2     1  UNL1        0.0350
     36 C         -22.1283    2.2951   25.2022 C.3     1  UNL1        0.2332
     37 C         -26.7675    0.4688   28.6871 C.2     1  UNL1        0.1908
     38 C         -28.2647    3.8524   29.9045 C.2     1  UNL1        0.0001
     39 N         -24.8555    1.1876   27.2632 N.pl3   1  UNL1       -0.2977
     40 C         -21.3332    1.2563   27.1771 C.2     1  UNL1        0.1696
     41 C         -24.3381    0.0251   29.2088 C.3     1  UNL1        0.0356
     42 C         -28.9947    1.6502   28.3523 C.2     1  UNL1        0.0029
     43 O         -27.2112   -0.6604   28.7040 O.2     1  UNL1       -0.2896
     44 C         -22.5799    1.0636   27.7913 C.2     1  UNL1        0.0280
     45 C         -25.3190    0.6427   28.3553 C.3     1  UNL1        0.1358
@<TRIPOS>BOND
     1     1     2    1
     2     2     7    1
     3     3     2    2
     4     4     3    1
     5     4     5    2
     6     5     6    1
     7     6     7    2
     8     8     1    1
     9     8     9    1
    10     8    12    1
    11     9    10    1
    12    10    11    1
    13    12    11    1
    14    13    39    1
    15    14    13    1
    16    14    15    1
    17    15    18    2
    18    16    17    1
    19    16    15    1
    20    19    14    2
    21    20    21    2
    22    20    19    1
    23    21    26    1
    24    22    21    1
    25    23    22    1
    26    24    23    1
    27    24    25    1
    28    26    27    1
    29    26    13    1
    30    28    29    1
    31    29    38    2
    32    30    40    1
    33    31    32    2
    34    32    38    1
    35    33    39    1
    36    33    44    1
    37    34    41    1
    38    35    33    2
    39    36    35    1
    40    36    30    1
    41    37    43    2
    42    37    31    1
    43    39    45    1
    44    40    44    2
    45    41     1    1
    46    42    28    2
    47    42    31    1
    48    44    34    1
    49    45    37    1
    50    45    41    1
