@<TRIPOS>MOLECULE
outputs/IAG933/test6/raw/output_5915_IAG933_linker_design_.xyz
 42 45 0 0 0
SMALL
GASTEIGER

@<TRIPOS>ATOM
      1 C         -24.8550   -1.0120   30.1430 C.3     1  UNL1        0.0747
      2 C         -24.9730   -2.5050   29.7880 C.2     1  UNL1       -0.0181
      3 C         -23.9060   -3.1730   29.1460 C.2     1  UNL1       -0.0041
      4 C         -23.9890   -4.5490   28.8530 C.2     1  UNL1       -0.0003
      5 C         -25.1370   -5.2800   29.2050 C.2     1  UNL1       -0.0000
      6 C         -26.2320   -4.6110   29.7840 C.2     1  UNL1       -0.0003
      7 C         -26.1550   -3.2320   30.0650 C.2     1  UNL1       -0.0041
      8 C         -25.3870   -0.6790   31.5710 C.3     1  UNL1        0.0799
      9 C         -25.1890    0.7730   32.0280 C.3     1  UNL1        0.0193
     10 C         -25.3360    0.6840   33.5440 C.3     1  UNL1        0.0202
     11 C         -24.8290   -0.7150   33.9050 C.3     1  UNL1        0.0887
     12 N         -24.7580   -1.4810   32.6460 N.3     1  UNL1       -0.2190
     13 C         -25.6880    1.6140   26.4610 C.2     1  UNL1        0.0534
     14 C         -26.2500    2.9200   26.3950 C.2     1  UNL1        0.0778
     15 C         -25.6420    4.0930   27.1230 C.2     1  UNL1        0.2665
     16 N         -25.6140    5.2520   26.4490 N.am    1  UNL1       -0.1997
     17 C         -25.0260    6.4790   26.9630 C.3     1  UNL1        0.1388
     18 O         -25.1430    3.9660   28.2430 O.2     1  UNL1       -0.2683
     19 C         -27.4380    3.0910   25.6450 C.2     1  UNL1        0.1068
     20 N         -28.0750    2.0890   25.0030 N.2     1  UNL1       -0.2081
     21 C         -27.5430    0.8490   25.0790 C.2     1  UNL1        0.2533
     22 O         -28.1930   -0.2080   24.4770 O.2     1  UNL1       -0.4558
     23 C         -29.4600    0.0050   23.8660 C.3     1  UNL1        0.2426
     24 C         -30.0650   -1.3770   23.5730 C.3     1  UNL1        0.2292
     25 O         -30.7290   -1.8780   24.7210 O.3     1  UNL1       -0.2162
     26 C         -26.3540    0.5760   25.7770 C.2     1  UNL1        0.1943
     27 F         -25.8600   -0.6810   25.7950 F       1  UNL1       -0.1992
     28 F         -21.0780    1.6894   27.5796 F       1  UNL1       -0.1922
     29 C         -29.8005   -0.5576   29.8732 C.3     1  UNL1        0.0371
     30 CL        -22.8686    2.1067   25.6163 Cl      1  UNL1       -0.0799
     31 F         -22.3233    0.5529   29.1605 F       1  UNL1       -0.1922
     32 C         -27.5118    0.5041   29.6128 C.3     1  UNL1        0.1408
     33 N         -25.1644    1.0098   28.6528 N.pl3   1  UNL1       -0.2332
     34 C         -23.3377    1.5563   27.1679 C.2     1  UNL1        0.1158
     35 O         -29.0161   -0.3057   27.6927 O.3     1  UNL1       -0.2216
     36 C         -24.9865   -0.0283   29.2453 C.3     1  UNL1        0.1696
     37 C         -28.5421   -0.4921   29.0186 C.3     1  UNL1        0.1708
     38 C         -24.5571    1.3062   27.3365 C.2     1  UNL1        0.0781
     39 N         -26.2256    0.4666   28.8325 N.3     1  UNL1       -0.1813
     40 C         -22.2713    1.4459   28.1555 C.3     1  UNL1        0.3525
     41 C         -27.8195    1.9765   29.3610 C.3     1  UNL1        0.2022
     42 O         -28.5627    2.1169   28.1949 O.3     1  UNL1       -0.2188
@<TRIPOS>BOND
     1     1     2    1
     2     2     7    1
     3     3     2    2
     4     4     3    1
     5     4     5    2
     6     5     6    1
     7     6     7    2
     8     8     1    1
     9     8     9    1
    10     8    12    1
    11     9    10    1
    12    10    11    1
    13    12    11    1
    14    13    38    1
    15    14    13    1
    16    14    15    1
    17    15    18    2
    18    16    17    1
    19    16    15    1
    20    19    14    2
    21    20    21    2
    22    20    19    1
    23    21    26    1
    24    22    21    1
    25    23    22    1
    26    24    23    1
    27    24    25    1
    28    26    27    1
    29    26    13    2
    30    28    40    1
    31    30    34    1
    32    32    41    1
    33    33    39    1
    34    33    36    1
    35    34    38    2
    36    34    40    1
    37    35    37    1
    38    36     1    1
    39    37    32    1
    40    37    29    1
    41    38    33    1
    42    39    36    1
    43    39    32    1
    44    40    31    1
    45    42    41    1
