@<TRIPOS>MOLECULE
outputs/IAG933/test6/raw/output_5922_IAG933_linker_design_.xyz
 43 47 0 0 0
SMALL
GASTEIGER

@<TRIPOS>ATOM
      1 C         -24.8550   -1.0120   30.1430 C.3     1  UNL1        0.0418
      2 C         -24.9730   -2.5050   29.7880 C.2     1  UNL1       -0.0210
      3 C         -23.9060   -3.1730   29.1460 C.2     1  UNL1       -0.0042
      4 C         -23.9890   -4.5490   28.8530 C.2     1  UNL1       -0.0003
      5 C         -25.1370   -5.2800   29.2050 C.2     1  UNL1       -0.0000
      6 C         -26.2320   -4.6110   29.7840 C.2     1  UNL1       -0.0003
      7 C         -26.1550   -3.2320   30.0650 C.2     1  UNL1       -0.0042
      8 C         -25.3870   -0.6790   31.5710 C.3     1  UNL1        0.0769
      9 C         -25.1890    0.7730   32.0280 C.3     1  UNL1        0.0192
     10 C         -25.3360    0.6840   33.5440 C.3     1  UNL1        0.0202
     11 C         -24.8290   -0.7150   33.9050 C.3     1  UNL1        0.0887
     12 N         -24.7580   -1.4810   32.6460 N.3     1  UNL1       -0.2191
     13 C         -25.6880    1.6140   26.4610 C.2     1  UNL1        0.0883
     14 C         -26.2500    2.9200   26.3950 C.2     1  UNL1        0.0899
     15 C         -25.6420    4.0930   27.1230 C.2     1  UNL1        0.2676
     16 N         -25.6140    5.2520   26.4490 N.am    1  UNL1       -0.1997
     17 C         -25.0260    6.4790   26.9630 C.3     1  UNL1        0.1388
     18 O         -25.1430    3.9660   28.2430 O.2     1  UNL1       -0.2683
     19 C         -27.4380    3.0910   25.6450 C.2     1  UNL1        0.1080
     20 N         -28.0750    2.0890   25.0030 N.2     1  UNL1       -0.2080
     21 C         -27.5430    0.8490   25.0790 C.2     1  UNL1        0.2546
     22 O         -28.1930   -0.2080   24.4770 O.2     1  UNL1       -0.4559
     23 C         -29.4600    0.0050   23.8660 C.3     1  UNL1        0.2391
     24 C         -30.0650   -1.3770   23.5730 C.3     1  UNL1        0.1894
     25 O         -30.7290   -1.8780   24.7210 O.3     1  UNL1       -0.3483
     26 C         -26.3540    0.5760   25.7770 C.2     1  UNL1        0.2063
     27 F         -25.8600   -0.6810   25.7950 F       1  UNL1       -0.1979
     28 C         -23.1972    1.4128   27.3430 C.3     1  UNL1        0.1550
     29 N         -24.6301    1.2185   27.2544 N.pl3   1  UNL1       -0.2783
     30 C         -24.5543   -0.4081   28.8270 C.3     1  UNL1        0.0482
     31 C         -30.1486   -0.4198   26.6023 C.3     1  UNL1        0.1049
     32 C         -25.3946    0.8220   28.6018 C.3     1  UNL1        0.1713
     33 C         -31.2620   -1.0192   25.7463 C.3     1  UNL1        0.1596
     34 C         -22.1421    1.2508   28.3275 C.3     1  UNL1        0.0398
     35 N         -26.7916    0.2561   28.8997 N.am    1  UNL1       -0.1855
     36 N         -30.3529   -0.2310   28.0640 N.3     1  UNL1       -0.2644
     37 C         -29.9820   -0.6828   30.3523 C.3     1  UNL1        0.0268
     38 O         -27.9738    1.6450   30.3856 O.2     1  UNL1       -0.2718
     39 C         -28.0122    0.7950   29.5199 C.2     1  UNL1        0.2573
     40 C         -29.4296    0.1673   29.1196 C.3     1  UNL1        0.1366
     41 C         -31.6364   -0.4060   28.7167 C.3     1  UNL1        0.0726
     42 C         -31.3813   -1.2353   29.9878 C.3     1  UNL1        0.0192
     43 CL        -22.6073    2.2326   25.8619 Cl      1  UNL1       -0.0928
@<TRIPOS>BOND
     1     1    30    1
     2     2     7    1
     3     2     1    1
     4     3     2    2
     5     4     3    1
     6     4     5    2
     7     5     6    1
     8     6     7    2
     9     8     1    1
    10     8     9    1
    11     8    12    1
    12     9    10    1
    13    10    11    1
    14    12    11    1
    15    13    29    1
    16    14    13    1
    17    14    15    1
    18    15    18    2
    19    16    17    1
    20    16    15    1
    21    19    14    2
    22    20    21    2
    23    20    19    1
    24    21    26    1
    25    22    21    1
    26    23    22    1
    27    24    23    1
    28    24    25    1
    29    25    33    1
    30    26    27    1
    31    26    13    2
    32    28    34    1
    33    29    28    1
    34    29    32    1
    35    32    30    1
    36    32    35    1
    37    33    31    1
    38    35    39    1
    39    36    31    1
    40    36    41    1
    41    36    40    1
    42    39    38    2
    43    40    39    1
    44    40    37    1
    45    41    42    1
    46    42    37    1
    47    43    28    1
