@<TRIPOS>MOLECULE
outputs/IAG933/test6/raw/output_5925_IAG933_linker_design_.xyz
 43 47 0 0 0
SMALL
GASTEIGER

@<TRIPOS>ATOM
      1 C         -24.8550   -1.0120   30.1430 C.3     1  UNL1        0.0573
      2 C         -24.9730   -2.5050   29.7880 C.2     1  UNL1       -0.0195
      3 C         -23.9060   -3.1730   29.1460 C.2     1  UNL1       -0.0042
      4 C         -23.9890   -4.5490   28.8530 C.2     1  UNL1       -0.0003
      5 C         -25.1370   -5.2800   29.2050 C.2     1  UNL1       -0.0000
      6 C         -26.2320   -4.6110   29.7840 C.2     1  UNL1       -0.0003
      7 C         -26.1550   -3.2320   30.0650 C.2     1  UNL1       -0.0042
      8 C         -25.3870   -0.6790   31.5710 C.3     1  UNL1        0.0784
      9 C         -25.1890    0.7730   32.0280 C.3     1  UNL1        0.0192
     10 C         -25.3360    0.6840   33.5440 C.3     1  UNL1        0.0202
     11 C         -24.8290   -0.7150   33.9050 C.3     1  UNL1        0.0887
     12 N         -24.7580   -1.4810   32.6460 N.3     1  UNL1       -0.2191
     13 C         -25.6880    1.6140   26.4610 C.3     1  UNL1        0.0943
     14 C         -26.2500    2.9200   26.3950 C.2     1  UNL1        0.0590
     15 C         -25.6420    4.0930   27.1230 C.2     1  UNL1        0.2628
     16 N         -25.6140    5.2520   26.4490 N.am    1  UNL1       -0.2000
     17 C         -25.0260    6.4790   26.9630 C.3     1  UNL1        0.1388
     18 O         -25.1430    3.9660   28.2430 O.2     1  UNL1       -0.2686
     19 C         -27.4380    3.0910   25.6450 C.2     1  UNL1        0.1025
     20 N         -28.0750    2.0890   25.0030 N.2     1  UNL1       -0.2118
     21 C         -27.5430    0.8490   25.0790 C.2     1  UNL1        0.2344
     22 O         -28.1930   -0.2080   24.4770 O.2     1  UNL1       -0.4585
     23 C         -29.4600    0.0050   23.8660 C.3     1  UNL1        0.2423
     24 C         -30.0650   -1.3770   23.5730 C.3     1  UNL1        0.2292
     25 O         -30.7290   -1.8780   24.7210 O.3     1  UNL1       -0.2162
     26 C         -26.3540    0.5760   25.7770 C.3     1  UNL1        0.2441
     27 F         -25.8600   -0.6810   25.7950 F       1  UNL1       -0.2265
     28 C         -29.3191    0.5238   28.1096 C.3     1  UNL1        0.1452
     29 C         -27.6813    0.5882   29.8686 C.3     1  UNL1        0.2201
     30 C         -21.5211    1.3153   27.7973 C.2     1  UNL1        0.0316
     31 N         -26.7297    0.0478   28.8392 N.3     1  UNL1       -0.2447
     32 C         -27.4337   -1.1475   28.1479 C.3     1  UNL1        0.0771
     33 C         -29.6333   -1.6817   29.3004 C.3     1  UNL1        0.0040
     34 C         -28.9268   -0.9617   28.1437 C.3     1  UNL1        0.0458
     35 F         -23.4448    2.6264   24.9460 F       1  UNL1       -0.2045
     36 F         -22.3699    0.3829   29.8210 F       1  UNL1       -0.2045
     37 C         -22.5938    0.8120   28.5457 C.2     1  UNL1        0.1372
     38 C         -23.1687    1.9576   26.0282 C.2     1  UNL1        0.1364
     39 C         -23.9988    0.7673   28.0947 C.2     1  UNL1        0.0187
     40 C         -25.1663    0.0630   28.9559 C.3     1  UNL1        0.0894
     41 C         -21.8148    1.8517   26.5096 C.2     1  UNL1        0.0316
     42 C         -24.2752    1.4494   26.8343 C.2     1  UNL1        0.0119
     43 O         -28.8430    1.1408   29.3413 O.3     1  UNL1       -0.3373
@<TRIPOS>BOND
     1     1    40    1
     2     2     7    1
     3     2     1    1
     4     3     2    2
     5     4     3    1
     6     4     5    2
     7     5     6    1
     8     6     7    2
     9     8     1    1
    10     8     9    1
    11     8    12    1
    12     9    10    1
    13    10    11    1
    14    12    11    1
    15    13    42    1
    16    14    13    1
    17    14    15    1
    18    15    18    2
    19    16    17    1
    20    16    15    1
    21    19    14    2
    22    20    21    2
    23    20    19    1
    24    21    26    1
    25    22    21    1
    26    23    22    1
    27    24    23    1
    28    24    25    1
    29    26    27    1
    30    26    13    1
    31    28    34    1
    32    28    43    1
    33    30    37    1
    34    31    40    1
    35    31    29    1
    36    32    31    1
    37    34    32    1
    38    34    33    1
    39    35    38    1
    40    37    36    1
    41    38    41    1
    42    38    42    2
    43    39    37    2
    44    40    39    1
    45    41    30    2
    46    42    39    1
    47    43    29    1
