@<TRIPOS>MOLECULE
outputs/IAG933/test6/raw/output_5926_IAG933_linker_design_.xyz
 44 48 0 0 0
SMALL
GASTEIGER

@<TRIPOS>ATOM
      1 C         -24.8550   -1.0120   30.1430 C.3     1  UNL1        0.1532
      2 C         -24.9730   -2.5050   29.7880 C.2     1  UNL1        0.0059
      3 C         -23.9060   -3.1730   29.1460 C.2     1  UNL1       -0.0019
      4 C         -23.9890   -4.5490   28.8530 C.2     1  UNL1       -0.0002
      5 C         -25.1370   -5.2800   29.2050 C.2     1  UNL1       -0.0000
      6 C         -26.2320   -4.6110   29.7840 C.2     1  UNL1       -0.0002
      7 C         -26.1550   -3.2320   30.0650 C.2     1  UNL1       -0.0019
      8 C         -25.3870   -0.6790   31.5710 C.3     1  UNL1        0.1041
      9 C         -25.1890    0.7730   32.0280 C.3     1  UNL1        0.0217
     10 C         -25.3360    0.6840   33.5440 C.3     1  UNL1        0.0203
     11 C         -24.8290   -0.7150   33.9050 C.3     1  UNL1        0.0888
     12 N         -24.7580   -1.4810   32.6460 N.3     1  UNL1       -0.2166
     13 C         -25.6880    1.6140   26.4610 C.3     1  UNL1        0.0918
     14 C         -26.2500    2.9200   26.3950 C.2     1  UNL1        0.0587
     15 C         -25.6420    4.0930   27.1230 C.2     1  UNL1        0.2627
     16 N         -25.6140    5.2520   26.4490 N.am    1  UNL1       -0.2000
     17 C         -25.0260    6.4790   26.9630 C.3     1  UNL1        0.1388
     18 O         -25.1430    3.9660   28.2430 O.2     1  UNL1       -0.2686
     19 C         -27.4380    3.0910   25.6450 C.2     1  UNL1        0.1025
     20 N         -28.0750    2.0890   25.0030 N.2     1  UNL1       -0.2118
     21 C         -27.5430    0.8490   25.0790 C.2     1  UNL1        0.2344
     22 O         -28.1930   -0.2080   24.4770 O.2     1  UNL1       -0.4585
     23 C         -29.4600    0.0050   23.8660 C.3     1  UNL1        0.2423
     24 C         -30.0650   -1.3770   23.5730 C.3     1  UNL1        0.2292
     25 O         -30.7290   -1.8780   24.7210 O.3     1  UNL1       -0.2162
     26 C         -26.3540    0.5760   25.7770 C.3     1  UNL1        0.2438
     27 F         -25.8600   -0.6810   25.7950 F       1  UNL1       -0.2265
     28 C         -24.2950    1.5634   26.7973 C.2     1  UNL1        0.0083
     29 C         -28.8102    6.7653   31.0609 C.3     1  UNL1        0.0000
     30 N         -20.5506    0.6047   27.7663 N.2     1  UNL1       -0.2095
     31 N         -22.1878   -0.2071   29.1320 N.2     1  UNL1       -0.2435
     32 C         -21.7406    1.1058   27.3523 C.2     1  UNL1        0.2410
     33 O         -25.5328   -0.2552   29.1844 O.3     1  UNL1       -0.3522
     34 C         -26.7714    5.2263   31.2785 C.3     1  UNL1        0.0000
     35 C         -27.6041    6.1121   30.3974 C.3     1  UNL1        0.0000
     36 C         -22.6571    0.6542   28.2232 C.2     1  UNL1        0.1148
     37 C         -23.9663    1.0596   28.0494 C.3     1  UNL1        0.0934
     38 C         -24.9620    1.1310   29.0497 C.3     1  UNL1        0.1251
     39 C         -26.5238    2.8614   30.5380 C.3     1  UNL1        0.0025
     40 C         -25.9120    4.2780   30.4487 C.3     1  UNL1        0.0001
     41 C         -20.8662   -0.2829   28.8150 C.3     1  UNL1        0.2534
     42 C         -25.9210    1.9869   29.4939 C.3     1  UNL1        0.0303
     43 C         -23.3144    1.9657   25.8420 C.2     1  UNL1        0.1738
     44 O         -21.9489    1.8980   26.2784 O.2     1  UNL1       -0.4329
@<TRIPOS>BOND
     1     1    33    1
     2     2     7    1
     3     2     1    1
     4     3     2    2
     5     4     3    1
     6     4     5    2
     7     5     6    1
     8     6     7    2
     9     8     1    1
    10     8     9    1
    11     8    12    1
    12     9    10    1
    13    10    11    1
    14    12    11    1
    15    13    28    1
    16    14    13    1
    17    14    15    1
    18    15    18    2
    19    16    17    1
    20    16    15    1
    21    19    14    2
    22    20    21    2
    23    20    19    1
    24    21    26    1
    25    22    21    1
    26    23    22    1
    27    24    23    1
    28    24    25    1
    29    26    27    1
    30    26    13    1
    31    28    37    1
    32    30    41    1
    33    32    30    2
    34    32    36    1
    35    35    29    1
    36    35    34    1
    37    36    31    2
    38    37    36    1
    39    37    38    1
    40    38    33    1
    41    38    42    1
    42    40    39    1
    43    40    34    1
    44    41    31    1
    45    42    39    1
    46    43    44    1
    47    43    28    2
    48    44    32    1
