@<TRIPOS>MOLECULE
outputs/IAG933/test6/raw/output_5935_IAG933_linker_design_.xyz
 42 45 0 0 0
SMALL
GASTEIGER

@<TRIPOS>ATOM
      1 C         -24.8550   -1.0120   30.1430 C.3     1  UNL1        0.0583
      2 C         -24.9730   -2.5050   29.7880 C.2     1  UNL1       -0.0195
      3 C         -23.9060   -3.1730   29.1460 C.2     1  UNL1       -0.0042
      4 C         -23.9890   -4.5490   28.8530 C.2     1  UNL1       -0.0003
      5 C         -25.1370   -5.2800   29.2050 C.2     1  UNL1       -0.0000
      6 C         -26.2320   -4.6110   29.7840 C.2     1  UNL1       -0.0003
      7 C         -26.1550   -3.2320   30.0650 C.2     1  UNL1       -0.0042
      8 C         -25.3870   -0.6790   31.5710 C.3     1  UNL1        0.0785
      9 C         -25.1890    0.7730   32.0280 C.3     1  UNL1        0.0192
     10 C         -25.3360    0.6840   33.5440 C.3     1  UNL1        0.0202
     11 C         -24.8290   -0.7150   33.9050 C.3     1  UNL1        0.0887
     12 N         -24.7580   -1.4810   32.6460 N.3     1  UNL1       -0.2191
     13 C         -25.6880    1.6140   26.4610 C.3     1  UNL1        0.1622
     14 C         -26.2500    2.9200   26.3950 C.2     1  UNL1        0.0747
     15 C         -25.6420    4.0930   27.1230 C.2     1  UNL1        0.2641
     16 N         -25.6140    5.2520   26.4490 N.am    1  UNL1       -0.1999
     17 C         -25.0260    6.4790   26.9630 C.3     1  UNL1        0.1388
     18 O         -25.1430    3.9660   28.2430 O.2     1  UNL1       -0.2686
     19 C         -27.4380    3.0910   25.6450 C.2     1  UNL1        0.1038
     20 N         -28.0750    2.0890   25.0030 N.2     1  UNL1       -0.2118
     21 C         -27.5430    0.8490   25.0790 C.2     1  UNL1        0.2359
     22 O         -28.1930   -0.2080   24.4770 O.2     1  UNL1       -0.4585
     23 C         -29.4600    0.0050   23.8660 C.3     1  UNL1        0.2423
     24 C         -30.0650   -1.3770   23.5730 C.3     1  UNL1        0.2292
     25 O         -30.7290   -1.8780   24.7210 O.3     1  UNL1       -0.2162
     26 C         -26.3540    0.5760   25.7770 C.3     1  UNL1        0.2598
     27 F         -25.8600   -0.6810   25.7950 F       1  UNL1       -0.2250
     28 C         -23.3571    1.3335   27.0278 C.2     1  UNL1        0.1091
     29 C         -22.2199    1.8598   26.5118 C.2     1  UNL1        0.1562
     30 C         -20.9857    1.5866   27.0916 C.2     1  UNL1        0.0324
     31 C         -25.8918   -0.3459   29.1368 C.3     1  UNL1        0.1004
     32 C         -27.3173    0.4813   29.2044 C.3     1  UNL1        0.0540
     33 N         -22.1396   -0.5010   29.8700 N.pl3   1  UNL1       -0.1267
     34 C         -28.8847    2.2611   30.5216 C.3     1  UNL1        0.1741
     35 N         -24.8133   -0.0641   28.1802 N.pl3   1  UNL1       -0.2362
     36 N         -24.3625    1.7899   26.3976 N.pl3   1  UNL1       -0.2278
     37 C         -26.8529    1.9180   29.4703 C.3     1  UNL1        0.1441
     38 C         -23.4979    0.4334   28.0273 C.2     1  UNL1        0.0989
     39 F         -22.2667    2.5869   25.3605 F       1  UNL1       -0.2028
     40 O         -27.8812    2.8847   29.7551 O.3     1  UNL1       -0.3510
     41 C         -21.0113    0.7449   28.2207 C.2     1  UNL1        0.0218
     42 C         -22.2489    0.2134   28.7199 C.2     1  UNL1        0.1052
@<TRIPOS>BOND
     1     1    31    1
     2     2     7    1
     3     2     1    1
     4     3     2    2
     5     4     3    1
     6     4     5    2
     7     5     6    1
     8     6     7    2
     9     8     1    1
    10     8     9    1
    11     8    12    1
    12     9    10    1
    13    10    11    1
    14    12    11    1
    15    13    36    1
    16    14    13    1
    17    14    15    1
    18    15    18    2
    19    16    17    1
    20    16    15    1
    21    19    14    2
    22    20    21    2
    23    20    19    1
    24    21    26    1
    25    22    21    1
    26    23    22    1
    27    24    23    1
    28    24    25    1
    29    26    27    1
    30    26    13    1
    31    28    38    1
    32    29    28    2
    33    29    30    1
    34    30    41    2
    35    31    32    1
    36    32    37    1
    37    35    31    1
    38    36    28    1
    39    37    40    1
    40    38    35    1
    41    38    42    2
    42    39    29    1
    43    40    34    1
    44    41    42    1
    45    42    33    1
