@<TRIPOS>MOLECULE
outputs/IAG933/test6/raw/output_5938_IAG933_linker_design_.xyz
 44 48 0 0 0
SMALL
GASTEIGER

@<TRIPOS>ATOM
      1 C         -24.8550   -1.0120   30.1430 C.3     1  UNL1        0.0438
      2 C         -24.9730   -2.5050   29.7880 C.2     1  UNL1       -0.0208
      3 C         -23.9060   -3.1730   29.1460 C.2     1  UNL1       -0.0042
      4 C         -23.9890   -4.5490   28.8530 C.2     1  UNL1       -0.0003
      5 C         -25.1370   -5.2800   29.2050 C.2     1  UNL1       -0.0000
      6 C         -26.2320   -4.6110   29.7840 C.2     1  UNL1       -0.0003
      7 C         -26.1550   -3.2320   30.0650 C.2     1  UNL1       -0.0042
      8 C         -25.3870   -0.6790   31.5710 C.3     1  UNL1        0.0787
      9 C         -25.1890    0.7730   32.0280 C.3     1  UNL1        0.0364
     10 C         -25.3360    0.6840   33.5440 C.3     1  UNL1        0.0219
     11 C         -24.8290   -0.7150   33.9050 C.3     1  UNL1        0.0888
     12 N         -24.7580   -1.4810   32.6460 N.3     1  UNL1       -0.2191
     13 C         -25.6880    1.6140   26.4610 C.3     1  UNL1        0.1514
     14 C         -26.2500    2.9200   26.3950 C.2     1  UNL1        0.0735
     15 C         -25.6420    4.0930   27.1230 C.2     1  UNL1        0.2640
     16 N         -25.6140    5.2520   26.4490 N.am    1  UNL1       -0.1999
     17 C         -25.0260    6.4790   26.9630 C.3     1  UNL1        0.1388
     18 O         -25.1430    3.9660   28.2430 O.2     1  UNL1       -0.2686
     19 C         -27.4380    3.0910   25.6450 C.2     1  UNL1        0.1038
     20 N         -28.0750    2.0890   25.0030 N.2     1  UNL1       -0.2118
     21 C         -27.5430    0.8490   25.0790 C.2     1  UNL1        0.2359
     22 O         -28.1930   -0.2080   24.4770 O.2     1  UNL1       -0.4585
     23 C         -29.4600    0.0050   23.8660 C.3     1  UNL1        0.2423
     24 C         -30.0650   -1.3770   23.5730 C.3     1  UNL1        0.2292
     25 O         -30.7290   -1.8780   24.7210 O.3     1  UNL1       -0.2162
     26 C         -26.3540    0.5760   25.7770 C.3     1  UNL1        0.2585
     27 F         -25.8600   -0.6810   25.7950 F       1  UNL1       -0.2250
     28 N         -24.7936    1.4082   27.7280 N.am    1  UNL1       -0.2307
     29 C         -25.4733    2.4281   31.6141 C.3     1  UNL1        0.0862
     30 C         -23.3126    1.4135   27.4960 C.2     1  UNL1        0.1336
     31 O         -26.4520    5.2089   32.9182 O.3     1  UNL1       -0.3561
     32 N         -21.1491    1.1991   28.4364 N.2     1  UNL1       -0.1528
     33 C         -27.0058    2.8090   31.9683 C.3     1  UNL1        0.0522
     34 C         -25.2174    6.7170   31.4290 C.3     1  UNL1        0.0321
     35 C         -25.7467    5.2866   31.6951 C.3     1  UNL1        0.1170
     36 O         -26.5783    1.0591   29.2526 O.2     1  UNL1       -0.2504
     37 N         -24.9788    2.3737   30.1797 N.am    1  UNL1       -0.1914
     38 C         -22.4950    1.0531   28.6387 C.2     1  UNL1        0.1393
     39 C         -24.7319    4.1006   31.6792 C.3     1  UNL1        0.0497
     40 N         -21.1503    1.7082   27.0748 N.am    1  UNL1       -0.0741
     41 O         -22.7674    2.1528   25.4110 O.2     1  UNL1       -0.2651
     42 C         -25.5238    1.7348   29.0563 C.2     1  UNL1        0.3273
     43 C         -22.4270    1.7724   26.5428 C.2     1  UNL1        0.3014
     44 C         -27.2143    3.9757   32.9837 C.3     1  UNL1        0.1438
@<TRIPOS>BOND
     1     2     7    1
     2     2     1    1
     3     3     2    2
     4     4     3    1
     5     4     5    2
     6     5     6    1
     7     6     7    2
     8     8     1    1
     9     8     9    1
    10     8    12    1
    11     9    10    1
    12    10    11    1
    13    12    11    1
    14    13    28    1
    15    14    13    1
    16    14    15    1
    17    15    18    2
    18    16    17    1
    19    16    15    1
    20    19    14    2
    21    20    21    2
    22    20    19    1
    23    21    26    1
    24    22    21    1
    25    23    22    1
    26    24    23    1
    27    24    25    1
    28    26    27    1
    29    26    13    1
    30    28    42   am
    31    29    37    1
    32    29    39    1
    33    29    33    1
    34    29     9    1
    35    30    28    1
    36    30    38    2
    37    31    44    1
    38    32    38    1
    39    33    44    1
    40    35    34    1
    41    35    31    1
    42    39    35    1
    43    40    32    2
    44    41    43    2
    45    42    36    2
    46    42    37    1
    47    43    40    1
    48    43    30    1
