@<TRIPOS>MOLECULE
outputs/IAG933/test6/raw/output_594_IAG933_linker_design_.xyz
 44 48 0 0 0
SMALL
GASTEIGER

@<TRIPOS>ATOM
      1 C         -24.8550   -1.0120   30.1430 C.3     1  UNL1        0.0437
      2 C         -24.9730   -2.5050   29.7880 C.2     1  UNL1       -0.0208
      3 C         -23.9060   -3.1730   29.1460 C.2     1  UNL1       -0.0042
      4 C         -23.9890   -4.5490   28.8530 C.2     1  UNL1       -0.0003
      5 C         -25.1370   -5.2800   29.2050 C.2     1  UNL1       -0.0000
      6 C         -26.2320   -4.6110   29.7840 C.2     1  UNL1       -0.0003
      7 C         -26.1550   -3.2320   30.0650 C.2     1  UNL1       -0.0042
      8 C         -25.3870   -0.6790   31.5710 C.3     1  UNL1        0.0779
      9 C         -25.1890    0.7730   32.0280 C.3     1  UNL1        0.0305
     10 C         -25.3360    0.6840   33.5440 C.3     1  UNL1        0.0210
     11 C         -24.8290   -0.7150   33.9050 C.3     1  UNL1        0.0887
     12 N         -24.7580   -1.4810   32.6460 N.3     1  UNL1       -0.2191
     13 C         -25.6880    1.6140   26.4610 C.2     1  UNL1        0.0378
     14 C         -26.2500    2.9200   26.3950 C.2     1  UNL1        0.0744
     15 C         -25.6420    4.0930   27.1230 C.2     1  UNL1        0.2662
     16 N         -25.6140    5.2520   26.4490 N.am    1  UNL1       -0.1997
     17 C         -25.0260    6.4790   26.9630 C.3     1  UNL1        0.1388
     18 O         -25.1430    3.9660   28.2430 O.2     1  UNL1       -0.2683
     19 C         -27.4380    3.0910   25.6450 C.2     1  UNL1        0.1065
     20 N         -28.0750    2.0890   25.0030 N.2     1  UNL1       -0.2081
     21 C         -27.5430    0.8490   25.0790 C.2     1  UNL1        0.2530
     22 O         -28.1930   -0.2080   24.4770 O.2     1  UNL1       -0.4558
     23 C         -29.4600    0.0050   23.8660 C.3     1  UNL1        0.2426
     24 C         -30.0650   -1.3770   23.5730 C.3     1  UNL1        0.2292
     25 O         -30.7290   -1.8780   24.7210 O.3     1  UNL1       -0.2162
     26 C         -26.3540    0.5760   25.7770 C.2     1  UNL1        0.1910
     27 F         -25.8600   -0.6810   25.7950 F       1  UNL1       -0.1995
     28 C         -22.5216    1.1454   28.4094 C.3     1  UNL1        0.2898
     29 C         -24.2623    1.9165   30.0830 C.2     1  UNL1        0.2318
     30 C         -24.7255    3.8579   32.7284 C.2     1  UNL1       -0.0038
     31 F         -22.0889   -0.0330   29.0873 F       1  UNL1       -0.2071
     32 C         -25.5030    3.5272   31.5852 C.2     1  UNL1       -0.0138
     33 C         -24.3626    1.5496   27.0757 C.3     1  UNL1        0.1238
     34 O         -23.0924    2.0659   30.9236 O.2     1  UNL1       -0.2744
     35 C         -24.5691    5.1811   33.2049 C.2     1  UNL1       -0.0003
     36 C         -22.1981    1.2997   27.1440 C.2     1  UNL1        0.1635
     37 C         -23.2117    2.3249   25.0709 C.3     1  UNL1        0.0305
     38 C         -25.0695    6.2463   32.4393 C.2     1  UNL1       -0.0000
     39 F         -20.8704    1.4550   26.8621 F       1  UNL1       -0.2048
     40 C         -25.7282    5.9617   31.2259 C.2     1  UNL1       -0.0003
     41 N         -23.9226    1.4962   28.6328 N.am    1  UNL1       -0.2419
     42 C         -23.2296    1.6864   26.4029 C.2     1  UNL1        0.0059
     43 C         -25.9584    4.6281   30.8140 C.2     1  UNL1       -0.0038
     44 C         -25.5524    1.9789   31.1000 C.3     1  UNL1        0.1004
@<TRIPOS>BOND
     1     2     7    1
     2     2     1    1
     3     3     2    2
     4     4     3    1
     5     4     5    2
     6     5     6    1
     7     6     7    2
     8     8     1    1
     9     8     9    1
    10     8    12    1
    11     9    44    1
    12     9    10    1
    13    10    11    1
    14    12    11    1
    15    14    13    1
    16    14    15    1
    17    15    18    2
    18    16    17    1
    19    16    15    1
    20    19    14    2
    21    20    21    2
    22    20    19    1
    23    21    26    1
    24    22    21    1
    25    23    22    1
    26    24    23    1
    27    24    25    1
    28    26    27    1
    29    26    13    2
    30    28    41    1
    31    28    31    1
    32    29    34    2
    33    30    35    1
    34    32    30    2
    35    33    13    1
    36    33    41    1
    37    36    28    1
    38    37    42    1
    39    38    35    2
    40    39    36    1
    41    40    38    1
    42    41    29   am
    43    42    33    1
    44    42    36    2
    45    43    40    2
    46    43    32    1
    47    44    29    1
    48    44    32    1
