@<TRIPOS>MOLECULE
outputs/IAG933/test6/raw/output_5949_IAG933_linker_design_.xyz
 44 47 0 0 0
SMALL
GASTEIGER

@<TRIPOS>ATOM
      1 C         -24.8550   -1.0120   30.1430 C.3     1  UNL1        0.0832
      2 C         -24.9730   -2.5050   29.7880 C.2     1  UNL1       -0.0173
      3 C         -23.9060   -3.1730   29.1460 C.2     1  UNL1       -0.0041
      4 C         -23.9890   -4.5490   28.8530 C.2     1  UNL1       -0.0003
      5 C         -25.1370   -5.2800   29.2050 C.2     1  UNL1       -0.0000
      6 C         -26.2320   -4.6110   29.7840 C.2     1  UNL1       -0.0003
      7 C         -26.1550   -3.2320   30.0650 C.2     1  UNL1       -0.0041
      8 C         -25.3870   -0.6790   31.5710 C.3     1  UNL1        0.0806
      9 C         -25.1890    0.7730   32.0280 C.3     1  UNL1        0.0193
     10 C         -25.3360    0.6840   33.5440 C.3     1  UNL1        0.0202
     11 C         -24.8290   -0.7150   33.9050 C.3     1  UNL1        0.0887
     12 N         -24.7580   -1.4810   32.6460 N.3     1  UNL1       -0.2190
     13 C         -25.6880    1.6140   26.4610 C.3     1  UNL1        0.1323
     14 C         -26.2500    2.9200   26.3950 C.2     1  UNL1        0.0697
     15 C         -25.6420    4.0930   27.1230 C.2     1  UNL1        0.2637
     16 N         -25.6140    5.2520   26.4490 N.am    1  UNL1       -0.2000
     17 C         -25.0260    6.4790   26.9630 C.3     1  UNL1        0.1388
     18 O         -25.1430    3.9660   28.2430 O.2     1  UNL1       -0.2686
     19 C         -27.4380    3.0910   25.6450 C.2     1  UNL1        0.1035
     20 N         -28.0750    2.0890   25.0030 N.2     1  UNL1       -0.2118
     21 C         -27.5430    0.8490   25.0790 C.2     1  UNL1        0.2355
     22 O         -28.1930   -0.2080   24.4770 O.2     1  UNL1       -0.4585
     23 C         -29.4600    0.0050   23.8660 C.3     1  UNL1        0.2423
     24 C         -30.0650   -1.3770   23.5730 C.3     1  UNL1        0.2292
     25 O         -30.7290   -1.8780   24.7210 O.3     1  UNL1       -0.2162
     26 C         -26.3540    0.5760   25.7770 C.3     1  UNL1        0.2547
     27 F         -25.8600   -0.6810   25.7950 F       1  UNL1       -0.2254
     28 F         -23.3549    1.6888   24.7058 F       1  UNL1       -0.1839
     29 F         -19.8289    2.0103   27.6739 F       1  UNL1       -0.2039
     30 C         -21.0574    1.4713   27.4519 C.3     1  UNL1        0.2811
     31 C         -21.5785    0.5495   28.2780 C.3     1  UNL1        0.0633
     32 C         -24.1133    0.3947   27.7476 C.3     1  UNL1        0.1064
     33 C         -24.9979    0.1429   29.0363 C.3     1  UNL1        0.2046
     34 C         -23.1395    1.6230   25.9915 C.3     1  UNL1        0.3494
     35 O         -23.7904    3.0833   31.3396 O.2     1  UNL1       -0.2945
     36 C         -24.9868    3.2808   31.1829 C.2     1  UNL1        0.1686
     37 O         -26.4699    0.0979   28.8137 O.3     1  UNL1       -0.2059
     38 C         -25.8202    2.4969   30.3208 C.3     1  UNL1        0.1553
     39 C         -25.5520    4.4944   31.8364 C.3     1  UNL1        0.0738
     40 O         -21.8529    1.8726   26.3544 O.3     1  UNL1       -0.2850
     41 N         -24.3341    1.2820   26.7948 N.3     1  UNL1       -0.2134
     42 C         -22.8021    0.4257   28.3793 C.3     1  UNL1        0.0254
     43 N         -25.0029    1.5277   29.6612 N.3     1  UNL1       -0.1831
     44 C         -20.8076   -0.3997   29.0404 C.3     1  UNL1        0.0055
@<TRIPOS>BOND
     1     1    33    1
     2     2     7    1
     3     2     1    1
     4     3     2    2
     5     4     3    1
     6     4     5    2
     7     5     6    1
     8     6     7    2
     9     8     1    1
    10     8     9    1
    11     8    12    1
    12     9    10    1
    13    10    11    1
    14    12    11    1
    15    13    14    1
    16    14    15    1
    17    15    18    2
    18    16    17    1
    19    16    15    1
    20    19    14    2
    21    20    21    2
    22    20    19    1
    23    21    26    1
    24    22    21    1
    25    23    22    1
    26    24    23    1
    27    24    25    1
    28    26    27    1
    29    26    13    1
    30    30    29    1
    31    30    31    1
    32    31    42    1
    33    31    44    1
    34    32    42    1
    35    32    33    1
    36    33    37    1
    37    33    43    1
    38    34    28    1
    39    34    40    1
    40    34    41    1
    41    36    35    2
    42    36    39    1
    43    38    36    1
    44    40    30    1
    45    41    13    1
    46    41    32    1
    47    43    38    1
