@<TRIPOS>MOLECULE
outputs/IAG933/test6/raw/output_595_IAG933_linker_design_.xyz
 46 50 0 0 0
SMALL
GASTEIGER

@<TRIPOS>ATOM
      1 C         -24.8550   -1.0120   30.1430 C.3     1  UNL1        0.0587
      2 C         -24.9730   -2.5050   29.7880 C.2     1  UNL1       -0.0195
      3 C         -23.9060   -3.1730   29.1460 C.2     1  UNL1       -0.0042
      4 C         -23.9890   -4.5490   28.8530 C.2     1  UNL1       -0.0003
      5 C         -25.1370   -5.2800   29.2050 C.2     1  UNL1       -0.0000
      6 C         -26.2320   -4.6110   29.7840 C.2     1  UNL1       -0.0003
      7 C         -26.1550   -3.2320   30.0650 C.2     1  UNL1       -0.0042
      8 C         -25.3870   -0.6790   31.5710 C.3     1  UNL1        0.0785
      9 C         -25.1890    0.7730   32.0280 C.3     1  UNL1        0.0192
     10 C         -25.3360    0.6840   33.5440 C.3     1  UNL1        0.0202
     11 C         -24.8290   -0.7150   33.9050 C.3     1  UNL1        0.0887
     12 N         -24.7580   -1.4810   32.6460 N.3     1  UNL1       -0.2191
     13 C         -25.6880    1.6140   26.4610 C.3     1  UNL1        0.0758
     14 C         -26.2500    2.9200   26.3950 C.2     1  UNL1        0.0552
     15 C         -25.6420    4.0930   27.1230 C.2     1  UNL1        0.2625
     16 N         -25.6140    5.2520   26.4490 N.am    1  UNL1       -0.2000
     17 C         -25.0260    6.4790   26.9630 C.3     1  UNL1        0.1388
     18 O         -25.1430    3.9660   28.2430 O.2     1  UNL1       -0.2687
     19 C         -27.4380    3.0910   25.6450 C.2     1  UNL1        0.1021
     20 N         -28.0750    2.0890   25.0030 N.2     1  UNL1       -0.2119
     21 C         -27.5430    0.8490   25.0790 C.2     1  UNL1        0.2341
     22 O         -28.1930   -0.2080   24.4770 O.2     1  UNL1       -0.4585
     23 C         -29.4600    0.0050   23.8660 C.3     1  UNL1        0.2423
     24 C         -30.0650   -1.3770   23.5730 C.3     1  UNL1        0.2292
     25 O         -30.7290   -1.8780   24.7210 O.3     1  UNL1       -0.2162
     26 C         -26.3540    0.5760   25.7770 C.3     1  UNL1        0.2404
     27 F         -25.8600   -0.6810   25.7950 F       1  UNL1       -0.2269
     28 C         -25.4766   -0.0011   28.9094 C.3     1  UNL1        0.1084
     29 C         -22.3865    2.1766   26.4289 C.2     1  UNL1       -0.0003
     30 C         -30.5655    2.0500   29.8830 C.3     1  UNL1        0.0695
     31 C         -28.2809   -0.0407   28.9219 C.2     1  UNL1        0.4210
     32 C         -21.3074    1.6933   27.0811 C.2     1  UNL1       -0.0000
     33 C         -28.8876    2.4389   31.6773 C.3     1  UNL1        0.0814
     34 C         -31.4122    1.0967   30.7221 C.2     1  UNL1       -0.0245
     35 O         -29.0624   -0.5823   28.2242 O.2     1  UNL1       -0.2246
     36 C         -30.8283    0.7552   32.1276 C.2     1  UNL1        0.0018
     37 C         -22.6380    0.3372   28.5225 C.2     1  UNL1       -0.0042
     38 C         -29.0671    1.9957   30.2230 C.3     1  UNL1        0.1777
     39 N         -26.8801   -0.3273   28.7840 N.am    1  UNL1       -0.1698
     40 C         -21.3728    0.7478   28.1215 C.2     1  UNL1       -0.0003
     41 O         -28.4739    0.4548   32.8245 O.3     1  UNL1       -0.2182
     42 C         -29.4896    1.4139   32.6026 C.3     1  UNL1        0.1773
     43 O         -28.4316    0.7007   30.1002 O.3     1  UNL1       -0.4369
     44 C         -24.9746    1.1076   27.7949 C.3     1  UNL1        0.0502
     45 C         -23.5358    1.5883   26.9691 C.2     1  UNL1       -0.0042
     46 C         -23.7541    0.8587   27.7681 C.2     1  UNL1       -0.0204
@<TRIPOS>BOND
     1     1    28    1
     2     2     7    1
     3     2     1    1
     4     3     2    2
     5     4     3    1
     6     4     5    2
     7     5     6    1
     8     6     7    2
     9     8     1    1
    10     8     9    1
    11     8    12    1
    12     9    10    1
    13    10    11    1
    14    12    11    1
    15    13    44    1
    16    14    13    1
    17    14    15    1
    18    15    18    2
    19    16    17    1
    20    16    15    1
    21    19    14    2
    22    20    21    2
    23    20    19    1
    24    21    26    1
    25    22    21    1
    26    23    22    1
    27    24    23    1
    28    24    25    1
    29    26    27    1
    30    26    13    1
    31    28    39    1
    32    29    45    2
    33    29    32    1
    34    30    38    1
    35    30    34    1
    36    31    43    1
    37    32    40    2
    38    33    42    1
    39    34    36    2
    40    35    31    2
    41    36    42    1
    42    38    43    1
    43    38    33    1
    44    39    31    1
    45    40    37    1
    46    42    41    1
    47    44    28    1
    48    45    46    1
    49    46    44    1
    50    46    37    2
