@<TRIPOS>MOLECULE
outputs/IAG933/test6/raw/output_5955_IAG933_linker_design_.xyz
 47 50 0 0 0
SMALL
GASTEIGER

@<TRIPOS>ATOM
      1 C         -24.8550   -1.0120   30.1430 C.3     1  UNL1        0.0672
      2 C         -24.9730   -2.5050   29.7880 C.2     1  UNL1       -0.0187
      3 C         -23.9060   -3.1730   29.1460 C.2     1  UNL1       -0.0042
      4 C         -23.9890   -4.5490   28.8530 C.2     1  UNL1       -0.0003
      5 C         -25.1370   -5.2800   29.2050 C.2     1  UNL1       -0.0000
      6 C         -26.2320   -4.6110   29.7840 C.2     1  UNL1       -0.0003
      7 C         -26.1550   -3.2320   30.0650 C.2     1  UNL1       -0.0042
      8 C         -25.3870   -0.6790   31.5710 C.3     1  UNL1        0.0792
      9 C         -25.1890    0.7730   32.0280 C.3     1  UNL1        0.0193
     10 C         -25.3360    0.6840   33.5440 C.3     1  UNL1        0.0202
     11 C         -24.8290   -0.7150   33.9050 C.3     1  UNL1        0.0887
     12 N         -24.7580   -1.4810   32.6460 N.3     1  UNL1       -0.2190
     13 C         -25.6880    1.6140   26.4610 C.2     1  UNL1        0.0871
     14 C         -26.2500    2.9200   26.3950 C.2     1  UNL1        0.0899
     15 C         -25.6420    4.0930   27.1230 C.2     1  UNL1        0.2676
     16 N         -25.6140    5.2520   26.4490 N.am    1  UNL1       -0.1997
     17 C         -25.0260    6.4790   26.9630 C.3     1  UNL1        0.1388
     18 O         -25.1430    3.9660   28.2430 O.2     1  UNL1       -0.2683
     19 C         -27.4380    3.0910   25.6450 C.2     1  UNL1        0.1080
     20 N         -28.0750    2.0890   25.0030 N.2     1  UNL1       -0.2080
     21 C         -27.5430    0.8490   25.0790 C.2     1  UNL1        0.2546
     22 O         -28.1930   -0.2080   24.4770 O.2     1  UNL1       -0.4558
     23 C         -29.4600    0.0050   23.8660 C.3     1  UNL1        0.2426
     24 C         -30.0650   -1.3770   23.5730 C.3     1  UNL1        0.2292
     25 O         -30.7290   -1.8780   24.7210 O.3     1  UNL1       -0.2162
     26 C         -26.3540    0.5760   25.7770 C.2     1  UNL1        0.2063
     27 F         -25.8600   -0.6810   25.7950 F       1  UNL1       -0.1979
     28 C         -26.5201    5.4749   31.7482 C.3     1  UNL1        0.2075
     29 N         -21.1175    1.9253   26.6381 N.1     1  UNL1       -0.1941
     30 O         -22.8598    5.1344   32.5370 O.3     1  UNL1       -0.2210
     31 C         -24.5642    6.3208   33.8211 C.3     1  UNL1        0.0376
     32 C         -27.0910    2.9538   30.8211 C.2     1  UNL1        0.2268
     33 O         -28.0643    3.5616   31.6175 O.2     1  UNL1       -0.4598
     34 C         -23.3902    1.2386   25.8468 C.3     1  UNL1        0.1983
     35 C         -27.7688    4.8501   32.1275 C.3     1  UNL1        0.2332
     36 C         -25.4536    4.5836   31.7174 C.3     1  UNL1        0.1626
     37 C         -24.2242    0.3893   28.1873 C.3     1  UNL1        0.1217
     38 O         -25.0151    7.3930   30.6878 O.2     1  UNL1       -0.1635
     39 N         -25.7984    3.3628   30.9096 N.2     1  UNL1       -0.2370
     40 S         -26.2591    6.8842   30.8939 S.3     1  UNL1        0.0440
     41 C         -24.1424    5.3825   32.6779 C.3     1  UNL1        0.1762
     42 C         -27.4014    1.8737   29.8450 C.3     1  UNL1        0.2263
     43 O         -27.6491    7.7428   31.0952 O.3     1  UNL1       -0.0661
     44 N         -24.3466    1.4127   27.0617 N.pl3   1  UNL1       -0.2903
     45 C         -25.4426   -0.0636   29.0424 C.3     1  UNL1        0.1408
     46 O         -26.2679    1.0394   29.5780 O.3     1  UNL1       -0.3447
     47 C         -22.0358    1.4843   26.3696 C.1     1  UNL1        0.0954
@<TRIPOS>BOND
     1     1    45    1
     2     2     7    1
     3     2     1    1
     4     3     2    2
     5     4     3    1
     6     4     5    2
     7     5     6    1
     8     6     7    2
     9     8     1    1
    10     8     9    1
    11     8    12    1
    12     9    10    1
    13    10    11    1
    14    12    11    1
    15    13    44    1
    16    14    13    1
    17    14    15    1
    18    15    18    2
    19    16    17    1
    20    16    15    1
    21    19    14    2
    22    20    21    2
    23    20    19    1
    24    21    26    1
    25    22    21    1
    26    23    22    1
    27    24    23    1
    28    24    25    1
    29    26    27    1
    30    26    13    2
    31    28    40    1
    32    28    35    1
    33    30    41    1
    34    32    39    2
    35    32    33    1
    36    33    35    1
    37    34    47    1
    38    34    44    1
    39    36    28    1
    40    36    41    1
    41    39    36    1
    42    40    38    2
    43    40    43    1
    44    41    31    1
    45    42    32    1
    46    44    37    1
    47    45    37    1
    48    45    46    1
    49    46    42    1
    50    47    29    3
