@<TRIPOS>MOLECULE
outputs/IAG933/test6/raw/output_5957_IAG933_linker_design_.xyz
 45 48 0 0 0
SMALL
GASTEIGER

@<TRIPOS>ATOM
      1 C         -24.8550   -1.0120   30.1430 C.3     1  UNL1        0.0439
      2 C         -24.9730   -2.5050   29.7880 C.2     1  UNL1       -0.0208
      3 C         -23.9060   -3.1730   29.1460 C.2     1  UNL1       -0.0042
      4 C         -23.9890   -4.5490   28.8530 C.2     1  UNL1       -0.0003
      5 C         -25.1370   -5.2800   29.2050 C.2     1  UNL1       -0.0000
      6 C         -26.2320   -4.6110   29.7840 C.2     1  UNL1       -0.0003
      7 C         -26.1550   -3.2320   30.0650 C.2     1  UNL1       -0.0042
      8 C         -25.3870   -0.6790   31.5710 C.3     1  UNL1        0.0772
      9 C         -25.1890    0.7730   32.0280 C.3     1  UNL1        0.0192
     10 C         -25.3360    0.6840   33.5440 C.3     1  UNL1        0.0202
     11 C         -24.8290   -0.7150   33.9050 C.3     1  UNL1        0.0887
     12 N         -24.7580   -1.4810   32.6460 N.3     1  UNL1       -0.2191
     13 C         -25.6880    1.6140   26.4610 C.2     1  UNL1        0.0423
     14 C         -26.2500    2.9200   26.3950 C.2     1  UNL1        0.0767
     15 C         -25.6420    4.0930   27.1230 C.2     1  UNL1        0.2664
     16 N         -25.6140    5.2520   26.4490 N.am    1  UNL1       -0.1997
     17 C         -25.0260    6.4790   26.9630 C.3     1  UNL1        0.1388
     18 O         -25.1430    3.9660   28.2430 O.2     1  UNL1       -0.2683
     19 C         -27.4380    3.0910   25.6450 C.2     1  UNL1        0.1067
     20 N         -28.0750    2.0890   25.0030 N.2     1  UNL1       -0.2081
     21 C         -27.5430    0.8490   25.0790 C.2     1  UNL1        0.2533
     22 O         -28.1930   -0.2080   24.4770 O.2     1  UNL1       -0.4558
     23 C         -29.4600    0.0050   23.8660 C.3     1  UNL1        0.2426
     24 C         -30.0650   -1.3770   23.5730 C.3     1  UNL1        0.2292
     25 O         -30.7290   -1.8780   24.7210 O.3     1  UNL1       -0.2162
     26 C         -26.3540    0.5760   25.7770 C.2     1  UNL1        0.1932
     27 F         -25.8600   -0.6810   25.7950 F       1  UNL1       -0.1992
     28 O         -27.4756    3.9624   33.1346 O.2     1  UNL1       -0.2945
     29 C         -22.0792    1.8406   27.1933 C.2     1  UNL1        0.0916
     30 C         -26.7821    0.6510   29.0302 C.3     1  UNL1        0.0063
     31 C         -28.5036    2.5135   29.3871 C.3     1  UNL1        0.0005
     32 C         -27.9761    1.0951   29.7827 C.3     1  UNL1        0.0004
     33 F         -20.8444    0.6644   28.6449 F       1  UNL1       -0.1831
     34 O         -23.2088    2.8312   25.4333 O.2     1  UNL1       -0.2864
     35 C         -28.8131    5.9418   33.1605 C.3     1  UNL1        0.1733
     36 C         -28.8493    3.2163   30.6919 C.3     1  UNL1        0.0078
     37 C         -24.4358    1.3595   27.2165 C.2     1  UNL1        0.0552
     38 C         -23.2512    2.0333   26.6307 C.2     1  UNL1        0.2007
     39 C         -25.5233   -0.0938   29.0880 C.3     1  UNL1        0.0458
     40 C         -24.3304    0.5359   28.3416 C.2     1  UNL1        0.0644
     41 C         -28.5603    4.6016   31.0749 C.3     1  UNL1        0.0661
     42 N         -23.0674    0.3218   28.7900 N.2     1  UNL1       -0.2222
     43 N         -29.8028    5.4844   34.1614 N.3     1  UNL1       -0.1230
     44 C         -21.9973    0.9199   28.2287 C.2     1  UNL1        0.2252
     45 C         -28.2068    4.7372   32.5351 C.2     1  UNL1        0.1698
@<TRIPOS>BOND
     1     1    39    1
     2     2     7    1
     3     2     1    1
     4     3     2    2
     5     4     3    1
     6     4     5    2
     7     5     6    1
     8     6     7    2
     9     8     1    1
    10     8     9    1
    11     8    12    1
    12     9    10    1
    13    10    11    1
    14    12    11    1
    15    13    37    1
    16    14    13    1
    17    14    15    1
    18    15    18    2
    19    16    17    1
    20    16    15    1
    21    19    14    2
    22    20    21    2
    23    20    19    1
    24    21    26    1
    25    22    21    1
    26    23    22    1
    27    24    23    1
    28    24    25    1
    29    26    27    1
    30    26    13    2
    31    29    44    1
    32    30    32    1
    33    31    32    1
    34    31    36    1
    35    34    38    1
    36    35    43    1
    37    36    41    1
    38    37    40    2
    39    38    29    2
    40    38    37    1
    41    39    30    1
    42    40    42    1
    43    40    39    1
    44    41    45    1
    45    44    33    1
    46    44    42    2
    47    45    28    2
    48    45    35    1
