@<TRIPOS>MOLECULE
outputs/IAG933/test6/raw/output_5963_IAG933_linker_design_.xyz
 42 46 0 0 0
SMALL
GASTEIGER

@<TRIPOS>ATOM
      1 C         -24.8550   -1.0120   30.1430 C.3     1  UNL1        0.1986
      2 C         -24.9730   -2.5050   29.7880 C.2     1  UNL1        0.0213
      3 C         -23.9060   -3.1730   29.1460 C.2     1  UNL1       -0.0004
      4 C         -23.9890   -4.5490   28.8530 C.2     1  UNL1       -0.0002
      5 C         -25.1370   -5.2800   29.2050 C.2     1  UNL1       -0.0000
      6 C         -26.2320   -4.6110   29.7840 C.2     1  UNL1       -0.0002
      7 C         -26.1550   -3.2320   30.0650 C.2     1  UNL1       -0.0004
      8 C         -25.3870   -0.6790   31.5710 C.3     1  UNL1        0.1214
      9 C         -25.1890    0.7730   32.0280 C.3     1  UNL1        0.0445
     10 C         -25.3360    0.6840   33.5440 C.3     1  UNL1        0.0221
     11 C         -24.8290   -0.7150   33.9050 C.3     1  UNL1        0.0889
     12 N         -24.7580   -1.4810   32.6460 N.3     1  UNL1       -0.2150
     13 C         -25.6880    1.6140   26.4610 C.3     1  UNL1        0.2390
     14 C         -26.2500    2.9200   26.3950 C.2     1  UNL1        0.0978
     15 C         -25.6420    4.0930   27.1230 C.2     1  UNL1        0.2662
     16 N         -25.6140    5.2520   26.4490 N.am    1  UNL1       -0.1999
     17 C         -25.0260    6.4790   26.9630 C.3     1  UNL1        0.1388
     18 O         -25.1430    3.9660   28.2430 O.2     1  UNL1       -0.2685
     19 C         -27.4380    3.0910   25.6450 C.2     1  UNL1        0.1061
     20 N         -28.0750    2.0890   25.0030 N.2     1  UNL1       -0.2116
     21 C         -27.5430    0.8490   25.0790 C.2     1  UNL1        0.2384
     22 O         -28.1930   -0.2080   24.4770 O.2     1  UNL1       -0.4584
     23 C         -29.4600    0.0050   23.8660 C.3     1  UNL1        0.2423
     24 C         -30.0650   -1.3770   23.5730 C.3     1  UNL1        0.2292
     25 O         -30.7290   -1.8780   24.7210 O.3     1  UNL1       -0.2162
     26 C         -26.3540    0.5760   25.7770 C.3     1  UNL1        0.2829
     27 F         -25.8600   -0.6810   25.7950 F       1  UNL1       -0.2224
     28 C         -23.1681    1.3705   27.0184 C.2     1  UNL1        0.2983
     29 C         -22.5379   -0.0263   29.4258 C.3     1  UNL1        0.2319
     30 N         -25.3985    1.1750   27.7642 N.am    1  UNL1       -0.1215
     31 C         -21.8873    1.3283   27.4313 C.2     1  UNL1        0.1858
     32 C         -26.3449    0.7649   28.8697 C.2     1  UNL1        0.4148
     33 N         -26.2891    1.5119   29.9015 N.am    1  UNL1       -0.1654
     34 C         -21.5768    0.5882   28.5829 C.2     1  UNL1        0.0574
     35 C         -25.6449    3.5997   30.9702 C.3     1  UNL1        0.2037
     36 O         -23.4320    1.8931   25.7838 O.2     1  UNL1       -0.2765
     37 N         -23.8870   -0.1372   29.1081 N.pl3   1  UNL1       -0.1866
     38 O         -26.8107    3.7259   31.7839 O.3     1  UNL1       -0.2185
     39 CA        -25.3029    1.9928   30.9680 C.3     1  UNL1        0.1334
     40 F         -20.9471    2.0732   26.7682 F       1  UNL1       -0.2007
     41 O         -27.1364   -0.1934   28.7471 O.2     1  UNL1       -0.2217
     42 C         -24.1524    0.7520   27.9564 C.2     1  UNL1        0.3213
@<TRIPOS>BOND
     1     1     2    1
     2     1     8    1
     3     2     7    1
     4     3     2    2
     5     4     3    1
     6     4     5    2
     7     5     6    1
     8     6     7    2
     9     8     9    1
    10     8    12    1
    11     9    10    1
    12    10    11    1
    13    12    11    1
    14    13    30    1
    15    14    13    1
    16    14    15    1
    17    15    18    2
    18    16    17    1
    19    16    15    1
    20    19    14    2
    21    20    21    2
    22    20    19    1
    23    21    26    1
    24    22    21    1
    25    23    22    1
    26    24    23    1
    27    24    25    1
    28    26    27    1
    29    26    13    1
    30    28    31    1
    31    28    42    2
    32    30    42    1
    33    30    32   am
    34    31    34    2
    35    32    33    1
    36    33    39    1
    37    34    29    1
    38    35    38    1
    39    36    28    1
    40    37    29    1
    41    37     1    1
    42    39    35    1
    43    39     9    1
    44    40    31    1
    45    41    32    2
    46    42    37    1
