@<TRIPOS>MOLECULE
outputs/IAG933/test6/raw/output_5964_IAG933_linker_design_.xyz
 40 43 0 0 0
SMALL
GASTEIGER

@<TRIPOS>ATOM
      1 C         -24.8550   -1.0120   30.1430 C.3     1  UNL1        0.1322
      2 C         -24.9730   -2.5050   29.7880 C.2     1  UNL1       -0.0012
      3 C         -23.9060   -3.1730   29.1460 C.2     1  UNL1       -0.0026
      4 C         -23.9890   -4.5490   28.8530 C.2     1  UNL1       -0.0003
      5 C         -25.1370   -5.2800   29.2050 C.2     1  UNL1       -0.0000
      6 C         -26.2320   -4.6110   29.7840 C.2     1  UNL1       -0.0003
      7 C         -26.1550   -3.2320   30.0650 C.2     1  UNL1       -0.0026
      8 C         -25.3870   -0.6790   31.5710 C.3     1  UNL1        0.0968
      9 C         -25.1890    0.7730   32.0280 C.3     1  UNL1        0.0210
     10 C         -25.3360    0.6840   33.5440 C.3     1  UNL1        0.0203
     11 C         -24.8290   -0.7150   33.9050 C.3     1  UNL1        0.0888
     12 N         -24.7580   -1.4810   32.6460 N.3     1  UNL1       -0.2174
     13 C         -25.6880    1.6140   26.4610 C.3     1  UNL1        0.0936
     14 C         -26.2500    2.9200   26.3950 C.2     1  UNL1        0.0589
     15 C         -25.6420    4.0930   27.1230 C.2     1  UNL1        0.2628
     16 N         -25.6140    5.2520   26.4490 N.am    1  UNL1       -0.2000
     17 C         -25.0260    6.4790   26.9630 C.3     1  UNL1        0.1388
     18 O         -25.1430    3.9660   28.2430 O.2     1  UNL1       -0.2686
     19 C         -27.4380    3.0910   25.6450 C.2     1  UNL1        0.1025
     20 N         -28.0750    2.0890   25.0030 N.2     1  UNL1       -0.2118
     21 C         -27.5430    0.8490   25.0790 C.2     1  UNL1        0.2344
     22 O         -28.1930   -0.2080   24.4770 O.2     1  UNL1       -0.4585
     23 C         -29.4600    0.0050   23.8660 C.3     1  UNL1        0.2423
     24 C         -30.0650   -1.3770   23.5730 C.3     1  UNL1        0.2292
     25 O         -30.7290   -1.8780   24.7210 O.3     1  UNL1       -0.2162
     26 C         -26.3540    0.5760   25.7770 C.3     1  UNL1        0.2440
     27 F         -25.8600   -0.6810   25.7950 F       1  UNL1       -0.2265
     28 C         -22.1198    2.1459   25.9525 C.2     1  UNL1       -0.0217
     29 C         -22.7272    0.3147   28.5435 C.2     1  UNL1        0.0116
     30 C         -28.5623    1.2592   29.0397 C.3     1  UNL1        0.2697
     31 C         -27.5087    0.2370   28.8873 C.2     1  UNL1        0.2929
     32 C         -24.0342    0.6417   28.0395 C.2     1  UNL1        0.0634
     33 C         -23.4857    1.8814   25.7821 C.2     1  UNL1       -0.0068
     34 C         -24.3345    1.3316   26.7768 C.2     1  UNL1       -0.0005
     35 C         -21.5225    0.9502   28.1581 C.2     1  UNL1       -0.0201
     36 O         -27.7438   -0.9477   28.7127 O.2     1  UNL1       -0.2688
     37 C         -21.2784    1.7598   27.0334 C.3     1  UNL1        0.0520
     38 N         -26.2802    0.8467   29.0074 N.am    1  UNL1       -0.1073
     39 N         -24.9780    0.1121   29.0662 N.pl3   1  UNL1       -0.2142
     40 O         -28.5370    1.5960   30.4365 O.3     1  UNL1       -0.2098
@<TRIPOS>BOND
     1     1    39    1
     2     2     7    1
     3     2     1    1
     4     3     2    2
     5     4     3    1
     6     4     5    2
     7     5     6    1
     8     6     7    2
     9     8     1    1
    10     8     9    1
    11     8    12    1
    12     9    10    1
    13    10    11    1
    14    12    11    1
    15    13    34    1
    16    14    13    1
    17    14    15    1
    18    15    18    2
    19    16    17    1
    20    16    15    1
    21    19    14    2
    22    20    21    2
    23    20    19    1
    24    21    26    1
    25    22    21    1
    26    23    22    1
    27    24    23    1
    28    24    25    1
    29    26    27    1
    30    26    13    1
    31    28    37    1
    32    30    40    1
    33    31    38    1
    34    31    30    1
    35    32    29    1
    36    32    39    1
    37    33    28    2
    38    33    34    1
    39    34    32    2
    40    35    29    2
    41    36    31    2
    42    37    35    1
    43    38    39    1
