@<TRIPOS>MOLECULE
outputs/IAG933/test6/raw/output_5968_IAG933_linker_design_.xyz
 44 48 0 0 0
SMALL
GASTEIGER

@<TRIPOS>ATOM
      1 C         -24.8550   -1.0120   30.1430 C.3     1  UNL1        0.1222
      2 C         -24.9730   -2.5050   29.7880 C.2     1  UNL1       -0.0042
      3 C         -23.9060   -3.1730   29.1460 C.2     1  UNL1       -0.0029
      4 C         -23.9890   -4.5490   28.8530 C.2     1  UNL1       -0.0003
      5 C         -25.1370   -5.2800   29.2050 C.2     1  UNL1       -0.0000
      6 C         -26.2320   -4.6110   29.7840 C.2     1  UNL1       -0.0003
      7 C         -26.1550   -3.2320   30.0650 C.2     1  UNL1       -0.0029
      8 C         -25.3870   -0.6790   31.5710 C.3     1  UNL1        0.0938
      9 C         -25.1890    0.7730   32.0280 C.3     1  UNL1        0.0207
     10 C         -25.3360    0.6840   33.5440 C.3     1  UNL1        0.0203
     11 C         -24.8290   -0.7150   33.9050 C.3     1  UNL1        0.0888
     12 N         -24.7580   -1.4810   32.6460 N.3     1  UNL1       -0.2177
     13 C         -25.6880    1.6140   26.4610 C.2     1  UNL1        0.1189
     14 C         -26.2500    2.9200   26.3950 C.2     1  UNL1        0.0942
     15 C         -25.6420    4.0930   27.1230 C.2     1  UNL1        0.2679
     16 N         -25.6140    5.2520   26.4490 N.am    1  UNL1       -0.1997
     17 C         -25.0260    6.4790   26.9630 C.3     1  UNL1        0.1388
     18 O         -25.1430    3.9660   28.2430 O.2     1  UNL1       -0.2683
     19 C         -27.4380    3.0910   25.6450 C.2     1  UNL1        0.1083
     20 N         -28.0750    2.0890   25.0030 N.2     1  UNL1       -0.2080
     21 C         -27.5430    0.8490   25.0790 C.2     1  UNL1        0.2548
     22 O         -28.1930   -0.2080   24.4770 O.2     1  UNL1       -0.4558
     23 C         -29.4600    0.0050   23.8660 C.3     1  UNL1        0.2426
     24 C         -30.0650   -1.3770   23.5730 C.3     1  UNL1        0.2292
     25 O         -30.7290   -1.8780   24.7210 O.3     1  UNL1       -0.2162
     26 C         -26.3540    0.5760   25.7770 C.2     1  UNL1        0.2105
     27 F         -25.8600   -0.6810   25.7950 F       1  UNL1       -0.1976
     28 C         -23.8938    0.9034   29.2716 C.3     1  UNL1        0.1345
     29 C         -21.3109    1.5454   25.5370 C.3     1  UNL1        0.1001
     30 C         -22.7582    1.3757   25.8165 C.2     1  UNL1        0.1890
     31 N         -23.6578   -0.3646   29.6373 N.3     1  UNL1       -0.1593
     32 O         -22.8688    2.3450   30.6285 O.3     1  UNL1       -0.2211
     33 C         -21.5900    0.0090   28.6061 C.3     1  UNL1        0.1481
     34 C         -20.4601   -0.1400   27.5042 C.3     1  UNL1        0.0622
     35 C         -23.0725    1.5573   29.5471 C.3     1  UNL1        0.1783
     36 C         -23.2975    1.2867   27.0585 C.2     1  UNL1        0.0982
     37 O         -22.2695   -0.6319   29.7353 O.3     1  UNL1       -0.2839
     38 C         -20.3255    1.1519   26.5758 C.3     1  UNL1        0.1282
     39 O         -23.4236    1.3364   24.7863 O.2     1  UNL1       -0.2900
     40 C         -18.6356    2.4576   27.0261 C.3     1  UNL1        0.3289
     41 O         -19.9648    2.2967   27.4095 O.3     1  UNL1       -0.3267
     42 N         -24.6600    1.3418   27.2141 N.2     1  UNL1       -0.2440
     43 C         -22.5832    1.1129   28.4299 C.3     1  UNL1        0.1042
     44 O         -17.5453    2.4003   27.0038 O.3     1  UNL1       -0.1841
@<TRIPOS>BOND
     1     1     2    1
     2     2     7    1
     3     3     2    2
     4     4     3    1
     5     4     5    2
     6     5     6    1
     7     6     7    2
     8     8     1    1
     9     8     9    1
    10     8    12    1
    11     9    10    1
    12    10    11    1
    13    12    11    1
    14    13    42    1
    15    14    13    1
    16    14    15    1
    17    15    18    2
    18    16    17    1
    19    16    15    1
    20    19    14    2
    21    20    21    2
    22    20    19    1
    23    21    26    1
    24    22    21    1
    25    23    22    1
    26    24    23    1
    27    24    25    1
    28    26    27    1
    29    26    13    2
    30    28    35    1
    31    28    31    1
    32    29    30    1
    33    29    38    1
    34    30    36    1
    35    31    37    1
    36    31     1    1
    37    33    34    1
    38    33    37    1
    39    35    32    1
    40    36    42    2
    41    38    41    1
    42    38    34    1
    43    39    30    2
    44    40    41    1
    45    43    36    1
    46    43    33    1
    47    43    35    1
    48    44    40    1
