@<TRIPOS>MOLECULE
outputs/IAG933/test6/raw/output_5976_IAG933_linker_design_.xyz
 39 44 0 0 0
SMALL
GASTEIGER

@<TRIPOS>ATOM
      1 C         -24.8550   -1.0120   30.1430 C.3     1  UNL1        0.0979
      2 C         -24.9730   -2.5050   29.7880 C.2     1  UNL1       -0.0064
      3 C         -23.9060   -3.1730   29.1460 C.2     1  UNL1       -0.0029
      4 C         -23.9890   -4.5490   28.8530 C.2     1  UNL1       -0.0003
      5 C         -25.1370   -5.2800   29.2050 C.2     1  UNL1       -0.0000
      6 C         -26.2320   -4.6110   29.7840 C.2     1  UNL1       -0.0003
      7 C         -26.1550   -3.2320   30.0650 C.2     1  UNL1       -0.0029
      8 C         -25.3870   -0.6790   31.5710 C.3     1  UNL1        0.0916
      9 C         -25.1890    0.7730   32.0280 C.3     1  UNL1        0.0206
     10 C         -25.3360    0.6840   33.5440 C.3     1  UNL1        0.0203
     11 C         -24.8290   -0.7150   33.9050 C.3     1  UNL1        0.0888
     12 N         -24.7580   -1.4810   32.6460 N.3     1  UNL1       -0.2178
     13 C         -25.6880    1.6140   26.4610 C.3     1  UNL1        0.1653
     14 C         -26.2500    2.9200   26.3950 C.2     1  UNL1        0.0749
     15 C         -25.6420    4.0930   27.1230 C.2     1  UNL1        0.2641
     16 N         -25.6140    5.2520   26.4490 N.am    1  UNL1       -0.1999
     17 C         -25.0260    6.4790   26.9630 C.3     1  UNL1        0.1388
     18 O         -25.1430    3.9660   28.2430 O.2     1  UNL1       -0.2686
     19 C         -27.4380    3.0910   25.6450 C.2     1  UNL1        0.1038
     20 N         -28.0750    2.0890   25.0030 N.2     1  UNL1       -0.2118
     21 C         -27.5430    0.8490   25.0790 C.2     1  UNL1        0.2359
     22 O         -28.1930   -0.2080   24.4770 O.2     1  UNL1       -0.4585
     23 C         -29.4600    0.0050   23.8660 C.3     1  UNL1        0.2423
     24 C         -30.0650   -1.3770   23.5730 C.3     1  UNL1        0.2292
     25 O         -30.7290   -1.8780   24.7210 O.3     1  UNL1       -0.2162
     26 C         -26.3540    0.5760   25.7770 C.3     1  UNL1        0.2599
     27 F         -25.8600   -0.6810   25.7950 F       1  UNL1       -0.2250
     28 O         -25.2956    1.6201   29.4405 O.2     1  UNL1       -0.2700
     29 C         -21.7442    1.7193   26.7588 C.2     1  UNL1        0.0549
     30 N         -23.3590   -0.6586   30.1319 N.3     1  UNL1       -0.2452
     31 C         -22.0841   -0.3416   29.3375 C.3     1  UNL1        0.1050
     32 C         -23.0234    1.9029   26.0547 C.2     1  UNL1        0.2650
     33 C         -23.1500    0.5801   28.8699 C.3     1  UNL1        0.2096
     34 O         -23.0047    2.3482   24.9298 O.2     1  UNL1       -0.2684
     35 N         -24.2651    1.4526   26.8357 N.am    1  UNL1       -0.1943
     36 C         -20.7937   -0.1435   28.4874 C.3     1  UNL1        0.0458
     37 C         -24.3447    0.9789   28.9073 C.2     1  UNL1        0.2764
     38 C         -20.9049    0.9642   27.6010 C.2     1  UNL1       -0.0199
     39 N         -23.9519    0.9339   28.0303 N.am    1  UNL1       -0.1816
@<TRIPOS>BOND
     1     1     2    1
     2     2     7    1
     3     3     2    2
     4     4     3    1
     5     4     5    2
     6     5     6    1
     7     6     7    2
     8     8     1    1
     9     8     9    1
    10     8    12    1
    11     9    10    1
    12    10    11    1
    13    12    11    1
    14    13    35    1
    15    14    13    1
    16    14    15    1
    17    15    18    2
    18    16    17    1
    19    16    15    1
    20    19    14    2
    21    20    21    2
    22    20    19    1
    23    21    26    1
    24    22    21    1
    25    23    22    1
    26    24    23    1
    27    24    25    1
    28    26    27    1
    29    26    13    1
    30    29    38    2
    31    30     1    1
    32    31    36    1
    33    31    30    1
    34    32    29    1
    35    32    35   am
    36    33    37    1
    37    33    31    1
    38    33    30    1
    39    34    32    2
    40    35    39    1
    41    37    28    2
    42    38    36    1
    43    39    33    1
    44    39    37   am
