@<TRIPOS>MOLECULE
outputs/IAG933/test6/raw/output_5979_IAG933_linker_design_.xyz
 44 47 0 0 0
SMALL
GASTEIGER

@<TRIPOS>ATOM
      1 C         -24.8550   -1.0120   30.1430 C.3     1  UNL1        0.0585
      2 C         -24.9730   -2.5050   29.7880 C.2     1  UNL1       -0.0195
      3 C         -23.9060   -3.1730   29.1460 C.2     1  UNL1       -0.0042
      4 C         -23.9890   -4.5490   28.8530 C.2     1  UNL1       -0.0003
      5 C         -25.1370   -5.2800   29.2050 C.2     1  UNL1       -0.0000
      6 C         -26.2320   -4.6110   29.7840 C.2     1  UNL1       -0.0003
      7 C         -26.1550   -3.2320   30.0650 C.2     1  UNL1       -0.0042
      8 C         -25.3870   -0.6790   31.5710 C.3     1  UNL1        0.0785
      9 C         -25.1890    0.7730   32.0280 C.3     1  UNL1        0.0192
     10 C         -25.3360    0.6840   33.5440 C.3     1  UNL1        0.0202
     11 C         -24.8290   -0.7150   33.9050 C.3     1  UNL1        0.0887
     12 N         -24.7580   -1.4810   32.6460 N.3     1  UNL1       -0.2191
     13 C         -25.6880    1.6140   26.4610 C.2     1  UNL1        0.0386
     14 C         -26.2500    2.9200   26.3950 C.2     1  UNL1        0.0766
     15 C         -25.6420    4.0930   27.1230 C.2     1  UNL1        0.2664
     16 N         -25.6140    5.2520   26.4490 N.am    1  UNL1       -0.1997
     17 C         -25.0260    6.4790   26.9630 C.3     1  UNL1        0.1388
     18 O         -25.1430    3.9660   28.2430 O.2     1  UNL1       -0.2683
     19 C         -27.4380    3.0910   25.6450 C.2     1  UNL1        0.1067
     20 N         -28.0750    2.0890   25.0030 N.2     1  UNL1       -0.2081
     21 C         -27.5430    0.8490   25.0790 C.2     1  UNL1        0.2533
     22 O         -28.1930   -0.2080   24.4770 O.2     1  UNL1       -0.4558
     23 C         -29.4600    0.0050   23.8660 C.3     1  UNL1        0.2426
     24 C         -30.0650   -1.3770   23.5730 C.3     1  UNL1        0.2292
     25 O         -30.7290   -1.8780   24.7210 O.3     1  UNL1       -0.2162
     26 C         -26.3540    0.5760   25.7770 C.2     1  UNL1        0.1931
     27 F         -25.8600   -0.6810   25.7950 F       1  UNL1       -0.1992
     28 O         -25.9997    4.1757   30.7321 O.2     1  UNL1       -0.2717
     29 C         -27.8032    0.0393   29.1548 C.3     1  UNL1        0.0891
     30 C         -28.3600    1.4294   28.9557 C.3     1  UNL1        0.0193
     31 C         -24.2477    0.7043   28.2309 C.2     1  UNL1       -0.0030
     32 C         -27.2132    4.5293   30.8837 C.2     1  UNL1        0.2607
     33 CL        -23.5191    1.6290   24.4209 Cl      1  UNL1       -0.0822
     34 N         -26.5064   -0.1835   28.5000 N.3     1  UNL1       -0.2147
     35 F         -20.6528    1.5722   28.1106 F       1  UNL1       -0.2042
     36 C         -27.8099    2.3266   30.0209 C.3     1  UNL1        0.0111
     37 C         -28.3594    3.6983   30.3484 C.3     1  UNL1        0.0886
     38 C         -22.0957    1.6741   26.6205 C.2     1  UNL1        0.0410
     39 C         -25.2799   -0.0996   28.9368 C.3     1  UNL1        0.1003
     40 C         -22.9169    0.8744   28.7436 C.2     1  UNL1        0.0268
     41 C         -23.3158    1.5489   26.1356 C.2     1  UNL1        0.0597
     42 C         -21.9075    1.3718   27.9068 C.2     1  UNL1        0.1407
     43 C         -24.4751    1.3049   26.9580 C.2     1  UNL1        0.0106
     44 N         -27.4454    5.6798   31.5112 N.am    1  UNL1       -0.0878
@<TRIPOS>BOND
     1     1    39    1
     2     2     7    1
     3     2     1    1
     4     3     2    2
     5     4     3    1
     6     4     5    2
     7     5     6    1
     8     6     7    2
     9     8     1    1
    10     8     9    1
    11     8    12    1
    12     9    10    1
    13    10    11    1
    14    12    11    1
    15    13    43    1
    16    14    13    1
    17    14    15    1
    18    15    18    2
    19    16    17    1
    20    16    15    1
    21    19    14    2
    22    20    21    2
    23    20    19    1
    24    21    26    1
    25    22    21    1
    26    23    22    1
    27    24    23    1
    28    24    25    1
    29    26    27    1
    30    26    13    2
    31    28    32    2
    32    30    29    1
    33    30    36    1
    34    31    40    1
    35    31    39    1
    36    32    44    1
    37    33    41    1
    38    34    29    1
    39    36    37    1
    40    37    32    1
    41    38    42    1
    42    39    34    1
    43    41    38    2
    44    41    43    1
    45    42    35    1
    46    42    40    2
    47    43    31    2
