@<TRIPOS>MOLECULE
outputs/IAG933/test6/raw/output_598_IAG933_linker_design_.xyz
 41 44 0 0 0
SMALL
GASTEIGER

@<TRIPOS>ATOM
      1 C         -24.8550   -1.0120   30.1430 C.3     1  UNL1        0.1112
      2 C         -24.9730   -2.5050   29.7880 C.2     1  UNL1       -0.0051
      3 C         -23.9060   -3.1730   29.1460 C.2     1  UNL1       -0.0029
      4 C         -23.9890   -4.5490   28.8530 C.2     1  UNL1       -0.0003
      5 C         -25.1370   -5.2800   29.2050 C.2     1  UNL1       -0.0000
      6 C         -26.2320   -4.6110   29.7840 C.2     1  UNL1       -0.0003
      7 C         -26.1550   -3.2320   30.0650 C.2     1  UNL1       -0.0029
      8 C         -25.3870   -0.6790   31.5710 C.3     1  UNL1        0.0929
      9 C         -25.1890    0.7730   32.0280 C.3     1  UNL1        0.0206
     10 C         -25.3360    0.6840   33.5440 C.3     1  UNL1        0.0203
     11 C         -24.8290   -0.7150   33.9050 C.3     1  UNL1        0.0888
     12 N         -24.7580   -1.4810   32.6460 N.3     1  UNL1       -0.2177
     13 C         -25.6880    1.6140   26.4610 C.3     1  UNL1        0.0845
     14 C         -26.2500    2.9200   26.3950 C.2     1  UNL1        0.0557
     15 C         -25.6420    4.0930   27.1230 C.2     1  UNL1        0.2625
     16 N         -25.6140    5.2520   26.4490 N.am    1  UNL1       -0.2000
     17 C         -25.0260    6.4790   26.9630 C.3     1  UNL1        0.1388
     18 O         -25.1430    3.9660   28.2430 O.2     1  UNL1       -0.2687
     19 C         -27.4380    3.0910   25.6450 C.2     1  UNL1        0.1022
     20 N         -28.0750    2.0890   25.0030 N.2     1  UNL1       -0.2119
     21 C         -27.5430    0.8490   25.0790 C.2     1  UNL1        0.2341
     22 O         -28.1930   -0.2080   24.4770 O.2     1  UNL1       -0.4585
     23 C         -29.4600    0.0050   23.8660 C.3     1  UNL1        0.2423
     24 C         -30.0650   -1.3770   23.5730 C.3     1  UNL1        0.2292
     25 O         -30.7290   -1.8780   24.7210 O.3     1  UNL1       -0.2162
     26 C         -26.3540    0.5760   25.7770 C.3     1  UNL1        0.2408
     27 F         -25.8600   -0.6810   25.7950 F       1  UNL1       -0.2269
     28 C         -21.4834    1.2938   27.0003 C.3     1  UNL1        0.2480
     29 O         -22.1001    2.0986   26.0270 O.3     1  UNL1       -0.4449
     30 C         -21.8632    0.9411   27.9640 C.3     1  UNL1        0.2259
     31 C         -24.3593    0.9700   28.0689 C.2     1  UNL1       -0.0171
     32 C         -26.8448    1.9162   29.2717 C.3     1  UNL1        0.1636
     33 O         -27.1189    2.4833   30.5388 O.3     1  UNL1       -0.3493
     34 O         -23.9137    3.1494   25.3762 O.2     1  UNL1       -0.2498
     35 N         -25.8819   -0.3886   29.3686 N.3     1  UNL1       -0.2084
     36 C         -23.4601    2.1778   26.0860 C.2     1  UNL1        0.3208
     37 F         -20.7223    1.2453   28.0026 F       1  UNL1       -0.2284
     38 C         -25.6537    0.9655   28.9643 C.3     1  UNL1        0.1212
     39 C         -23.0838    0.6972   28.6001 C.2     1  UNL1        0.0057
     40 C         -26.4913    3.6689   30.9051 C.3     1  UNL1        0.1742
     41 C         -24.4414    1.5297   26.8622 C.3     1  UNL1        0.1258
@<TRIPOS>BOND
     1     1    35    1
     2     2     7    1
     3     2     1    1
     4     3     2    2
     5     4     3    1
     6     4     5    2
     7     5     6    1
     8     6     7    2
     9     8     1    1
    10     8     9    1
    11     8    12    1
    12     9    10    1
    13    10    11    1
    14    12    11    1
    15    13    14    1
    16    13    41    1
    17    14    15    1
    18    15    18    2
    19    16    17    1
    20    16    15    1
    21    19    14    2
    22    20    21    2
    23    20    19    1
    24    21    26    1
    25    22    21    1
    26    23    22    1
    27    24    23    1
    28    24    25    1
    29    26    27    1
    30    26    13    1
    31    28    30    1
    32    29    36    1
    33    29    28    1
    34    30    37    1
    35    30    39    1
    36    31    39    2
    37    31    38    1
    38    32    33    1
    39    33    40    1
    40    34    36    2
    41    38    32    1
    42    38    35    1
    43    41    36    1
    44    41    31    1
