@<TRIPOS>MOLECULE
outputs/IAG933/test6/raw/output_5981_IAG933_linker_design_.xyz
 44 48 0 0 0
SMALL
GASTEIGER

@<TRIPOS>ATOM
      1 C         -24.8550   -1.0120   30.1430 C.3     1  UNL1        0.0621
      2 C         -24.9730   -2.5050   29.7880 C.2     1  UNL1       -0.0192
      3 C         -23.9060   -3.1730   29.1460 C.2     1  UNL1       -0.0042
      4 C         -23.9890   -4.5490   28.8530 C.2     1  UNL1       -0.0003
      5 C         -25.1370   -5.2800   29.2050 C.2     1  UNL1       -0.0000
      6 C         -26.2320   -4.6110   29.7840 C.2     1  UNL1       -0.0003
      7 C         -26.1550   -3.2320   30.0650 C.2     1  UNL1       -0.0042
      8 C         -25.3870   -0.6790   31.5710 C.3     1  UNL1        0.0788
      9 C         -25.1890    0.7730   32.0280 C.3     1  UNL1        0.0193
     10 C         -25.3360    0.6840   33.5440 C.3     1  UNL1        0.0202
     11 C         -24.8290   -0.7150   33.9050 C.3     1  UNL1        0.0887
     12 N         -24.7580   -1.4810   32.6460 N.3     1  UNL1       -0.2191
     13 C         -25.6880    1.6140   26.4610 C.2     1  UNL1        0.0398
     14 C         -26.2500    2.9200   26.3950 C.2     1  UNL1        0.0766
     15 C         -25.6420    4.0930   27.1230 C.2     1  UNL1        0.2664
     16 N         -25.6140    5.2520   26.4490 N.am    1  UNL1       -0.1997
     17 C         -25.0260    6.4790   26.9630 C.3     1  UNL1        0.1388
     18 O         -25.1430    3.9660   28.2430 O.2     1  UNL1       -0.2683
     19 C         -27.4380    3.0910   25.6450 C.2     1  UNL1        0.1067
     20 N         -28.0750    2.0890   25.0030 N.2     1  UNL1       -0.2081
     21 C         -27.5430    0.8490   25.0790 C.2     1  UNL1        0.2533
     22 O         -28.1930   -0.2080   24.4770 O.2     1  UNL1       -0.4558
     23 C         -29.4600    0.0050   23.8660 C.3     1  UNL1        0.2426
     24 C         -30.0650   -1.3770   23.5730 C.3     1  UNL1        0.2292
     25 O         -30.7290   -1.8780   24.7210 O.3     1  UNL1       -0.2162
     26 C         -26.3540    0.5760   25.7770 C.2     1  UNL1        0.1931
     27 F         -25.8600   -0.6810   25.7950 F       1  UNL1       -0.1992
     28 F         -20.8748    1.8329   27.4603 F       1  UNL1       -0.2047
     29 C         -27.9970    0.2196   29.3746 C.2     1  UNL1        0.0656
     30 N         -22.1961    0.0105   29.6004 N.3     1  UNL1       -0.1210
     31 C         -30.1513    0.6193   31.1826 C.2     1  UNL1       -0.0218
     32 C         -24.2465    0.6304   28.2619 C.2     1  UNL1        0.0015
     33 C         -28.2451    1.5095   29.9811 C.2     1  UNL1        0.0158
     34 C         -29.2775    1.6991   30.9084 C.2     1  UNL1       -0.0029
     35 C         -25.2436   -0.0415   29.0312 C.3     1  UNL1        0.1178
     36 C         -22.1936    1.4871   27.6074 C.2     1  UNL1        0.1660
     37 F         -22.7973    2.5900   25.6437 F       1  UNL1       -0.2021
     38 C         -29.0078   -0.7673   29.4571 C.2     1  UNL1        0.0158
     39 C         -24.4194    1.3839   27.1078 C.2     1  UNL1        0.0274
     40 C         -31.1423    0.6287   32.4086 C.3     1  UNL1        0.0310
     41 N         -26.6789   -0.2059   28.6967 N.pl3   1  UNL1       -0.2348
     42 C         -30.0919   -0.5772   30.3903 C.2     1  UNL1       -0.0029
     43 C         -23.1498    1.8594   26.7306 C.2     1  UNL1        0.1645
     44 C         -22.7946    0.7029   28.6111 C.3     1  UNL1        0.1638
@<TRIPOS>BOND
     1     1    35    1
     2     2     7    1
     3     2     1    1
     4     3     2    2
     5     4     3    1
     6     4     5    2
     7     5     6    1
     8     6     7    2
     9     8     1    1
    10     8     9    1
    11     8    12    1
    12     9    10    1
    13    10    11    1
    14    12    11    1
    15    13    39    1
    16    14    13    1
    17    14    15    1
    18    15    18    2
    19    16    17    1
    20    16    15    1
    21    19    14    2
    22    20    21    2
    23    20    19    1
    24    21    26    1
    25    22    21    1
    26    23    22    1
    27    24    23    1
    28    24    25    1
    29    26    27    1
    30    26    13    2
    31    28    36    1
    32    29    38    2
    33    29    33    1
    34    31    40    1
    35    32    44    1
    36    32    35    1
    37    33    34    2
    38    34    31    1
    39    35    41    1
    40    36    44    1
    41    37    43    1
    42    38    42    1
    43    39    32    2
    44    41    29    1
    45    42    31    2
    46    43    39    1
    47    43    36    2
    48    44    30    1
