@<TRIPOS>MOLECULE
outputs/IAG933/test6/raw/output_5982_IAG933_linker_design_.xyz
 43 48 0 0 0
SMALL
GASTEIGER

@<TRIPOS>ATOM
      1 C         -24.8550   -1.0120   30.1430 C.3     1  UNL1        0.1139
      2 C         -24.9730   -2.5050   29.7880 C.2     1  UNL1       -0.0029
      3 C         -23.9060   -3.1730   29.1460 C.2     1  UNL1       -0.0026
      4 C         -23.9890   -4.5490   28.8530 C.2     1  UNL1       -0.0003
      5 C         -25.1370   -5.2800   29.2050 C.2     1  UNL1       -0.0000
      6 C         -26.2320   -4.6110   29.7840 C.2     1  UNL1       -0.0003
      7 C         -26.1550   -3.2320   30.0650 C.2     1  UNL1       -0.0026
      8 C         -25.3870   -0.6790   31.5710 C.3     1  UNL1        0.0951
      9 C         -25.1890    0.7730   32.0280 C.3     1  UNL1        0.0209
     10 C         -25.3360    0.6840   33.5440 C.3     1  UNL1        0.0203
     11 C         -24.8290   -0.7150   33.9050 C.3     1  UNL1        0.0888
     12 N         -24.7580   -1.4810   32.6460 N.3     1  UNL1       -0.2174
     13 C         -25.6880    1.6140   26.4610 C.2     1  UNL1        0.0173
     14 C         -26.2500    2.9200   26.3950 C.2     1  UNL1        0.0726
     15 C         -25.6420    4.0930   27.1230 C.2     1  UNL1        0.2661
     16 N         -25.6140    5.2520   26.4490 N.am    1  UNL1       -0.1997
     17 C         -25.0260    6.4790   26.9630 C.3     1  UNL1        0.1388
     18 O         -25.1430    3.9660   28.2430 O.2     1  UNL1       -0.2683
     19 C         -27.4380    3.0910   25.6450 C.2     1  UNL1        0.1064
     20 N         -28.0750    2.0890   25.0030 N.2     1  UNL1       -0.2081
     21 C         -27.5430    0.8490   25.0790 C.2     1  UNL1        0.2530
     22 O         -28.1930   -0.2080   24.4770 O.2     1  UNL1       -0.4558
     23 C         -29.4600    0.0050   23.8660 C.3     1  UNL1        0.2426
     24 C         -30.0650   -1.3770   23.5730 C.3     1  UNL1        0.2292
     25 O         -30.7290   -1.8780   24.7210 O.3     1  UNL1       -0.2162
     26 C         -26.3540    0.5760   25.7770 C.2     1  UNL1        0.1892
     27 F         -25.8600   -0.6810   25.7950 F       1  UNL1       -0.1996
     28 C         -24.4723    1.4401   27.2681 C.3     1  UNL1        0.0481
     29 C         -28.5749    2.0585   31.8433 C.2     1  UNL1        0.0001
     30 C         -29.9471    1.7910   29.7674 C.2     1  UNL1        0.0033
     31 N         -25.5557   -0.1229   29.2441 N.pl3   1  UNL1       -0.2748
     32 C         -29.2740   -0.3616   28.4473 C.2     1  UNL1        0.1812
     33 O         -22.2852    0.4612   28.1598 O.3     1  UNL1       -0.3520
     34 C         -27.4591    1.4446   31.0535 C.2     1  UNL1        0.0045
     35 C         -26.9300   -0.1097   29.2336 C.2     1  UNL1        0.1994
     36 C         -29.3555    0.5536   29.3683 C.2     1  UNL1        0.0419
     37 C         -24.7035    0.8878   28.6095 C.3     1  UNL1        0.1094
     38 C         -23.2906    0.7636   29.1703 C.3     1  UNL1        0.1621
     39 C         -29.7164    2.4524   31.0834 C.2     1  UNL1        0.0001
     40 O         -27.8368   -0.8862   28.4033 O.2     1  UNL1       -0.4369
     41 C         -22.0570    1.7388   27.4341 C.3     1  UNL1        0.1426
     42 C         -27.7190    0.6418   29.9436 C.2     1  UNL1        0.0523
     43 C         -23.2068    1.8709   26.4495 C.3     1  UNL1        0.0382
@<TRIPOS>BOND
     1     1    31    1
     2     2     7    1
     3     2     1    1
     4     3     2    2
     5     4     3    1
     6     4     5    2
     7     5     6    1
     8     6     7    2
     9     8     1    1
    10     8     9    1
    11     8    12    1
    12     9    10    1
    13    10    11    1
    14    12    11    1
    15    14    13    1
    16    14    15    1
    17    15    18    2
    18    16    17    1
    19    16    15    1
    20    19    14    2
    21    20    21    2
    22    20    19    1
    23    21    26    1
    24    22    21    1
    25    23    22    1
    26    24    23    1
    27    24    25    1
    28    26    27    1
    29    26    13    2
    30    28    13    1
    31    28    37    1
    32    30    39    2
    33    32    36    2
    34    33    38    1
    35    34    29    2
    36    35    31    1
    37    35    42    2
    38    36    30    1
    39    36    42    1
    40    37    38    1
    41    37    31    1
    42    39    29    1
    43    40    32    1
    44    40    35    1
    45    41    33    1
    46    42    34    1
    47    43    28    1
    48    43    41    1
