@<TRIPOS>MOLECULE
No_599-gen_results/8p0m/2024-11-27-11-27-31/
 33 36 0 0 0
SMALL
GASTEIGER

@<TRIPOS>ATOM
      1 C         -28.0162   -0.8135   28.8779 C.2     1  UNL1       -0.0095
      2 C         -28.4690   -0.7850   29.8287 C.2     1  UNL1       -0.0036
      3 C         -28.1960    0.3478   28.0550 C.3     1  UNL1        0.1139
      4 C         -27.4421    0.5100   26.7946 C.ar    1  UNL1       -0.0077
      5 C         -26.4394    0.8329   26.6142 C.ar    1  UNL1        0.0113
      6 C         -25.2139    0.6624   26.7019 C.3     1  UNL1        0.2053
      7 C         -23.9079    0.8048   27.1307 C.ar    1  UNL1        0.0141
      8 C         -23.0564    1.8886   26.7082 C.ar    1  UNL1       -0.0013
      9 C         -29.5235    0.0469   30.3543 C.2     1  UNL1       -0.0024
     10 C         -29.8144    1.1140   29.5694 C.2     1  UNL1        0.0044
     11 C         -29.1518    1.3052   28.3943 C.3     1  UNL1        0.1579
     12 C         -21.7824    2.0268   27.3103 C.ar    1  UNL1       -0.0002
     13 C         -21.3592    1.1033   28.2923 C.ar    1  UNL1       -0.0000
     14 C         -23.3173    0.0485   28.1884 C.ar    1  UNL1       -0.0013
     15 C         -22.1454    0.1828   28.7662 C.ar    1  UNL1       -0.0002
     16 C         -28.2885   -0.0014   25.6640 C.ar    1  UNL1       -0.0033
     17 C         -28.2549    0.8086   24.5640 C.ar    1  UNL1       -0.0003
     18 C         -26.4875    1.7895   25.3879 C.ar    1  UNL1       -0.0016
     19 C         -27.1834    1.5259   24.3134 C.ar    1  UNL1       -0.0002
     20 O         -29.3853    2.3019   27.6375 O.3     1  UNL1       -0.3170
     21 C         -30.5717    2.5216   27.0911 C.3     1  UNL1        0.2887
     22 C         -30.9579    3.9312   27.3418 C.3     1  UNL1        0.0885
     23 O         -30.6541    2.1925   25.7756 O.3     1  UNL1       -0.4524
     24 C         -30.1345    4.8694   27.5549 C.3     1  UNL1        0.0741
     25 BR        -30.1896    6.1861   27.7732 Br      1  UNL1       -0.0806
     26 BR        -27.8277   -0.1462   27.4546 Br      1  UNL1       -0.0707
     27 F         -24.7901   -0.6065   25.8657 F       1  UNL1       -0.2275
     28 C         -31.6623    1.4668   25.3034 C.ar    1  UNL1        0.1413
     29 C         -31.7349    1.6013   23.9753 C.ar    1  UNL1        0.0370
     30 C         -32.8915    1.6857   25.9568 C.ar    1  UNL1        0.0370
     31 C         -33.9016    1.1474   25.5934 C.ar    1  UNL1        0.0031
     32 C         -34.1593    1.2260   24.1163 C.ar    1  UNL1        0.0002
     33 C         -32.9150    0.8783   23.3462 C.ar    1  UNL1        0.0031
@<TRIPOS>BOND
     1     1     2    2
     2     1     3    1
     3     3     4    1
     4     6     7    1
     5     2     9    1
     6     9    10    2
     7     3    11    1
     8    10    11    1
     9    11    20    1
    10    20    21    1
    11    21    22    1
    12    21    23    1
    13    22    24    1
    14    24    25    1
    15     3    26    1
    16     6    27    1
    17    23    28    1
    18     6     5    1
    19     4     5   ar
    20     5    18   ar
    21    18    19   ar
    22    19    17   ar
    23    17    16   ar
    24    16     4   ar
    25     7     8   ar
    26     8    12   ar
    27    12    13   ar
    28    13    15   ar
    29    15    14   ar
    30    14     7   ar
    31    28    29   ar
    32    29    33   ar
    33    33    32   ar
    34    32    31   ar
    35    31    30   ar
    36    30    28   ar
