@<TRIPOS>MOLECULE
outputs/IAG933/test6/raw/output_5991_IAG933_linker_design_.xyz
 46 48 0 0 0
SMALL
GASTEIGER

@<TRIPOS>ATOM
      1 C         -24.8550   -1.0120   30.1430 C.3     1  UNL1        0.0981
      2 C         -24.9730   -2.5050   29.7880 C.2     1  UNL1       -0.0064
      3 C         -23.9060   -3.1730   29.1460 C.2     1  UNL1       -0.0029
      4 C         -23.9890   -4.5490   28.8530 C.2     1  UNL1       -0.0003
      5 C         -25.1370   -5.2800   29.2050 C.2     1  UNL1       -0.0000
      6 C         -26.2320   -4.6110   29.7840 C.2     1  UNL1       -0.0003
      7 C         -26.1550   -3.2320   30.0650 C.2     1  UNL1       -0.0029
      8 C         -25.3870   -0.6790   31.5710 C.3     1  UNL1        0.0916
      9 C         -25.1890    0.7730   32.0280 C.3     1  UNL1        0.0206
     10 C         -25.3360    0.6840   33.5440 C.3     1  UNL1        0.0203
     11 C         -24.8290   -0.7150   33.9050 C.3     1  UNL1        0.0888
     12 N         -24.7580   -1.4810   32.6460 N.3     1  UNL1       -0.2178
     13 C         -25.6880    1.6140   26.4610 C.2     1  UNL1        0.0181
     14 C         -26.2500    2.9200   26.3950 C.2     1  UNL1        0.0726
     15 C         -25.6420    4.0930   27.1230 C.2     1  UNL1        0.2661
     16 N         -25.6140    5.2520   26.4490 N.am    1  UNL1       -0.1997
     17 C         -25.0260    6.4790   26.9630 C.3     1  UNL1        0.1388
     18 O         -25.1430    3.9660   28.2430 O.2     1  UNL1       -0.2683
     19 C         -27.4380    3.0910   25.6450 C.2     1  UNL1        0.1064
     20 N         -28.0750    2.0890   25.0030 N.2     1  UNL1       -0.2081
     21 C         -27.5430    0.8490   25.0790 C.2     1  UNL1        0.2530
     22 O         -28.1930   -0.2080   24.4770 O.2     1  UNL1       -0.4558
     23 C         -29.4600    0.0050   23.8660 C.3     1  UNL1        0.2426
     24 C         -30.0650   -1.3770   23.5730 C.3     1  UNL1        0.2292
     25 O         -30.7290   -1.8780   24.7210 O.3     1  UNL1       -0.2162
     26 C         -26.3540    0.5760   25.7770 C.2     1  UNL1        0.1892
     27 F         -25.8600   -0.6810   25.7950 F       1  UNL1       -0.1996
     28 C         -29.0092    4.7707   31.5839 C.3     1  UNL1        0.2742
     29 CL        -21.6092    1.5869   27.8549 Cl      1  UNL1       -0.1146
     30 O         -30.3672    6.8915   30.2673 O.3     1  UNL1       -0.2004
     31 C         -29.4212    3.3009   29.6552 C.3     1  UNL1        0.0815
     32 N         -29.1039    4.6923   30.0522 N.3     1  UNL1       -0.2005
     33 C         -28.1796    1.4762   29.7251 C.3     1  UNL1        0.1453
     34 N         -25.5729   -0.1181   29.1595 N.3     1  UNL1       -0.2435
     35 C         -29.6807    5.9752   29.4698 C.3     1  UNL1        0.2625
     36 O         -30.2864    4.9329   32.1783 O.3     1  UNL1       -0.3178
     37 C         -31.0427    3.9305   32.9064 C.3     1  UNL1        0.1781
     38 C         -23.1402    2.0531   27.0767 C.3     1  UNL1        0.0854
     39 C         -23.0244    2.3929   25.5655 C.3     1  UNL1        0.0179
     40 C         -28.1457    2.5142   30.1657 C.3     1  UNL1        0.0497
     41 O         -28.2474    0.2590   28.9267 O.3     1  UNL1       -0.3373
     42 C         -24.5191    0.2363   28.2090 C.3     1  UNL1        0.0803
     43 C         -26.9886   -0.3873   28.6652 C.3     1  UNL1        0.2202
     44 O         -27.9320    5.6827   31.7536 O.3     1  UNL1       -0.1771
     45 C         -28.5114    3.6974   32.5096 C.3     1  UNL1        0.0831
     46 C         -24.5035    1.3466   27.4281 C.3     1  UNL1        0.0560
@<TRIPOS>BOND
     1     1    34    1
     2     2     7    1
     3     2     1    1
     4     3     2    2
     5     4     3    1
     6     4     5    2
     7     5     6    1
     8     6     7    2
     9     8     1    1
    10     8     9    1
    11     8    12    1
    12     9    10    1
    13    10    11    1
    14    12    11    1
    15    13    46    1
    16    14    13    1
    17    14    15    1
    18    15    18    2
    19    16    17    1
    20    16    15    1
    21    19    14    2
    22    20    21    2
    23    20    19    1
    24    21    26    1
    25    22    21    1
    26    23    22    1
    27    24    23    1
    28    24    25    1
    29    26    27    1
    30    26    13    2
    31    28    44    1
    32    28    36    1
    33    28    45    1
    34    31    32    1
    35    31    40    1
    36    32    28    1
    37    33    40    1
    38    35    32    1
    39    35    30    1
    40    36    37    1
    41    38    39    1
    42    38    46    1
    43    38    29    1
    44    41    33    1
    45    42    34    1
    46    43    41    1
    47    43    34    1
    48    46    42    1
