@<TRIPOS>MOLECULE
outputs/IAG933/test6/raw/output_5996_IAG933_linker_design_.xyz
 43 46 0 0 0
SMALL
GASTEIGER

@<TRIPOS>ATOM
      1 C         -24.8550   -1.0120   30.1430 C.3     1  UNL1        0.0451
      2 C         -24.9730   -2.5050   29.7880 C.2     1  UNL1       -0.0207
      3 C         -23.9060   -3.1730   29.1460 C.2     1  UNL1       -0.0042
      4 C         -23.9890   -4.5490   28.8530 C.2     1  UNL1       -0.0003
      5 C         -25.1370   -5.2800   29.2050 C.2     1  UNL1       -0.0000
      6 C         -26.2320   -4.6110   29.7840 C.2     1  UNL1       -0.0003
      7 C         -26.1550   -3.2320   30.0650 C.2     1  UNL1       -0.0042
      8 C         -25.3870   -0.6790   31.5710 C.3     1  UNL1        0.0917
      9 C         -25.1890    0.7730   32.0280 C.3     1  UNL1        0.0765
     10 C         -25.3360    0.6840   33.5440 C.3     1  UNL1        0.0362
     11 C         -24.8290   -0.7150   33.9050 C.3     1  UNL1        0.0901
     12 N         -24.7580   -1.4810   32.6460 N.3     1  UNL1       -0.2177
     13 C         -25.6880    1.6140   26.4610 C.2     1  UNL1        0.0866
     14 C         -26.2500    2.9200   26.3950 C.2     1  UNL1        0.0899
     15 C         -25.6420    4.0930   27.1230 C.2     1  UNL1        0.2676
     16 N         -25.6140    5.2520   26.4490 N.am    1  UNL1       -0.1997
     17 C         -25.0260    6.4790   26.9630 C.3     1  UNL1        0.1388
     18 O         -25.1430    3.9660   28.2430 O.2     1  UNL1       -0.2683
     19 C         -27.4380    3.0910   25.6450 C.2     1  UNL1        0.1080
     20 N         -28.0750    2.0890   25.0030 N.2     1  UNL1       -0.2080
     21 C         -27.5430    0.8490   25.0790 C.2     1  UNL1        0.2546
     22 O         -28.1930   -0.2080   24.4770 O.2     1  UNL1       -0.4558
     23 C         -29.4600    0.0050   23.8660 C.3     1  UNL1        0.2426
     24 C         -30.0650   -1.3770   23.5730 C.3     1  UNL1        0.2292
     25 O         -30.7290   -1.8780   24.7210 O.3     1  UNL1       -0.2162
     26 C         -26.3540    0.5760   25.7770 C.2     1  UNL1        0.2063
     27 F         -25.8600   -0.6810   25.7950 F       1  UNL1       -0.1979
     28 N         -25.9307    1.8416   31.3823 N.3     1  UNL1       -0.2572
     29 C         -20.9974    1.5580   27.7744 C.2     1  UNL1       -0.0032
     30 C         -25.1368    0.7627   28.7162 C.3     1  UNL1        0.1084
     31 N         -25.9082    4.3458   31.9205 N.3     1  UNL1       -0.2342
     32 C         -26.3766    5.6345   31.4925 C.3     1  UNL1        0.0756
     33 C         -22.2457    1.0905   27.9268 C.2     1  UNL1       -0.0068
     34 C         -24.7791    4.1392   32.6928 C.3     1  UNL1        0.2136
     35 C         -24.9139    6.4706   33.3314 C.3     1  UNL1        0.0055
     36 C         -24.0542    5.3081   33.2379 C.3     1  UNL1        0.0502
     37 N         -24.7121    1.2697   27.2884 N.pl3   1  UNL1       -0.3019
     38 C         -25.4026    6.7960   31.8351 C.3     1  UNL1        0.0176
     39 C         -22.9185    2.2414   25.8040 C.3     1  UNL1        0.0263
     40 O         -23.8930    3.4183   32.0571 O.3     1  UNL1       -0.2049
     41 C         -26.0128    1.4687   29.9082 C.3     1  UNL1        0.0948
     42 C         -23.4559    1.3931   26.9675 C.3     1  UNL1        0.0952
     43 C         -26.6345    3.2034   31.4095 C.3     1  UNL1        0.1512
@<TRIPOS>BOND
     1     2     7    1
     2     2     1    1
     3     3     2    2
     4     4     3    1
     5     4     5    2
     6     5     6    1
     7     6     7    2
     8     8     1    1
     9     8     9    1
    10     8    12    1
    11     9    28    1
    12     9    10    1
    13    10    11    1
    14    12    11    1
    15    13    37    1
    16    14    13    1
    17    14    15    1
    18    15    18    2
    19    16    17    1
    20    16    15    1
    21    19    14    2
    22    20    21    2
    23    20    19    1
    24    21    26    1
    25    22    21    1
    26    23    22    1
    27    24    23    1
    28    24    25    1
    29    26    27    1
    30    26    13    2
    31    28    43    1
    32    29    33    2
    33    30    41    1
    34    31    34    1
    35    32    38    1
    36    32    31    1
    37    34    40    1
    38    34    36    1
    39    36    35    1
    40    37    30    1
    41    38    35    1
    42    41    28    1
    43    42    39    1
    44    42    37    1
    45    42    33    1
    46    43    31    1
