@<TRIPOS>MOLECULE
outputs/IAG933/test6/raw/output_6_IAG933_linker_design_.xyz
 47 51 0 0 0
SMALL
GASTEIGER

@<TRIPOS>ATOM
      1 C         -24.8550   -1.0120   30.1430 C.3     1  UNL1        0.1146
      2 C         -24.9730   -2.5050   29.7880 C.2     1  UNL1       -0.0029
      3 C         -23.9060   -3.1730   29.1460 C.2     1  UNL1       -0.0026
      4 C         -23.9890   -4.5490   28.8530 C.2     1  UNL1       -0.0003
      5 C         -25.1370   -5.2800   29.2050 C.2     1  UNL1       -0.0000
      6 C         -26.2320   -4.6110   29.7840 C.2     1  UNL1       -0.0003
      7 C         -26.1550   -3.2320   30.0650 C.2     1  UNL1       -0.0026
      8 C         -25.3870   -0.6790   31.5710 C.3     1  UNL1        0.0987
      9 C         -25.1890    0.7730   32.0280 C.3     1  UNL1        0.0631
     10 C         -25.3360    0.6840   33.5440 C.3     1  UNL1        0.0240
     11 C         -24.8290   -0.7150   33.9050 C.3     1  UNL1        0.0889
     12 N         -24.7580   -1.4810   32.6460 N.3     1  UNL1       -0.2173
     13 C         -25.6880    1.6140   26.4610 C.2     1  UNL1        0.0425
     14 C         -26.2500    2.9200   26.3950 C.2     1  UNL1        0.0767
     15 C         -25.6420    4.0930   27.1230 C.2     1  UNL1        0.2664
     16 N         -25.6140    5.2520   26.4490 N.am    1  UNL1       -0.1997
     17 C         -25.0260    6.4790   26.9630 C.3     1  UNL1        0.1388
     18 O         -25.1430    3.9660   28.2430 O.2     1  UNL1       -0.2683
     19 C         -27.4380    3.0910   25.6450 C.2     1  UNL1        0.1067
     20 N         -28.0750    2.0890   25.0030 N.2     1  UNL1       -0.2081
     21 C         -27.5430    0.8490   25.0790 C.2     1  UNL1        0.2533
     22 O         -28.1930   -0.2080   24.4770 O.2     1  UNL1       -0.4558
     23 C         -29.4600    0.0050   23.8660 C.3     1  UNL1        0.2426
     24 C         -30.0650   -1.3770   23.5730 C.3     1  UNL1        0.2292
     25 O         -30.7290   -1.8780   24.7210 O.3     1  UNL1       -0.2162
     26 C         -26.3540    0.5760   25.7770 C.2     1  UNL1        0.1932
     27 F         -25.8600   -0.6810   25.7950 F       1  UNL1       -0.1992
     28 C         -26.1199    6.7643   35.6646 C.3     1  UNL1        0.0344
     29 C         -26.5430    1.3503   31.4753 C.3     1  UNL1        0.2068
     30 C         -26.6501    6.0552   33.3267 C.2     1  UNL1        0.1906
     31 O         -27.0752    2.7330   31.5771 O.2     1  UNL1       -0.4756
     32 C         -22.1889    1.8994   26.9745 C.2     1  UNL1        0.0271
     33 N         -24.0024   -0.0022   29.3662 N.am    1  UNL1       -0.2661
     34 C         -23.5255    2.2454   26.6697 C.2     1  UNL1        0.0066
     35 C         -26.8821    4.3381   35.0162 C.2     1  UNL1        0.0020
     36 C         -24.7705    0.2169   28.1162 C.2     1  UNL1        0.2496
     37 C         -26.5500    5.6726   34.6633 C.2     1  UNL1        0.0170
     38 C         -27.1712    3.3606   34.0375 C.2     1  UNL1        0.0365
     39 C         -21.8676    1.3875   28.2016 C.2     1  UNL1        0.1377
     40 C         -24.5516    1.3171   27.1877 C.2     1  UNL1        0.0562
     41 C         -26.6707    5.0106   32.3061 C.2     1  UNL1        0.0506
     42 C         -22.7388    0.9286   29.2732 C.3     1  UNL1        0.1506
     43 O         -26.7622    7.3437   32.9607 O.2     1  UNL1       -0.2871
     44 O         -25.6791   -0.5958   27.9345 O.2     1  UNL1       -0.2699
     45 C         -26.4072    5.4007   30.8559 C.3     1  UNL1        0.0376
     46 C         -26.9916    3.6622   32.6489 C.2     1  UNL1        0.1376
     47 F         -20.5073    1.4125   28.2126 F       1  UNL1       -0.2071
@<TRIPOS>BOND
     1     1     2    1
     2     2     7    1
     3     3     2    2
     4     4     3    1
     5     4     5    2
     6     5     6    1
     7     6     7    2
     8     8     1    1
     9     8     9    1
    10     8    12    1
    11     9    29    1
    12     9    10    1
    13    10    11    1
    14    12    11    1
    15    13    40    1
    16    14    13    1
    17    14    15    1
    18    15    18    2
    19    16    17    1
    20    16    15    1
    21    19    14    2
    22    20    21    2
    23    20    19    1
    24    21    26    1
    25    22    21    1
    26    23    22    1
    27    24    23    1
    28    24    25    1
    29    26    27    1
    30    26    13    2
    31    29    31    1
    32    30    37    1
    33    31    46    1
    34    32    39    2
    35    33     1    1
    36    34    32    1
    37    34    40    2
    38    36    33   am
    39    37    35    2
    40    37    28    1
    41    38    35    1
    42    39    47    1
    43    39    42    1
    44    40    36    1
    45    41    46    1
    46    41    30    2
    47    42    33    1
    48    43    30    1
    49    44    36    2
    50    45    41    1
    51    46    38    2
