@<TRIPOS>MOLECULE
outputs/IAG933/test6/raw/output_60_IAG933_linker_design_.xyz
 43 47 0 0 0
SMALL
GASTEIGER

@<TRIPOS>ATOM
      1 C         -24.8550   -1.0120   30.1430 C.3     1  UNL1        0.1157
      2 C         -24.9730   -2.5050   29.7880 C.2     1  UNL1       -0.0027
      3 C         -23.9060   -3.1730   29.1460 C.2     1  UNL1       -0.0026
      4 C         -23.9890   -4.5490   28.8530 C.2     1  UNL1       -0.0003
      5 C         -25.1370   -5.2800   29.2050 C.2     1  UNL1       -0.0000
      6 C         -26.2320   -4.6110   29.7840 C.2     1  UNL1       -0.0003
      7 C         -26.1550   -3.2320   30.0650 C.2     1  UNL1       -0.0026
      8 C         -25.3870   -0.6790   31.5710 C.3     1  UNL1        0.0954
      9 C         -25.1890    0.7730   32.0280 C.3     1  UNL1        0.0209
     10 C         -25.3360    0.6840   33.5440 C.3     1  UNL1        0.0203
     11 C         -24.8290   -0.7150   33.9050 C.3     1  UNL1        0.0888
     12 N         -24.7580   -1.4810   32.6460 N.3     1  UNL1       -0.2174
     13 C         -25.6880    1.6140   26.4610 C.2     1  UNL1        0.0394
     14 C         -26.2500    2.9200   26.3950 C.2     1  UNL1        0.0766
     15 C         -25.6420    4.0930   27.1230 C.2     1  UNL1        0.2664
     16 N         -25.6140    5.2520   26.4490 N.am    1  UNL1       -0.1997
     17 C         -25.0260    6.4790   26.9630 C.3     1  UNL1        0.1388
     18 O         -25.1430    3.9660   28.2430 O.2     1  UNL1       -0.2683
     19 C         -27.4380    3.0910   25.6450 C.2     1  UNL1        0.1067
     20 N         -28.0750    2.0890   25.0030 N.2     1  UNL1       -0.2081
     21 C         -27.5430    0.8490   25.0790 C.2     1  UNL1        0.2533
     22 O         -28.1930   -0.2080   24.4770 O.2     1  UNL1       -0.4558
     23 C         -29.4600    0.0050   23.8660 C.3     1  UNL1        0.2426
     24 C         -30.0650   -1.3770   23.5730 C.3     1  UNL1        0.2292
     25 O         -30.7290   -1.8780   24.7210 O.3     1  UNL1       -0.2162
     26 C         -26.3540    0.5760   25.7770 C.2     1  UNL1        0.1931
     27 F         -25.8600   -0.6810   25.7950 F       1  UNL1       -0.1992
     28 C         -24.4346    1.4316   27.2345 C.2     1  UNL1        0.0184
     29 C         -29.5169    2.7238   28.9008 C.3     1  UNL1        0.0310
     30 C         -22.1523    1.7367   26.8567 C.2     1  UNL1        0.1402
     31 C         -29.5801    1.5263   28.2286 C.2     1  UNL1       -0.0299
     32 C         -27.7908   -0.2538   28.6709 C.3     1  UNL1        0.0750
     33 C         -23.4191    2.0099   26.4996 C.2     1  UNL1        0.0309
     34 C         -28.9626    0.3061   28.1127 C.2     1  UNL1       -0.0240
     35 C         -27.3572    2.5072   30.1213 C.2     1  UNL1        0.0165
     36 N         -25.2398   -0.0460   29.1223 N.pl3   1  UNL1       -0.2804
     37 C         -24.2354    0.6163   28.3843 C.2     1  UNL1        0.0522
     38 C         -26.8758    1.4719   29.6074 C.1     1  UNL1       -0.0949
     39 C         -21.8511    1.0400   28.0140 C.2     1  UNL1        0.0309
     40 C         -28.4096    3.4162   29.5962 C.3     1  UNL1        0.0391
     41 F         -21.2176    2.1998   25.9692 F       1  UNL1       -0.2042
     42 C         -22.9097    0.4941   28.7661 C.2     1  UNL1        0.0171
     43 C         -26.5270    0.4096   29.1243 C.2     1  UNL1        0.0682
@<TRIPOS>BOND
     1     1    36    1
     2     2     7    1
     3     2     1    1
     4     3     2    2
     5     4     3    1
     6     4     5    2
     7     5     6    1
     8     6     7    2
     9     8     1    1
    10     8     9    1
    11     8    12    1
    12     9    10    1
    13    10    11    1
    14    12    11    1
    15    13    28    1
    16    14    13    1
    17    14    15    1
    18    15    18    2
    19    16    17    1
    20    16    15    1
    21    19    14    2
    22    20    21    2
    23    20    19    1
    24    21    26    1
    25    22    21    1
    26    23    22    1
    27    24    23    1
    28    24    25    1
    29    26    27    1
    30    26    13    2
    31    28    37    1
    32    29    40    1
    33    30    39    2
    34    31    29    1
    35    32    43    1
    36    33    30    1
    37    33    28    2
    38    34    31    2
    39    34    32    1
    40    36    43    1
    41    37    42    2
    42    37    36    1
    43    38    35    2
    44    39    42    1
    45    40    35    1
    46    41    30    1
    47    43    38    2
