@<TRIPOS>MOLECULE
outputs/IAG933/test6/raw/output_600_IAG933_linker_design_.xyz
 46 50 0 0 0
SMALL
GASTEIGER

@<TRIPOS>ATOM
      1 C         -24.8550   -1.0120   30.1430 C.3     1  UNL1        0.1130
      2 C         -24.9730   -2.5050   29.7880 C.2     1  UNL1       -0.0029
      3 C         -23.9060   -3.1730   29.1460 C.2     1  UNL1       -0.0026
      4 C         -23.9890   -4.5490   28.8530 C.2     1  UNL1       -0.0003
      5 C         -25.1370   -5.2800   29.2050 C.2     1  UNL1       -0.0000
      6 C         -26.2320   -4.6110   29.7840 C.2     1  UNL1       -0.0003
      7 C         -26.1550   -3.2320   30.0650 C.2     1  UNL1       -0.0026
      8 C         -25.3870   -0.6790   31.5710 C.3     1  UNL1        0.0951
      9 C         -25.1890    0.7730   32.0280 C.3     1  UNL1        0.0209
     10 C         -25.3360    0.6840   33.5440 C.3     1  UNL1        0.0203
     11 C         -24.8290   -0.7150   33.9050 C.3     1  UNL1        0.0888
     12 N         -24.7580   -1.4810   32.6460 N.3     1  UNL1       -0.2174
     13 C         -25.6880    1.6140   26.4610 C.3     1  UNL1        0.1449
     14 C         -26.2500    2.9200   26.3950 C.2     1  UNL1        0.0731
     15 C         -25.6420    4.0930   27.1230 C.2     1  UNL1        0.2640
     16 N         -25.6140    5.2520   26.4490 N.am    1  UNL1       -0.1999
     17 C         -25.0260    6.4790   26.9630 C.3     1  UNL1        0.1388
     18 O         -25.1430    3.9660   28.2430 O.2     1  UNL1       -0.2686
     19 C         -27.4380    3.0910   25.6450 C.2     1  UNL1        0.1038
     20 N         -28.0750    2.0890   25.0030 N.2     1  UNL1       -0.2118
     21 C         -27.5430    0.8490   25.0790 C.2     1  UNL1        0.2358
     22 O         -28.1930   -0.2080   24.4770 O.2     1  UNL1       -0.4585
     23 C         -29.4600    0.0050   23.8660 C.3     1  UNL1        0.2423
     24 C         -30.0650   -1.3770   23.5730 C.3     1  UNL1        0.2292
     25 O         -30.7290   -1.8780   24.7210 O.3     1  UNL1       -0.2162
     26 C         -26.3540    0.5760   25.7770 C.3     1  UNL1        0.2581
     27 F         -25.8600   -0.6810   25.7950 F       1  UNL1       -0.2251
     28 C         -26.8390    1.1832   29.2005 C.2     1  UNL1        0.1027
     29 O         -28.4101    3.3940   30.2386 O.2     1  UNL1       -0.2730
     30 C         -23.6274    1.2142   27.6848 C.2     1  UNL1        0.1004
     31 C         -27.1841    3.4070   30.4186 C.2     1  UNL1        0.2457
     32 C         -23.4112    0.5208   28.7973 C.2     1  UNL1        0.0654
     33 C         -25.1950    3.9077   31.9805 C.3     1  UNL1        0.0389
     34 O         -25.8284    6.2170   33.3757 O.2     1  UNL1       -0.4687
     35 O         -21.3508    1.8858   27.4915 O.2     1  UNL1       -0.4662
     36 N         -24.5843    0.0781   29.1662 N.pl3   1  UNL1       -0.2843
     37 C         -22.0682    0.3400   29.3068 C.2     1  UNL1        0.0366
     38 N         -24.9610    1.1980   27.6081 N.pl3   1  UNL1       -0.2799
     39 C         -25.7588    0.2992   28.5571 C.3     1  UNL1        0.1913
     40 C         -26.4360    4.4702   31.2704 C.3     1  UNL1        0.0919
     41 N         -26.3839    2.4386   29.8540 N.am    1  UNL1       -0.1791
     42 C         -21.0713    1.0475   28.5699 C.3     1  UNL1        0.2333
     43 C         -22.6724    1.9948   26.9823 C.2     1  UNL1        0.1884
     44 C         -25.1354    4.0124   33.5097 C.2     1  UNL1        0.0144
     45 C         -25.5436    5.1788   34.1682 C.2     1  UNL1        0.1678
     46 C         -24.9061    7.1214   32.8152 C.3     1  UNL1        0.2526
@<TRIPOS>BOND
     1     1     2    1
     2     2     7    1
     3     3     2    2
     4     4     3    1
     5     4     5    2
     6     5     6    1
     7     6     7    2
     8     8     1    1
     9     8     9    1
    10     8    12    1
    11     9    10    1
    12    10    11    1
    13    12    11    1
    14    13    38    1
    15    14    13    1
    16    14    15    1
    17    15    18    2
    18    16    17    1
    19    16    15    1
    20    19    14    2
    21    20    21    2
    22    20    19    1
    23    21    26    1
    24    22    21    1
    25    23    22    1
    26    24    23    1
    27    24    25    1
    28    26    27    1
    29    26    13    1
    30    28    41    2
    31    29    31    2
    32    30    32    1
    33    31    40    1
    34    32    36    1
    35    32    37    2
    36    33    44    1
    37    34    45    1
    38    35    42    1
    39    36     1    1
    40    38    30    1
    41    38    39    1
    42    39    36    1
    43    39    28    1
    44    40    33    1
    45    41    31    1
    46    42    37    1
    47    43    35    1
    48    43    30    2
    49    44    45    2
    50    46    34    1
