@<TRIPOS>MOLECULE
outputs/IAG933/test6/raw/output_6004_IAG933_linker_design_.xyz
 46 50 0 0 0
SMALL
GASTEIGER

@<TRIPOS>ATOM
      1 C         -24.8550   -1.0120   30.1430 C.3     1  UNL1        0.0600
      2 C         -24.9730   -2.5050   29.7880 C.2     1  UNL1       -0.0194
      3 C         -23.9060   -3.1730   29.1460 C.2     1  UNL1       -0.0042
      4 C         -23.9890   -4.5490   28.8530 C.2     1  UNL1       -0.0003
      5 C         -25.1370   -5.2800   29.2050 C.2     1  UNL1       -0.0000
      6 C         -26.2320   -4.6110   29.7840 C.2     1  UNL1       -0.0003
      7 C         -26.1550   -3.2320   30.0650 C.2     1  UNL1       -0.0042
      8 C         -25.3870   -0.6790   31.5710 C.3     1  UNL1        0.0785
      9 C         -25.1890    0.7730   32.0280 C.3     1  UNL1        0.0192
     10 C         -25.3360    0.6840   33.5440 C.3     1  UNL1        0.0202
     11 C         -24.8290   -0.7150   33.9050 C.3     1  UNL1        0.0887
     12 N         -24.7580   -1.4810   32.6460 N.3     1  UNL1       -0.2191
     13 C         -25.6880    1.6140   26.4610 C.2     1  UNL1        0.0407
     14 C         -26.2500    2.9200   26.3950 C.2     1  UNL1        0.0748
     15 C         -25.6420    4.0930   27.1230 C.2     1  UNL1        0.2269
     16 N         -25.6140    5.2520   26.4490 N.2     1  UNL1       -0.2353
     17 C         -25.0260    6.4790   26.9630 C.3     1  UNL1        0.1550
     18 O         -25.1430    3.9660   28.2430 O.2     1  UNL1       -0.4351
     19 C         -27.4380    3.0910   25.6450 C.2     1  UNL1        0.1068
     20 N         -28.0750    2.0890   25.0030 N.2     1  UNL1       -0.2081
     21 C         -27.5430    0.8490   25.0790 C.2     1  UNL1        0.2533
     22 O         -28.1930   -0.2080   24.4770 O.2     1  UNL1       -0.4558
     23 C         -29.4600    0.0050   23.8660 C.3     1  UNL1        0.2426
     24 C         -30.0650   -1.3770   23.5730 C.3     1  UNL1        0.2292
     25 O         -30.7290   -1.8780   24.7210 O.3     1  UNL1       -0.2162
     26 C         -26.3540    0.5760   25.7770 C.2     1  UNL1        0.1931
     27 F         -25.8600   -0.6810   25.7950 F       1  UNL1       -0.1992
     28 C         -25.0802    0.1987   29.1503 C.3     1  UNL1        0.1179
     29 C         -21.1941    1.5318   27.5863 C.2     1  UNL1        0.0207
     30 C         -26.0797    6.6455   30.9950 C.2     1  UNL1       -0.0183
     31 C         -22.5527    0.3266   29.1444 C.2     1  UNL1        0.0161
     32 C         -28.3457    4.4972   30.3325 C.2     1  UNL1        0.0149
     33 C         -27.7751   -0.2081   28.7554 C.3     1  UNL1        0.0909
     34 N         -23.5929    1.6735   27.5300 N.2     1  UNL1       -0.2468
     35 C         -27.1704    3.9012   29.6650 C.2     1  UNL1        0.0994
     36 N         -27.3376    2.5827   29.3648 N.pl3   1  UNL1       -0.2345
     37 N         -26.6278    0.0301   28.9251 N.3     1  UNL1       -0.2130
     38 C         -25.9695    4.5915   29.4230 C.2     1  UNL1        0.1615
     39 C         -28.4624    5.7510   31.0057 C.2     1  UNL1       -0.0200
     40 C         -22.3803    2.0177   27.0641 C.2     1  UNL1        0.0985
     41 C         -25.4247    5.7879   30.0572 C.2     1  UNL1        0.0347
     42 C         -28.7011    2.0888   29.2168 C.3     1  UNL1        0.1138
     43 C         -21.3013    0.6758   28.6842 C.2     1  UNL1        0.0028
     44 C         -27.4393    6.7007   31.3809 C.3     1  UNL1        0.0521
     45 C         -28.8317    0.7666   28.4024 C.3     1  UNL1        0.0421
     46 C         -23.7284    0.7368   28.6010 C.2     1  UNL1        0.0751
@<TRIPOS>BOND
     1     1    28    1
     2     2     7    1
     3     2     1    1
     4     3     2    2
     5     4     3    1
     6     4     5    2
     7     5     6    1
     8     6     7    2
     9     8     1    1
    10     8     9    1
    11     8    12    1
    12     9    10    1
    13    10    11    1
    14    12    11    1
    15    14    13    1
    16    14    15    1
    17    15    18    1
    18    16    17    1
    19    16    15    2
    20    18    38    1
    21    19    14    2
    22    20    21    2
    23    20    19    1
    24    21    26    1
    25    22    21    1
    26    23    22    1
    27    24    23    1
    28    24    25    1
    29    26    27    1
    30    26    13    2
    31    28    37    1
    32    29    43    1
    33    30    44    1
    34    32    39    2
    35    33    37    1
    36    34    46    2
    37    35    32    1
    38    36    35    1
    39    38    35    2
    40    38    41    1
    41    39    44    1
    42    40    34    1
    43    40    29    2
    44    41    30    2
    45    42    36    1
    46    43    31    2
    47    45    33    1
    48    45    42    1
    49    46    31    1
    50    46    28    1
