@<TRIPOS>MOLECULE
outputs/IAG933/test6/raw/output_6006_IAG933_linker_design_.xyz
 48 52 0 0 0
SMALL
GASTEIGER

@<TRIPOS>ATOM
      1 C         -24.8550   -1.0120   30.1430 C.3     1  UNL1        0.0438
      2 C         -24.9730   -2.5050   29.7880 C.2     1  UNL1       -0.0208
      3 C         -23.9060   -3.1730   29.1460 C.2     1  UNL1       -0.0042
      4 C         -23.9890   -4.5490   28.8530 C.2     1  UNL1       -0.0003
      5 C         -25.1370   -5.2800   29.2050 C.2     1  UNL1       -0.0000
      6 C         -26.2320   -4.6110   29.7840 C.2     1  UNL1       -0.0003
      7 C         -26.1550   -3.2320   30.0650 C.2     1  UNL1       -0.0042
      8 C         -25.3870   -0.6790   31.5710 C.3     1  UNL1        0.0785
      9 C         -25.1890    0.7730   32.0280 C.3     1  UNL1        0.0339
     10 C         -25.3360    0.6840   33.5440 C.3     1  UNL1        0.0216
     11 C         -24.8290   -0.7150   33.9050 C.3     1  UNL1        0.0887
     12 N         -24.7580   -1.4810   32.6460 N.3     1  UNL1       -0.2191
     13 C         -25.6880    1.6140   26.4610 C.2     1  UNL1        0.0876
     14 C         -26.2500    2.9200   26.3950 C.2     1  UNL1        0.0899
     15 C         -25.6420    4.0930   27.1230 C.2     1  UNL1        0.2676
     16 N         -25.6140    5.2520   26.4490 N.am    1  UNL1       -0.1997
     17 C         -25.0260    6.4790   26.9630 C.3     1  UNL1        0.1388
     18 O         -25.1430    3.9660   28.2430 O.2     1  UNL1       -0.2683
     19 C         -27.4380    3.0910   25.6450 C.2     1  UNL1        0.1080
     20 N         -28.0750    2.0890   25.0030 N.2     1  UNL1       -0.2080
     21 C         -27.5430    0.8490   25.0790 C.2     1  UNL1        0.2546
     22 O         -28.1930   -0.2080   24.4770 O.2     1  UNL1       -0.4558
     23 C         -29.4600    0.0050   23.8660 C.3     1  UNL1        0.2426
     24 C         -30.0650   -1.3770   23.5730 C.3     1  UNL1        0.2292
     25 O         -30.7290   -1.8780   24.7210 O.3     1  UNL1       -0.2162
     26 C         -26.3540    0.5760   25.7770 C.2     1  UNL1        0.2063
     27 F         -25.8600   -0.6810   25.7950 F       1  UNL1       -0.1979
     28 N         -24.2183    2.2849   30.2472 N.3     1  UNL1       -0.1926
     29 C         -25.5019    1.8460   30.9180 C.3     1  UNL1        0.0764
     30 C         -23.0685    2.5478   25.3809 C.3     1  UNL1        0.0232
     31 C         -23.8250    6.2179   34.9458 C.3     1  UNL1        0.0014
     32 C         -23.3668    8.8429   31.1671 C.3     1  UNL1        0.0896
     33 N         -23.9253    7.7414   31.9850 N.3     1  UNL1       -0.2728
     34 C         -22.4610    1.1810   28.3848 C.2     1  UNL1        0.3452
     35 O         -22.3668   -0.0315   28.2063 O.2     1  UNL1       -0.2557
     36 C         -24.7375    7.2882   34.5468 C.3     1  UNL1        0.0160
     37 C         -23.4315    1.2279   26.0569 C.3     1  UNL1        0.0926
     38 C         -23.8077    1.8105   28.6887 C.3     1  UNL1        0.2411
     39 C         -22.3142    8.1080   34.1350 C.3     1  UNL1        0.0173
     40 C         -24.8408    4.2097   31.5082 C.3     1  UNL1        0.0028
     41 C         -24.1345    5.0505   32.6136 C.3     1  UNL1        0.0014
     42 N         -24.4288    1.3995   27.2308 N.pl3   1  UNL1       -0.2852
     43 C         -25.2859    5.6353   31.8792 C.3     1  UNL1        0.0160
     44 C         -24.2520    5.0190   34.0449 C.3     1  UNL1        0.0001
     45 C         -23.7544    7.8949   33.5181 C.3     1  UNL1        0.0576
     46 C         -25.1952    7.1628   31.4354 C.3     1  UNL1        0.0720
     47 C         -25.9197    3.1051   31.7599 C.3     1  UNL1        0.0175
     48 F         -21.4117    1.9509   28.1051 F       1  UNL1       -0.1602
@<TRIPOS>BOND
     1     2     7    1
     2     2     1    1
     3     3     2    2
     4     4     3    1
     5     4     5    2
     6     5     6    1
     7     6     7    2
     8     8     1    1
     9     8     9    1
    10     8    12    1
    11     9    29    1
    12     9    10    1
    13    10    11    1
    14    12    11    1
    15    13    42    1
    16    14    13    1
    17    14    15    1
    18    15    18    2
    19    16    17    1
    20    16    15    1
    21    19    14    2
    22    20    21    2
    23    20    19    1
    24    21    26    1
    25    22    21    1
    26    23    22    1
    27    24    23    1
    28    24    25    1
    29    26    27    1
    30    26    13    2
    31    28    29    1
    32    29    47    1
    33    30    37    1
    34    32    33    1
    35    33    45    1
    36    35    34    2
    37    36    31    1
    38    37    42    1
    39    38    34    1
    40    38    28    1
    41    40    47    1
    42    40    43    1
    43    40    41    1
    44    41    44    1
    45    42    38    1
    46    43    46    1
    47    43    41    1
    48    44    31    1
    49    45    39    1
    50    45    36    1
    51    46    33    1
    52    48    34    1
