@<TRIPOS>MOLECULE
outputs/IAG933/test6/raw/output_6014_IAG933_linker_design_.xyz
 43 48 0 0 0
SMALL
GASTEIGER

@<TRIPOS>ATOM
      1 C         -24.8550   -1.0120   30.1430 C.3     1  UNL1        0.0422
      2 C         -24.9730   -2.5050   29.7880 C.2     1  UNL1       -0.0210
      3 C         -23.9060   -3.1730   29.1460 C.2     1  UNL1       -0.0042
      4 C         -23.9890   -4.5490   28.8530 C.2     1  UNL1       -0.0003
      5 C         -25.1370   -5.2800   29.2050 C.2     1  UNL1       -0.0000
      6 C         -26.2320   -4.6110   29.7840 C.2     1  UNL1       -0.0003
      7 C         -26.1550   -3.2320   30.0650 C.2     1  UNL1       -0.0042
      8 C         -25.3870   -0.6790   31.5710 C.3     1  UNL1        0.0769
      9 C         -25.1890    0.7730   32.0280 C.3     1  UNL1        0.0192
     10 C         -25.3360    0.6840   33.5440 C.3     1  UNL1        0.0202
     11 C         -24.8290   -0.7150   33.9050 C.3     1  UNL1        0.0887
     12 N         -24.7580   -1.4810   32.6460 N.3     1  UNL1       -0.2191
     13 C         -25.6880    1.6140   26.4610 C.2     1  UNL1        0.0886
     14 C         -26.2500    2.9200   26.3950 C.2     1  UNL1        0.0899
     15 C         -25.6420    4.0930   27.1230 C.2     1  UNL1        0.2676
     16 N         -25.6140    5.2520   26.4490 N.am    1  UNL1       -0.1997
     17 C         -25.0260    6.4790   26.9630 C.3     1  UNL1        0.1388
     18 O         -25.1430    3.9660   28.2430 O.2     1  UNL1       -0.2683
     19 C         -27.4380    3.0910   25.6450 C.2     1  UNL1        0.1080
     20 N         -28.0750    2.0890   25.0030 N.2     1  UNL1       -0.2080
     21 C         -27.5430    0.8490   25.0790 C.2     1  UNL1        0.2546
     22 O         -28.1930   -0.2080   24.4770 O.2     1  UNL1       -0.4558
     23 C         -29.4600    0.0050   23.8660 C.3     1  UNL1        0.2426
     24 C         -30.0650   -1.3770   23.5730 C.3     1  UNL1        0.2292
     25 O         -30.7290   -1.8780   24.7210 O.3     1  UNL1       -0.2162
     26 C         -26.3540    0.5760   25.7770 C.2     1  UNL1        0.2063
     27 F         -25.8600   -0.6810   25.7950 F       1  UNL1       -0.1979
     28 C         -22.2576    2.2758   25.5912 C.2     1  UNL1        0.3535
     29 C         -24.4842    0.9151   28.4331 C.3     1  UNL1        0.1575
     30 C         -26.9562    0.5118   29.3146 C.3     1  UNL1        0.1178
     31 C         -25.5616   -0.1119   29.0587 C.3     1  UNL1        0.0543
     32 O         -20.7270    0.8453   27.3737 O.2     1  UNL1       -0.4608
     33 C         -20.8002    0.1042   28.5491 C.2     1  UNL1        0.1888
     34 C         -21.9252    1.3450   26.9284 C.3     1  UNL1        0.2924
     35 C         -22.0377   -0.0689   29.2070 C.2     1  UNL1        0.1044
     36 C         -23.2055    0.9636   27.4788 C.3     1  UNL1        0.2001
     37 O         -23.0580    3.2735   25.5327 O.2     1  UNL1       -0.2550
     38 F         -21.8175    1.5813   24.6178 F       1  UNL1       -0.1595
     39 N         -24.3807    1.2580   27.0539 N.pl3   1  UNL1       -0.2732
     40 C         -28.1203   -0.4777   29.0669 C.2     1  UNL1        0.3650
     41 O         -28.2537   -1.3829   29.8126 O.co2   1  UNL1       -0.2457
     42 O         -28.7743   -0.2764   28.0635 O.co2   1  UNL1       -0.2457
     43 N         -23.1963    0.4786   28.6524 N.pl3   1  UNL1       -0.2717
@<TRIPOS>BOND
     1     1    31    1
     2     2     7    1
     3     2     1    1
     4     3     2    2
     5     4     3    1
     6     4     5    2
     7     5     6    1
     8     6     7    2
     9     8     1    1
    10     8     9    1
    11     8    12    1
    12     9    10    1
    13    10    11    1
    14    12    11    1
    15    13    39    1
    16    14    13    1
    17    14    15    1
    18    15    18    2
    19    16    17    1
    20    16    15    1
    21    19    14    2
    22    20    21    2
    23    20    19    1
    24    21    26    1
    25    22    21    1
    26    23    22    1
    27    24    23    1
    28    24    25    1
    29    26    27    1
    30    26    13    2
    31    29    43    1
    32    29    31    1
    33    31    30    1
    34    32    33    1
    35    33    35    2
    36    34    28    1
    37    34    32    1
    38    34    36    1
    39    36    39    1
    40    36    29    1
    41    36    43    1
    42    37    28    2
    43    38    28    1
    44    39    29    1
    45    40    30    1
    46    40    41   ar
    47    42    40   ar
    48    43    35    1
