@<TRIPOS>MOLECULE
outputs/IAG933/test6/raw/output_6015_IAG933_linker_design_.xyz
 46 50 0 0 0
SMALL
GASTEIGER

@<TRIPOS>ATOM
      1 C         -24.8550   -1.0120   30.1430 C.3     1  UNL1        0.1221
      2 C         -24.9730   -2.5050   29.7880 C.2     1  UNL1       -0.0042
      3 C         -23.9060   -3.1730   29.1460 C.2     1  UNL1       -0.0029
      4 C         -23.9890   -4.5490   28.8530 C.2     1  UNL1       -0.0003
      5 C         -25.1370   -5.2800   29.2050 C.2     1  UNL1       -0.0000
      6 C         -26.2320   -4.6110   29.7840 C.2     1  UNL1       -0.0003
      7 C         -26.1550   -3.2320   30.0650 C.2     1  UNL1       -0.0029
      8 C         -25.3870   -0.6790   31.5710 C.3     1  UNL1        0.0938
      9 C         -25.1890    0.7730   32.0280 C.3     1  UNL1        0.0207
     10 C         -25.3360    0.6840   33.5440 C.3     1  UNL1        0.0203
     11 C         -24.8290   -0.7150   33.9050 C.3     1  UNL1        0.0888
     12 N         -24.7580   -1.4810   32.6460 N.3     1  UNL1       -0.2177
     13 C         -25.6880    1.6140   26.4610 C.3     1  UNL1        0.0739
     14 C         -26.2500    2.9200   26.3950 C.2     1  UNL1        0.0549
     15 C         -25.6420    4.0930   27.1230 C.2     1  UNL1        0.2624
     16 N         -25.6140    5.2520   26.4490 N.am    1  UNL1       -0.2000
     17 C         -25.0260    6.4790   26.9630 C.3     1  UNL1        0.1388
     18 O         -25.1430    3.9660   28.2430 O.2     1  UNL1       -0.2687
     19 C         -27.4380    3.0910   25.6450 C.2     1  UNL1        0.1021
     20 N         -28.0750    2.0890   25.0030 N.2     1  UNL1       -0.2119
     21 C         -27.5430    0.8490   25.0790 C.2     1  UNL1        0.2341
     22 O         -28.1930   -0.2080   24.4770 O.2     1  UNL1       -0.4585
     23 C         -29.4600    0.0050   23.8660 C.3     1  UNL1        0.2423
     24 C         -30.0650   -1.3770   23.5730 C.3     1  UNL1        0.2292
     25 O         -30.7290   -1.8780   24.7210 O.3     1  UNL1       -0.2162
     26 C         -26.3540    0.5760   25.7770 C.3     1  UNL1        0.2401
     27 F         -25.8600   -0.6810   25.7950 F       1  UNL1       -0.2269
     28 O         -26.9067   -0.0717   28.9273 O.3     1  UNL1       -0.2820
     29 C         -23.1799    1.7590   25.7155 C.3     1  UNL1        0.1439
     30 C         -28.3619    3.5464   30.1116 C.3     1  UNL1        0.0287
     31 C         -27.5327    2.5768   34.0914 C.2     1  UNL1       -0.0003
     32 C         -27.1784    1.1972   29.2554 C.3     1  UNL1        0.1669
     33 N         -25.2058   -0.1796   28.8440 N.3     1  UNL1       -0.1631
     34 C         -28.8046    2.1221   32.0250 C.2     1  UNL1       -0.0046
     35 C         -27.4012    2.4491   29.6167 C.3     1  UNL1        0.0389
     36 C         -29.3058    5.6002   32.9558 C.3     1  UNL1        0.0307
     37 C         -27.5994    3.9621   33.8083 C.2     1  UNL1       -0.0046
     38 C         -28.5918    3.4439   31.5952 C.2     1  UNL1       -0.0260
     39 C         -22.7513    0.4706   28.4946 C.3     1  UNL1        0.0210
     40 O         -21.9514    2.3383   26.0595 O.3     1  UNL1       -0.3537
     41 C         -24.1549    1.0173   28.5663 C.3     1  UNL1        0.0874
     42 C         -21.3084    2.0899   27.2121 C.3     1  UNL1        0.1422
     43 C         -28.4391    4.3663   32.7136 C.2     1  UNL1       -0.0258
     44 C         -24.3191    1.5714   26.9563 C.3     1  UNL1        0.0540
     45 C         -21.9402    1.6650   28.4179 C.3     1  UNL1        0.0335
     46 C         -28.1778    1.6093   33.2433 C.2     1  UNL1       -0.0003
@<TRIPOS>BOND
     1     1    33    1
     2     2     7    1
     3     2     1    1
     4     3     2    2
     5     4     3    1
     6     4     5    2
     7     5     6    1
     8     6     7    2
     9     8     1    1
    10     8     9    1
    11     8    12    1
    12     9    10    1
    13    10    11    1
    14    12    11    1
    15    13    14    1
    16    13    44    1
    17    14    15    1
    18    15    18    2
    19    16    17    1
    20    16    15    1
    21    19    14    2
    22    20    21    2
    23    20    19    1
    24    21    26    1
    25    22    21    1
    26    23    22    1
    27    24    23    1
    28    24    25    1
    29    26    27    1
    30    26    13    1
    31    28    32    1
    32    29    40    1
    33    30    38    1
    34    32    35    1
    35    33    28    1
    36    34    46    1
    37    35    30    1
    38    37    31    1
    39    38    34    2
    40    38    43    1
    41    39    41    1
    42    40    42    1
    43    41    33    1
    44    42    45    1
    45    43    36    1
    46    43    37    2
    47    44    29    1
    48    44    41    1
    49    45    39    1
    50    46    31    2
