@<TRIPOS>MOLECULE
outputs/IAG933/test6/raw/output_6017_IAG933_linker_design_.xyz
 41 44 0 0 0
SMALL
GASTEIGER

@<TRIPOS>ATOM
      1 C         -24.8550   -1.0120   30.1430 C.3     1  UNL1        0.1196
      2 C         -24.9730   -2.5050   29.7880 C.2     1  UNL1       -0.0025
      3 C         -23.9060   -3.1730   29.1460 C.2     1  UNL1       -0.0026
      4 C         -23.9890   -4.5490   28.8530 C.2     1  UNL1       -0.0003
      5 C         -25.1370   -5.2800   29.2050 C.2     1  UNL1       -0.0000
      6 C         -26.2320   -4.6110   29.7840 C.2     1  UNL1       -0.0003
      7 C         -26.1550   -3.2320   30.0650 C.2     1  UNL1       -0.0026
      8 C         -25.3870   -0.6790   31.5710 C.3     1  UNL1        0.0955
      9 C         -25.1890    0.7730   32.0280 C.3     1  UNL1        0.0209
     10 C         -25.3360    0.6840   33.5440 C.3     1  UNL1        0.0203
     11 C         -24.8290   -0.7150   33.9050 C.3     1  UNL1        0.0888
     12 N         -24.7580   -1.4810   32.6460 N.3     1  UNL1       -0.2174
     13 C         -25.6880    1.6140   26.4610 C.2     1  UNL1        0.0415
     14 C         -26.2500    2.9200   26.3950 C.2     1  UNL1        0.0767
     15 C         -25.6420    4.0930   27.1230 C.2     1  UNL1        0.2664
     16 N         -25.6140    5.2520   26.4490 N.am    1  UNL1       -0.1997
     17 C         -25.0260    6.4790   26.9630 C.3     1  UNL1        0.1388
     18 O         -25.1430    3.9660   28.2430 O.2     1  UNL1       -0.2683
     19 C         -27.4380    3.0910   25.6450 C.2     1  UNL1        0.1067
     20 N         -28.0750    2.0890   25.0030 N.2     1  UNL1       -0.2081
     21 C         -27.5430    0.8490   25.0790 C.2     1  UNL1        0.2533
     22 O         -28.1930   -0.2080   24.4770 O.2     1  UNL1       -0.4558
     23 C         -29.4600    0.0050   23.8660 C.3     1  UNL1        0.2426
     24 C         -30.0650   -1.3770   23.5730 C.3     1  UNL1        0.2292
     25 O         -30.7290   -1.8780   24.7210 O.3     1  UNL1       -0.2162
     26 C         -26.3540    0.5760   25.7770 C.2     1  UNL1        0.1932
     27 F         -25.8600   -0.6810   25.7950 F       1  UNL1       -0.1992
     28 C         -22.0016    1.5728   26.9525 C.2     1  UNL1        0.1947
     29 C         -27.9668    2.4931   29.5905 C.3     1  UNL1        0.1402
     30 C         -23.2566    1.7164   26.4910 C.2     1  UNL1        0.1708
     31 C         -24.3713    1.2761   27.1523 C.2     1  UNL1        0.0461
     32 F         -20.9753    1.8680   26.1420 F       1  UNL1       -0.1994
     33 C         -24.2417    0.5624   28.4051 C.2     1  UNL1        0.0602
     34 F         -20.5621    1.0025   28.7178 F       1  UNL1       -0.2017
     35 F         -23.3696    2.3535   25.2702 F       1  UNL1       -0.2017
     36 C         -26.6742    0.4960   29.1224 C.2     1  UNL1        0.3273
     37 N         -26.6973    1.8058   29.3955 N.am    1  UNL1       -0.1863
     38 C         -22.9115    0.5019   28.9133 C.2     1  UNL1        0.0471
     39 C         -21.8350    1.0551   28.2260 C.2     1  UNL1        0.1709
     40 N         -25.3600   -0.0193   29.1632 N.am    1  UNL1       -0.2381
     41 O         -27.6134   -0.3125   28.9222 O.2     1  UNL1       -0.2504
@<TRIPOS>BOND
     1     1    40    1
     2     2     7    1
     3     2     1    1
     4     3     2    2
     5     4     3    1
     6     4     5    2
     7     5     6    1
     8     6     7    2
     9     8     1    1
    10     8     9    1
    11     8    12    1
    12     9    10    1
    13    10    11    1
    14    12    11    1
    15    13    31    1
    16    14    13    1
    17    14    15    1
    18    15    18    2
    19    16    17    1
    20    16    15    1
    21    19    14    2
    22    20    21    2
    23    20    19    1
    24    21    26    1
    25    22    21    1
    26    23    22    1
    27    24    23    1
    28    24    25    1
    29    26    27    1
    30    26    13    2
    31    28    39    1
    32    30    28    2
    33    30    31    1
    34    31    33    2
    35    32    28    1
    36    33    38    1
    37    33    40    1
    38    35    30    1
    39    36    40   am
    40    36    37    1
    41    37    29    1
    42    39    34    1
    43    39    38    2
    44    41    36    2
