@<TRIPOS>MOLECULE
outputs/IAG933/test6/raw/output_6022_IAG933_linker_design_.xyz
 41 45 0 0 0
SMALL
GASTEIGER

@<TRIPOS>ATOM
      1 C         -24.8550   -1.0120   30.1430 C.3     1  UNL1        0.0541
      2 C         -24.9730   -2.5050   29.7880 C.2     1  UNL1       -0.0198
      3 C         -23.9060   -3.1730   29.1460 C.2     1  UNL1       -0.0042
      4 C         -23.9890   -4.5490   28.8530 C.2     1  UNL1       -0.0003
      5 C         -25.1370   -5.2800   29.2050 C.2     1  UNL1       -0.0000
      6 C         -26.2320   -4.6110   29.7840 C.2     1  UNL1       -0.0003
      7 C         -26.1550   -3.2320   30.0650 C.2     1  UNL1       -0.0042
      8 C         -25.3870   -0.6790   31.5710 C.3     1  UNL1        0.0781
      9 C         -25.1890    0.7730   32.0280 C.3     1  UNL1        0.0192
     10 C         -25.3360    0.6840   33.5440 C.3     1  UNL1        0.0202
     11 C         -24.8290   -0.7150   33.9050 C.3     1  UNL1        0.0887
     12 N         -24.7580   -1.4810   32.6460 N.3     1  UNL1       -0.2191
     13 C         -25.6880    1.6140   26.4610 C.2     1  UNL1        0.0325
     14 C         -26.2500    2.9200   26.3950 C.2     1  UNL1        0.0739
     15 C         -25.6420    4.0930   27.1230 C.2     1  UNL1        0.2662
     16 N         -25.6140    5.2520   26.4490 N.am    1  UNL1       -0.1997
     17 C         -25.0260    6.4790   26.9630 C.3     1  UNL1        0.1388
     18 O         -25.1430    3.9660   28.2430 O.2     1  UNL1       -0.2683
     19 C         -27.4380    3.0910   25.6450 C.2     1  UNL1        0.1065
     20 N         -28.0750    2.0890   25.0030 N.2     1  UNL1       -0.2081
     21 C         -27.5430    0.8490   25.0790 C.2     1  UNL1        0.2530
     22 O         -28.1930   -0.2080   24.4770 O.2     1  UNL1       -0.4558
     23 C         -29.4600    0.0050   23.8660 C.3     1  UNL1        0.2426
     24 C         -30.0650   -1.3770   23.5730 C.3     1  UNL1        0.2292
     25 O         -30.7290   -1.8780   24.7210 O.3     1  UNL1       -0.2162
     26 C         -26.3540    0.5760   25.7770 C.2     1  UNL1        0.1904
     27 F         -25.8600   -0.6810   25.7950 F       1  UNL1       -0.1995
     28 C         -23.1386    0.8227   28.3937 C.3     1  UNL1        0.1900
     29 O         -29.0456   -1.7957   30.5910 O.3     1  UNL1       -0.2231
     30 C         -24.4205    1.3891   27.0263 C.3     1  UNL1        0.1077
     31 C         -30.4951   -0.9944   28.9189 C.3     1  UNL1        0.0355
     32 C         -29.2431   -0.7005   29.7591 C.3     1  UNL1        0.1532
     33 N         -24.5222    0.6705   28.2553 N.3     1  UNL1       -0.2456
     34 C         -27.2688    1.7984   29.9598 C.1     1  UNL1        0.0736
     35 C         -23.3029    1.8737   26.1550 C.3     1  UNL1        0.0268
     36 O         -22.4429    0.2288   29.1427 O.3     1  UNL1       -0.2073
     37 C         -26.8236    0.3860   29.5039 C.3     1  UNL1        0.1089
     38 C         -22.1421    1.7986   27.2815 C.3     1  UNL1        0.0496
     39 C         -28.0283   -0.3964   28.9101 C.3     1  UNL1        0.0494
     40 N         -27.4568    2.8319   30.3230 N.1     1  UNL1       -0.1958
     41 C         -25.4629   -0.2334   28.9281 C.3     1  UNL1        0.0794
@<TRIPOS>BOND
     1     1    41    1
     2     2     7    1
     3     2     1    1
     4     3     2    2
     5     4     3    1
     6     4     5    2
     7     5     6    1
     8     6     7    2
     9     8     1    1
    10     8     9    1
    11     8    12    1
    12     9    10    1
    13    10    11    1
    14    12    11    1
    15    14    13    1
    16    14    15    1
    17    15    18    2
    18    16    17    1
    19    16    15    1
    20    19    14    2
    21    20    21    2
    22    20    19    1
    23    21    26    1
    24    22    21    1
    25    23    22    1
    26    24    23    1
    27    24    25    1
    28    26    27    1
    29    26    13    2
    30    28    36    1
    31    30    13    1
    32    30    33    1
    33    30    28    1
    34    32    31    1
    35    32    29    1
    36    33    28    1
    37    33    41    1
    38    34    40    3
    39    35    30    1
    40    35    38    1
    41    37    39    1
    42    37    34    1
    43    38    28    1
    44    39    32    1
    45    41    37    1
