@<TRIPOS>MOLECULE
outputs/IAG933/test6/raw/output_6025_IAG933_linker_design_.xyz
 43 46 0 0 0
SMALL
GASTEIGER

@<TRIPOS>ATOM
      1 C         -24.8550   -1.0120   30.1430 C.3     1  UNL1        0.0451
      2 C         -24.9730   -2.5050   29.7880 C.2     1  UNL1       -0.0207
      3 C         -23.9060   -3.1730   29.1460 C.2     1  UNL1       -0.0042
      4 C         -23.9890   -4.5490   28.8530 C.2     1  UNL1       -0.0003
      5 C         -25.1370   -5.2800   29.2050 C.2     1  UNL1       -0.0000
      6 C         -26.2320   -4.6110   29.7840 C.2     1  UNL1       -0.0003
      7 C         -26.1550   -3.2320   30.0650 C.2     1  UNL1       -0.0042
      8 C         -25.3870   -0.6790   31.5710 C.3     1  UNL1        0.0917
      9 C         -25.1890    0.7730   32.0280 C.3     1  UNL1        0.0756
     10 C         -25.3360    0.6840   33.5440 C.3     1  UNL1        0.0362
     11 C         -24.8290   -0.7150   33.9050 C.3     1  UNL1        0.0901
     12 N         -24.7580   -1.4810   32.6460 N.3     1  UNL1       -0.2177
     13 C         -25.6880    1.6140   26.4610 C.3     1  UNL1        0.0779
     14 C         -26.2500    2.9200   26.3950 C.2     1  UNL1        0.0554
     15 C         -25.6420    4.0930   27.1230 C.2     1  UNL1        0.2625
     16 N         -25.6140    5.2520   26.4490 N.am    1  UNL1       -0.2000
     17 C         -25.0260    6.4790   26.9630 C.3     1  UNL1        0.1388
     18 O         -25.1430    3.9660   28.2430 O.2     1  UNL1       -0.2687
     19 C         -27.4380    3.0910   25.6450 C.2     1  UNL1        0.1022
     20 N         -28.0750    2.0890   25.0030 N.2     1  UNL1       -0.2119
     21 C         -27.5430    0.8490   25.0790 C.2     1  UNL1        0.2341
     22 O         -28.1930   -0.2080   24.4770 O.2     1  UNL1       -0.4585
     23 C         -29.4600    0.0050   23.8660 C.3     1  UNL1        0.2423
     24 C         -30.0650   -1.3770   23.5730 C.3     1  UNL1        0.2292
     25 O         -30.7290   -1.8780   24.7210 O.3     1  UNL1       -0.2162
     26 C         -26.3540    0.5760   25.7770 C.3     1  UNL1        0.2406
     27 F         -25.8600   -0.6810   25.7950 F       1  UNL1       -0.2269
     28 O         -27.3855    2.6549   33.2050 O.3     1  UNL1       -0.2117
     29 C         -23.5814    1.9253   25.5692 C.2     1  UNL1       -0.0219
     30 N         -25.3687    1.6920   30.8134 N.3     1  UNL1       -0.2665
     31 C         -23.9204    1.2854   28.0303 C.2     1  UNL1       -0.0241
     32 C         -25.4957    4.0203   32.2286 C.2     1  UNL1        0.2733
     33 C         -21.2400    1.6386   26.3482 C.2     1  UNL1       -0.0003
     34 C         -21.2755    1.3105   27.6720 C.2     1  UNL1       -0.0006
     35 O         -24.5473    3.9636   31.3557 O.2     1  UNL1       -0.2705
     36 N         -25.3802    4.8002   33.2768 N.am    1  UNL1       -0.2014
     37 C         -25.0541    6.1572   32.9212 C.3     1  UNL1        0.1386
     38 C         -26.8330    3.2923   32.0499 C.3     1  UNL1        0.2448
     39 C         -24.7417    1.3246   29.4129 C.3     1  UNL1        0.0953
     40 C         -26.7125    2.2633   30.9040 C.3     1  UNL1        0.1153
     41 C         -22.2454    1.9720   25.3134 C.2     1  UNL1       -0.0043
     42 C         -22.5965    1.0372   28.3594 C.2     1  UNL1       -0.0068
     43 C         -24.4094    1.5620   26.7325 C.3     1  UNL1        0.0489
@<TRIPOS>BOND
     1     2     7    1
     2     2     1    1
     3     3     2    2
     4     4     3    1
     5     4     5    2
     6     5     6    1
     7     6     7    2
     8     8     1    1
     9     8     9    1
    10     8    12    1
    11     9    30    1
    12     9    10    1
    13    10    11    1
    14    12    11    1
    15    13    14    1
    16    13    43    1
    17    14    15    1
    18    15    18    2
    19    16    17    1
    20    16    15    1
    21    19    14    2
    22    20    21    2
    23    20    19    1
    24    21    26    1
    25    22    21    1
    26    23    22    1
    27    24    23    1
    28    24    25    1
    29    26    27    1
    30    26    13    1
    31    30    40    1
    32    31    42    2
    33    31    39    1
    34    32    36    1
    35    33    34    2
    36    34    42    1
    37    35    32    2
    38    37    36    1
    39    38    32    1
    40    38    28    1
    41    39    30    1
    42    40    38    1
    43    41    29    2
    44    41    33    1
    45    43    29    1
    46    43    31    1
