@<TRIPOS>MOLECULE
outputs/IAG933/test6/raw/output_6030_IAG933_linker_design_.xyz
 43 46 0 0 0
SMALL
GASTEIGER

@<TRIPOS>ATOM
      1 C         -24.8550   -1.0120   30.1430 C.3     1  UNL1        0.1987
      2 C         -24.9730   -2.5050   29.7880 C.2     1  UNL1        0.0213
      3 C         -23.9060   -3.1730   29.1460 C.2     1  UNL1       -0.0004
      4 C         -23.9890   -4.5490   28.8530 C.2     1  UNL1       -0.0002
      5 C         -25.1370   -5.2800   29.2050 C.2     1  UNL1       -0.0000
      6 C         -26.2320   -4.6110   29.7840 C.2     1  UNL1       -0.0002
      7 C         -26.1550   -3.2320   30.0650 C.2     1  UNL1       -0.0004
      8 C         -25.3870   -0.6790   31.5710 C.3     1  UNL1        0.1197
      9 C         -25.1890    0.7730   32.0280 C.3     1  UNL1        0.0233
     10 C         -25.3360    0.6840   33.5440 C.3     1  UNL1        0.0204
     11 C         -24.8290   -0.7150   33.9050 C.3     1  UNL1        0.0889
     12 N         -24.7580   -1.4810   32.6460 N.3     1  UNL1       -0.2150
     13 C         -25.6880    1.6140   26.4610 C.2     1  UNL1        0.0459
     14 C         -26.2500    2.9200   26.3950 C.2     1  UNL1        0.0768
     15 C         -25.6420    4.0930   27.1230 C.2     1  UNL1        0.2664
     16 N         -25.6140    5.2520   26.4490 N.am    1  UNL1       -0.1997
     17 C         -25.0260    6.4790   26.9630 C.3     1  UNL1        0.1388
     18 O         -25.1430    3.9660   28.2430 O.2     1  UNL1       -0.2683
     19 C         -27.4380    3.0910   25.6450 C.2     1  UNL1        0.1067
     20 N         -28.0750    2.0890   25.0030 N.2     1  UNL1       -0.2081
     21 C         -27.5430    0.8490   25.0790 C.2     1  UNL1        0.2533
     22 O         -28.1930   -0.2080   24.4770 O.2     1  UNL1       -0.4558
     23 C         -29.4600    0.0050   23.8660 C.3     1  UNL1        0.2426
     24 C         -30.0650   -1.3770   23.5730 C.3     1  UNL1        0.2292
     25 O         -30.7290   -1.8780   24.7210 O.3     1  UNL1       -0.2162
     26 C         -26.3540    0.5760   25.7770 C.2     1  UNL1        0.1933
     27 F         -25.8600   -0.6810   25.7950 F       1  UNL1       -0.1992
     28 C         -22.8933    0.3292   29.0620 C.3     1  UNL1        0.2602
     29 C         -22.3152    1.0320   27.9325 C.2     1  UNL1        0.1752
     30 O         -30.5354    1.2342   28.7338 O.3     1  UNL1       -0.1889
     31 N         -24.2144   -0.0905   29.1462 N.pl3   1  UNL1       -0.1850
     32 C         -24.6446    1.1192   27.2062 C.2     1  UNL1        0.0948
     33 C         -25.0361    0.2255   28.2029 C.2     1  UNL1        0.3102
     34 C         -28.6278   -0.2492   28.6865 C.3     1  UNL1        0.1171
     35 O         -29.7616   -1.7156   30.2883 O.3     1  UNL1       -0.2202
     36 C         -27.1916   -0.3492   29.1783 C.3     1  UNL1        0.2560
     37 F         -21.0557    1.2905   27.7082 F       1  UNL1       -0.2037
     38 O         -30.7826    0.9672   27.5307 O.3     1  UNL1       -0.0346
     39 C         -29.7394   -1.3434   28.8895 C.3     1  UNL1        0.1890
     40 C         -23.2939    1.4339   26.9455 C.2     1  UNL1        0.0920
     41 C         -29.2121    1.0241   29.2631 C.3     1  UNL1        0.1922
     42 N         -26.2544   -0.5486   28.0627 N.pl3   1  UNL1       -0.0362
     43 CL        -22.7843    2.1731   25.3959 Cl      1  UNL1       -0.0799
@<TRIPOS>BOND
     1     1     2    1
     2     2     7    1
     3     3     2    2
     4     4     3    1
     5     4     5    2
     6     5     6    1
     7     6     7    2
     8     8     1    1
     9     8     9    1
    10     8    12    1
    11     9    10    1
    12    10    11    1
    13    12    11    1
    14    13    32    1
    15    14    13    1
    16    14    15    1
    17    15    18    2
    18    16    17    1
    19    16    15    1
    20    19    14    2
    21    20    21    2
    22    20    19    1
    23    21    26    1
    24    22    21    1
    25    23    22    1
    26    24    23    1
    27    24    25    1
    28    26    27    1
    29    26    13    2
    30    28    31    1
    31    29    28    1
    32    30    41    1
    33    31     1    1
    34    32    33    2
    35    33    31    1
    36    34    39    1
    37    34    36    1
    38    34    41    1
    39    37    29    1
    40    38    30    1
    41    39    35    1
    42    40    32    1
    43    40    29    2
    44    42    33    1
    45    42    36    1
    46    43    40    1
