@<TRIPOS>MOLECULE
outputs/IAG933/test6/raw/output_6032_IAG933_linker_design_.xyz
 44 47 0 0 0
SMALL
GASTEIGER

@<TRIPOS>ATOM
      1 C         -24.8550   -1.0120   30.1430 C.3     1  UNL1        0.0625
      2 C         -24.9730   -2.5050   29.7880 C.2     1  UNL1       -0.0191
      3 C         -23.9060   -3.1730   29.1460 C.2     1  UNL1       -0.0042
      4 C         -23.9890   -4.5490   28.8530 C.2     1  UNL1       -0.0003
      5 C         -25.1370   -5.2800   29.2050 C.2     1  UNL1       -0.0000
      6 C         -26.2320   -4.6110   29.7840 C.2     1  UNL1       -0.0003
      7 C         -26.1550   -3.2320   30.0650 C.2     1  UNL1       -0.0042
      8 C         -25.3870   -0.6790   31.5710 C.3     1  UNL1        0.0788
      9 C         -25.1890    0.7730   32.0280 C.3     1  UNL1        0.0193
     10 C         -25.3360    0.6840   33.5440 C.3     1  UNL1        0.0202
     11 C         -24.8290   -0.7150   33.9050 C.3     1  UNL1        0.0887
     12 N         -24.7580   -1.4810   32.6460 N.3     1  UNL1       -0.2191
     13 C         -25.6880    1.6140   26.4610 C.3     1  UNL1        0.0921
     14 C         -26.2500    2.9200   26.3950 C.2     1  UNL1        0.0589
     15 C         -25.6420    4.0930   27.1230 C.2     1  UNL1        0.2628
     16 N         -25.6140    5.2520   26.4490 N.am    1  UNL1       -0.2000
     17 C         -25.0260    6.4790   26.9630 C.3     1  UNL1        0.1388
     18 O         -25.1430    3.9660   28.2430 O.2     1  UNL1       -0.2686
     19 C         -27.4380    3.0910   25.6450 C.2     1  UNL1        0.1025
     20 N         -28.0750    2.0890   25.0030 N.2     1  UNL1       -0.2118
     21 C         -27.5430    0.8490   25.0790 C.2     1  UNL1        0.2344
     22 O         -28.1930   -0.2080   24.4770 O.2     1  UNL1       -0.4585
     23 C         -29.4600    0.0050   23.8660 C.3     1  UNL1        0.2423
     24 C         -30.0650   -1.3770   23.5730 C.3     1  UNL1        0.2292
     25 O         -30.7290   -1.8780   24.7210 O.3     1  UNL1       -0.2162
     26 C         -26.3540    0.5760   25.7770 C.3     1  UNL1        0.2440
     27 F         -25.8600   -0.6810   25.7950 F       1  UNL1       -0.2265
     28 C         -23.6528    1.2445   27.9195 C.2     1  UNL1       -0.0057
     29 C         -31.0266    4.8261   29.4850 C.3     1  UNL1        0.1741
     30 O         -28.0021    2.6987   30.2056 O.2     1  UNL1       -0.2728
     31 C         -26.8634    0.1251   29.0758 C.2     1  UNL1        0.3461
     32 C         -23.4458    1.9464   25.4876 C.2     1  UNL1       -0.0041
     33 C         -21.5400    1.9826   26.9763 C.2     1  UNL1       -0.0003
     34 C         -24.4346    0.1770   29.0222 C.3     1  UNL1        0.1241
     35 N         -27.9792    0.5715   29.8164 N.am    1  UNL1       -0.1261
     36 O         -27.0610   -0.8933   28.4254 O.2     1  UNL1       -0.2487
     37 C         -22.3326    1.5341   28.0765 C.2     1  UNL1       -0.0029
     38 C         -24.2014    1.6917   26.5905 C.2     1  UNL1       -0.0174
     39 C         -28.3872    1.7780   29.5637 C.2     1  UNL1        0.2517
     40 C         -29.1821    1.8805   28.2177 C.3     1  UNL1        0.1193
     41 C         -22.0674    2.1717   25.6960 C.2     1  UNL1       -0.0003
     42 C         -29.9880    3.1635   28.3433 C.3     1  UNL1        0.1519
     43 N         -25.7547    0.8097   29.0714 N.am    1  UNL1       -0.1838
     44 O         -29.7891    4.1815   29.3056 O.3     1  UNL1       -0.3506
@<TRIPOS>BOND
     1     1    34    1
     2     2     7    1
     3     2     1    1
     4     3     2    2
     5     4     3    1
     6     4     5    2
     7     5     6    1
     8     6     7    2
     9     8     1    1
    10     8     9    1
    11     8    12    1
    12     9    10    1
    13    10    11    1
    14    12    11    1
    15    13    38    1
    16    14    13    1
    17    14    15    1
    18    15    18    2
    19    16    17    1
    20    16    15    1
    21    19    14    2
    22    20    21    2
    23    20    19    1
    24    21    26    1
    25    22    21    1
    26    23    22    1
    27    24    23    1
    28    24    25    1
    29    26    27    1
    30    26    13    1
    31    28    37    1
    32    28    34    1
    33    31    35    1
    34    32    41    2
    35    32    38    1
    36    33    37    2
    37    34    43    1
    38    36    31    2
    39    38    28    2
    40    39    35    1
    41    39    30    2
    42    40    42    1
    43    40    39    1
    44    41    33    1
    45    42    44    1
    46    43    31    1
    47    44    29    1
