@<TRIPOS>MOLECULE
outputs/IAG933/test6/raw/output_6037_IAG933_linker_design_.xyz
 41 44 0 0 0
SMALL
GASTEIGER

@<TRIPOS>ATOM
      1 C         -24.8550   -1.0120   30.1430 C.3     1  UNL1        0.1341
      2 C         -24.9730   -2.5050   29.7880 C.2     1  UNL1       -0.0011
      3 C         -23.9060   -3.1730   29.1460 C.2     1  UNL1       -0.0026
      4 C         -23.9890   -4.5490   28.8530 C.2     1  UNL1       -0.0003
      5 C         -25.1370   -5.2800   29.2050 C.2     1  UNL1       -0.0000
      6 C         -26.2320   -4.6110   29.7840 C.2     1  UNL1       -0.0003
      7 C         -26.1550   -3.2320   30.0650 C.2     1  UNL1       -0.0026
      8 C         -25.3870   -0.6790   31.5710 C.3     1  UNL1        0.0970
      9 C         -25.1890    0.7730   32.0280 C.3     1  UNL1        0.0210
     10 C         -25.3360    0.6840   33.5440 C.3     1  UNL1        0.0203
     11 C         -24.8290   -0.7150   33.9050 C.3     1  UNL1        0.0888
     12 N         -24.7580   -1.4810   32.6460 N.3     1  UNL1       -0.2174
     13 C         -25.6880    1.6140   26.4610 C.2     1  UNL1        0.0400
     14 C         -26.2500    2.9200   26.3950 C.2     1  UNL1        0.0766
     15 C         -25.6420    4.0930   27.1230 C.2     1  UNL1        0.2664
     16 N         -25.6140    5.2520   26.4490 N.am    1  UNL1       -0.1997
     17 C         -25.0260    6.4790   26.9630 C.3     1  UNL1        0.1388
     18 O         -25.1430    3.9660   28.2430 O.2     1  UNL1       -0.2683
     19 C         -27.4380    3.0910   25.6450 C.2     1  UNL1        0.1067
     20 N         -28.0750    2.0890   25.0030 N.2     1  UNL1       -0.2081
     21 C         -27.5430    0.8490   25.0790 C.2     1  UNL1        0.2533
     22 O         -28.1930   -0.2080   24.4770 O.2     1  UNL1       -0.4558
     23 C         -29.4600    0.0050   23.8660 C.3     1  UNL1        0.2426
     24 C         -30.0650   -1.3770   23.5730 C.3     1  UNL1        0.2292
     25 O         -30.7290   -1.8780   24.7210 O.3     1  UNL1       -0.2162
     26 C         -26.3540    0.5760   25.7770 C.2     1  UNL1        0.1931
     27 F         -25.8600   -0.6810   25.7950 F       1  UNL1       -0.1992
     28 CL        -22.8890    2.6013   25.7097 Cl      1  UNL1       -0.0798
     29 C         -23.2298    1.6431   26.9265 C.2     1  UNL1        0.0878
     30 C         -29.3416   -0.1994   32.5938 C.3     1  UNL1        0.0341
     31 O         -27.9552   -0.2948   28.9029 O.2     1  UNL1       -0.4665
     32 N         -23.2869    0.5716   29.4124 N.2     1  UNL1       -0.1739
     33 C         -24.6036    1.3374   27.2944 C.2     1  UNL1        0.0299
     34 C         -25.4468    0.7471   28.5314 C.2     1  UNL1        0.0916
     35 C         -28.4076   -0.0898   31.5383 C.2     1  UNL1        0.0142
     36 C         -22.1241    0.5501   28.7504 C.2     1  UNL1        0.1482
     37 C         -28.7874   -0.3539   30.2222 C.2     1  UNL1        0.1682
     38 N         -24.5299   -0.0564   29.2679 N.pl3   1  UNL1       -0.2080
     39 F         -20.7245    1.6453   27.3641 F       1  UNL1       -0.2016
     40 C         -22.0003    1.2774   27.6395 C.2     1  UNL1        0.1712
     41 C         -26.8449    0.2230   28.7437 C.3     1  UNL1        0.2482
@<TRIPOS>BOND
     1     1     2    1
     2     2     7    1
     3     3     2    2
     4     4     3    1
     5     4     5    2
     6     5     6    1
     7     6     7    2
     8     8     1    1
     9     8     9    1
    10     8    12    1
    11     9    10    1
    12    10    11    1
    13    12    11    1
    14    13    33    1
    15    14    13    1
    16    14    15    1
    17    15    18    2
    18    16    17    1
    19    16    15    1
    20    19    14    2
    21    20    21    2
    22    20    19    1
    23    21    26    1
    24    22    21    1
    25    23    22    1
    26    24    23    1
    27    24    25    1
    28    26    27    1
    29    26    13    2
    30    28    29    1
    31    29    33    1
    32    29    40    2
    33    31    37    1
    34    33    34    2
    35    34    41    1
    36    34    38    1
    37    35    30    1
    38    36    32    2
    39    37    35    2
    40    38    32    1
    41    38     1    1
    42    39    40    1
    43    40    36    1
    44    41    31    1
