@<TRIPOS>MOLECULE
outputs/IAG933/test6/raw/output_6041_IAG933_linker_design_.xyz
 46 50 0 0 0
SMALL
GASTEIGER

@<TRIPOS>ATOM
      1 C         -24.8550   -1.0120   30.1430 C.3     1  UNL1        0.1367
      2 C         -24.9730   -2.5050   29.7880 C.2     1  UNL1       -0.0011
      3 C         -23.9060   -3.1730   29.1460 C.2     1  UNL1       -0.0026
      4 C         -23.9890   -4.5490   28.8530 C.2     1  UNL1       -0.0003
      5 C         -25.1370   -5.2800   29.2050 C.2     1  UNL1       -0.0000
      6 C         -26.2320   -4.6110   29.7840 C.2     1  UNL1       -0.0003
      7 C         -26.1550   -3.2320   30.0650 C.2     1  UNL1       -0.0026
      8 C         -25.3870   -0.6790   31.5710 C.3     1  UNL1        0.1239
      9 C         -25.1890    0.7730   32.0280 C.3     1  UNL1        0.1352
     10 C         -25.3360    0.6840   33.5440 C.3     1  UNL1        0.0499
     11 C         -24.8290   -0.7150   33.9050 C.3     1  UNL1        0.0914
     12 N         -24.7580   -1.4810   32.6460 N.3     1  UNL1       -0.2148
     13 C         -25.6880    1.6140   26.4610 C.2     1  UNL1        0.0170
     14 C         -26.2500    2.9200   26.3950 C.2     1  UNL1        0.0705
     15 C         -25.6420    4.0930   27.1230 C.2     1  UNL1        0.2246
     16 N         -25.6140    5.2520   26.4490 N.2     1  UNL1       -0.2356
     17 C         -25.0260    6.4790   26.9630 C.3     1  UNL1        0.1550
     18 O         -25.1430    3.9660   28.2430 O.2     1  UNL1       -0.4265
     19 C         -27.4380    3.0910   25.6450 C.2     1  UNL1        0.1065
     20 N         -28.0750    2.0890   25.0030 N.2     1  UNL1       -0.2081
     21 C         -27.5430    0.8490   25.0790 C.2     1  UNL1        0.2530
     22 O         -28.1930   -0.2080   24.4770 O.2     1  UNL1       -0.4558
     23 C         -29.4600    0.0050   23.8660 C.3     1  UNL1        0.2426
     24 C         -30.0650   -1.3770   23.5730 C.3     1  UNL1        0.2292
     25 O         -30.7290   -1.8780   24.7210 O.3     1  UNL1       -0.2162
     26 C         -26.3540    0.5760   25.7770 C.2     1  UNL1        0.1891
     27 F         -25.8600   -0.6810   25.7950 F       1  UNL1       -0.1996
     28 C         -22.1070    1.4506   27.6037 C.3     1  UNL1        0.1446
     29 N         -21.9194    0.7380   28.7594 N.2     1  UNL1       -0.2289
     30 C         -26.0785    3.0244   32.0359 C.3     1  UNL1        0.2300
     31 N         -23.9987   -0.4787   29.0949 N.pl3   1  UNL1       -0.1913
     32 O         -25.3853    6.5548   30.3407 O.3     1  UNL1       -0.1646
     33 C         -24.7191    1.9638   28.9648 C.3     1  UNL1        0.0973
     34 C         -23.2572    1.5883   26.8985 C.3     1  UNL1        0.1201
     35 C         -22.9539    0.2143   29.5212 C.2     1  UNL1        0.2913
     36 C         -25.2542    3.3334   29.4980 C.3     1  UNL1        0.3430
     37 C         -23.1668    1.7128   25.5164 C.1     1  UNL1        0.0745
     38 O         -25.9417    1.7536   31.4477 O.3     1  UNL1       -0.3452
     39 N         -23.0283    1.8054   24.4072 N.1     1  UNL1       -0.1958
     40 F         -22.8623    0.3089   30.8094 F       1  UNL1       -0.1647
     41 C         -24.5679    1.4088   27.3996 C.3     1  UNL1        0.0485
     42 O         -27.5818    5.8890   31.2601 O.2     1  UNL1       -0.3378
     43 C         -27.0820    3.6543   31.1682 C.2     1  UNL1        0.2695
     44 N         -28.0046    4.6513   31.3548 N.2     1  UNL1       -0.0439
     45 C         -26.1429    6.0003   31.3884 C.3     1  UNL1        0.4175
     46 O         -26.6114    3.6963   29.8648 O.2     1  UNL1       -0.4252
@<TRIPOS>BOND
     1     1     2    1
     2     1     8    1
     3     2     7    1
     4     3     2    2
     5     4     3    1
     6     4     5    2
     7     5     6    1
     8     6     7    2
     9     8     9    1
    10     8    12    1
    11     9    10    1
    12    10    11    1
    13    12    11    1
    14    13    41    1
    15    14    13    1
    16    14    15    1
    17    15    18    1
    18    16    17    1
    19    16    15    2
    20    18    36    1
    21    19    14    2
    22    20    21    2
    23    20    19    1
    24    21    26    1
    25    22    21    1
    26    23    22    1
    27    24    23    1
    28    24    25    1
    29    26    27    1
    30    26    13    2
    31    28    29    1
    32    29    35    2
    33    31    35    1
    34    31     1    1
    35    32    45    1
    36    34    37    1
    37    34    41    1
    38    34    28    1
    39    35    40    1
    40    36    33    1
    41    36    46    1
    42    38     9    1
    43    38    30    1
    44    39    37    3
    45    41    33    1
    46    42    44    1
    47    42    45    1
    48    43    44    2
    49    43    30    1
    50    46    43    1
