@<TRIPOS>MOLECULE
outputs/IAG933/test6/raw/output_6044_IAG933_linker_design_.xyz
 44 47 0 0 0
SMALL
GASTEIGER

@<TRIPOS>ATOM
      1 C         -24.8550   -1.0120   30.1430 C.3     1  UNL1        0.0408
      2 C         -24.9730   -2.5050   29.7880 C.2     1  UNL1       -0.0211
      3 C         -23.9060   -3.1730   29.1460 C.2     1  UNL1       -0.0042
      4 C         -23.9890   -4.5490   28.8530 C.2     1  UNL1       -0.0003
      5 C         -25.1370   -5.2800   29.2050 C.2     1  UNL1       -0.0000
      6 C         -26.2320   -4.6110   29.7840 C.2     1  UNL1       -0.0003
      7 C         -26.1550   -3.2320   30.0650 C.2     1  UNL1       -0.0042
      8 C         -25.3870   -0.6790   31.5710 C.3     1  UNL1        0.0769
      9 C         -25.1890    0.7730   32.0280 C.3     1  UNL1        0.0192
     10 C         -25.3360    0.6840   33.5440 C.3     1  UNL1        0.0202
     11 C         -24.8290   -0.7150   33.9050 C.3     1  UNL1        0.0887
     12 N         -24.7580   -1.4810   32.6460 N.3     1  UNL1       -0.2191
     13 C         -25.6880    1.6140   26.4610 C.3     1  UNL1        0.0764
     14 C         -26.2500    2.9200   26.3950 C.2     1  UNL1        0.0552
     15 C         -25.6420    4.0930   27.1230 C.2     1  UNL1        0.2625
     16 N         -25.6140    5.2520   26.4490 N.am    1  UNL1       -0.2000
     17 C         -25.0260    6.4790   26.9630 C.3     1  UNL1        0.1388
     18 O         -25.1430    3.9660   28.2430 O.2     1  UNL1       -0.2687
     19 C         -27.4380    3.0910   25.6450 C.2     1  UNL1        0.1022
     20 N         -28.0750    2.0890   25.0030 N.2     1  UNL1       -0.2119
     21 C         -27.5430    0.8490   25.0790 C.2     1  UNL1        0.2341
     22 O         -28.1930   -0.2080   24.4770 O.2     1  UNL1       -0.4585
     23 C         -29.4600    0.0050   23.8660 C.3     1  UNL1        0.2423
     24 C         -30.0650   -1.3770   23.5730 C.3     1  UNL1        0.2292
     25 O         -30.7290   -1.8780   24.7210 O.3     1  UNL1       -0.2162
     26 C         -26.3540    0.5760   25.7770 C.3     1  UNL1        0.2404
     27 F         -25.8600   -0.6810   25.7950 F       1  UNL1       -0.2269
     28 C         -26.8041    1.4470   29.4834 C.3     1  UNL1        0.1200
     29 C         -25.3934    1.2830   28.9570 C.3     1  UNL1        0.1469
     30 C         -25.2890   -0.2206   29.1289 C.3     1  UNL1        0.0379
     31 C         -24.7788    1.3727   27.6563 C.3     1  UNL1        0.0594
     32 F         -22.8782    0.4954   29.8273 F       1  UNL1       -0.2092
     33 N         -27.3563    2.7792   29.7786 N.3     1  UNL1       -0.1303
     34 C         -23.3798    1.3166   27.4361 C.2     1  UNL1        0.0113
     35 C         -20.7223    1.5344   27.2902 C.3     1  UNL1        0.2875
     36 F         -19.6394    2.1540   27.6998 F       1  UNL1       -0.2035
     37 C         -27.8511    0.3708   29.1575 C.3     1  UNL1        0.0231
     38 C         -22.7051    1.7989   26.1657 C.3     1  UNL1        0.1693
     39 O         -21.3652    1.9281   26.1066 O.3     1  UNL1       -0.3218
     40 C         -20.4308   -0.4247   28.4369 C.3     1  UNL1        0.1941
     41 C         -21.2725    0.6553   28.1795 C.3     1  UNL1        0.1441
     42 C         -22.5302    0.8035   28.4372 C.2     1  UNL1        0.1196
     43 O         -21.0124   -1.4108   28.7995 O.3     1  UNL1       -0.2198
     44 O         -24.6457    2.1633   29.8997 O.3     1  UNL1       -0.2238
@<TRIPOS>BOND
     1     1    30    1
     2     2     7    1
     3     2     1    1
     4     3     2    2
     5     4     3    1
     6     4     5    2
     7     5     6    1
     8     6     7    2
     9     8     1    1
    10     8     9    1
    11     8    12    1
    12     9    10    1
    13    10    11    1
    14    12    11    1
    15    13    31    1
    16    14    13    1
    17    14    15    1
    18    15    18    2
    19    16    17    1
    20    16    15    1
    21    19    14    2
    22    20    21    2
    23    20    19    1
    24    21    26    1
    25    22    21    1
    26    23    22    1
    27    24    23    1
    28    24    25    1
    29    26    27    1
    30    26    13    1
    31    28    37    1
    32    28    33    1
    33    29    30    1
    34    29    28    1
    35    29    44    1
    36    31    29    1
    37    34    31    1
    38    34    42    2
    39    35    36    1
    40    35    41    1
    41    38    34    1
    42    39    38    1
    43    39    35    1
    44    40    43    1
    45    41    40    1
    46    41    42    1
    47    42    32    1
