@<TRIPOS>MOLECULE
outputs/IAG933/test6/raw/output_6047_IAG933_linker_design_.xyz
 41 44 0 0 0
SMALL
GASTEIGER

@<TRIPOS>ATOM
      1 C         -24.8550   -1.0120   30.1430 C.3     1  UNL1        0.1985
      2 C         -24.9730   -2.5050   29.7880 C.2     1  UNL1        0.0213
      3 C         -23.9060   -3.1730   29.1460 C.2     1  UNL1       -0.0004
      4 C         -23.9890   -4.5490   28.8530 C.2     1  UNL1       -0.0002
      5 C         -25.1370   -5.2800   29.2050 C.2     1  UNL1       -0.0000
      6 C         -26.2320   -4.6110   29.7840 C.2     1  UNL1       -0.0002
      7 C         -26.1550   -3.2320   30.0650 C.2     1  UNL1       -0.0004
      8 C         -25.3870   -0.6790   31.5710 C.3     1  UNL1        0.1197
      9 C         -25.1890    0.7730   32.0280 C.3     1  UNL1        0.0233
     10 C         -25.3360    0.6840   33.5440 C.3     1  UNL1        0.0204
     11 C         -24.8290   -0.7150   33.9050 C.3     1  UNL1        0.0889
     12 N         -24.7580   -1.4810   32.6460 N.3     1  UNL1       -0.2150
     13 C         -25.6880    1.6140   26.4610 C.2     1  UNL1        0.0483
     14 C         -26.2500    2.9200   26.3950 C.2     1  UNL1        0.0769
     15 C         -25.6420    4.0930   27.1230 C.2     1  UNL1        0.2664
     16 N         -25.6140    5.2520   26.4490 N.am    1  UNL1       -0.1997
     17 C         -25.0260    6.4790   26.9630 C.3     1  UNL1        0.1388
     18 O         -25.1430    3.9660   28.2430 O.2     1  UNL1       -0.2683
     19 C         -27.4380    3.0910   25.6450 C.2     1  UNL1        0.1067
     20 N         -28.0750    2.0890   25.0030 N.2     1  UNL1       -0.2081
     21 C         -27.5430    0.8490   25.0790 C.2     1  UNL1        0.2533
     22 O         -28.1930   -0.2080   24.4770 O.2     1  UNL1       -0.4558
     23 C         -29.4600    0.0050   23.8660 C.3     1  UNL1        0.2426
     24 C         -30.0650   -1.3770   23.5730 C.3     1  UNL1        0.2292
     25 O         -30.7290   -1.8780   24.7210 O.3     1  UNL1       -0.2162
     26 C         -26.3540    0.5760   25.7770 C.2     1  UNL1        0.1934
     27 F         -25.8600   -0.6810   25.7950 F       1  UNL1       -0.1992
     28 C         -24.1825    0.4745   28.2311 C.2     1  UNL1        0.3178
     29 C         -21.8951    1.7611   26.6222 C.2     1  UNL1        0.1827
     30 N         -23.1008    0.2075   28.7940 N.pl3   1  UNL1       -0.0073
     31 C         -21.8919    0.4198   28.6342 C.2     1  UNL1        0.2260
     32 N         -25.2815   -0.1776   28.9437 N.pl3   1  UNL1       -0.1837
     33 C         -24.3278    1.3775   27.0601 C.2     1  UNL1        0.1238
     34 C         -23.2366    2.0149   26.4146 C.2     1  UNL1        0.2300
     35 O         -23.4727    2.8988   25.4548 O.2     1  UNL1       -0.2839
     36 O         -28.6736    1.1037   29.4827 O.2     1  UNL1       -0.2622
     37 C         -21.2759    1.0655   27.6336 C.2     1  UNL1        0.0810
     38 F         -21.0563    2.3872   25.8455 F       1  UNL1       -0.2007
     39 O         -27.8305   -0.9909   28.9345 O.2     1  UNL1       -0.2622
     40 C         -26.3013    0.8520   29.2029 C.3     1  UNL1        0.3030
     41 C         -27.6428    0.3457   28.8493 C.3     1  UNL1        0.4716
@<TRIPOS>BOND
     1     1    32    1
     2     2     7    1
     3     2     1    1
     4     3     2    2
     5     4     3    1
     6     4     5    2
     7     5     6    1
     8     6     7    2
     9     8     1    1
    10     8     9    1
    11     8    12    1
    12     9    10    1
    13    10    11    1
    14    12    11    1
    15    13    33    1
    16    14    13    1
    17    14    15    1
    18    15    18    2
    19    16    17    1
    20    16    15    1
    21    19    14    2
    22    20    21    2
    23    20    19    1
    24    21    26    1
    25    22    21    1
    26    23    22    1
    27    24    23    1
    28    24    25    1
    29    26    27    1
    30    26    13    2
    31    28    30    1
    32    28    32    1
    33    29    37    1
    34    31    30    1
    35    32    40    1
    36    33    28    2
    37    34    29    2
    38    34    33    1
    39    35    34    1
    40    37    31    2
    41    38    29    1
    42    41    39    1
    43    41    40    1
    44    41    36    1
