@<TRIPOS>MOLECULE
outputs/IAG933/test6/raw/output_6048_IAG933_linker_design_.xyz
 40 43 0 0 0
SMALL
GASTEIGER

@<TRIPOS>ATOM
      1 C         -24.8550   -1.0120   30.1430 C.3     1  UNL1        0.0714
      2 C         -24.9730   -2.5050   29.7880 C.2     1  UNL1       -0.0186
      3 C         -23.9060   -3.1730   29.1460 C.2     1  UNL1       -0.0042
      4 C         -23.9890   -4.5490   28.8530 C.2     1  UNL1       -0.0003
      5 C         -25.1370   -5.2800   29.2050 C.2     1  UNL1       -0.0000
      6 C         -26.2320   -4.6110   29.7840 C.2     1  UNL1       -0.0003
      7 C         -26.1550   -3.2320   30.0650 C.2     1  UNL1       -0.0042
      8 C         -25.3870   -0.6790   31.5710 C.3     1  UNL1        0.0824
      9 C         -25.1890    0.7730   32.0280 C.3     1  UNL1        0.0559
     10 C         -25.3360    0.6840   33.5440 C.3     1  UNL1        0.0234
     11 C         -24.8290   -0.7150   33.9050 C.3     1  UNL1        0.0888
     12 N         -24.7580   -1.4810   32.6460 N.3     1  UNL1       -0.2189
     13 C         -25.6880    1.6140   26.4610 C.2     1  UNL1        0.1085
     14 C         -26.2500    2.9200   26.3950 C.2     1  UNL1        0.0918
     15 C         -25.6420    4.0930   27.1230 C.2     1  UNL1        0.2677
     16 N         -25.6140    5.2520   26.4490 N.am    1  UNL1       -0.1997
     17 C         -25.0260    6.4790   26.9630 C.3     1  UNL1        0.1388
     18 O         -25.1430    3.9660   28.2430 O.2     1  UNL1       -0.2683
     19 C         -27.4380    3.0910   25.6450 C.2     1  UNL1        0.1080
     20 N         -28.0750    2.0890   25.0030 N.2     1  UNL1       -0.2080
     21 C         -27.5430    0.8490   25.0790 C.2     1  UNL1        0.2546
     22 O         -28.1930   -0.2080   24.4770 O.2     1  UNL1       -0.4558
     23 C         -29.4600    0.0050   23.8660 C.3     1  UNL1        0.2426
     24 C         -30.0650   -1.3770   23.5730 C.3     1  UNL1        0.2292
     25 O         -30.7290   -1.8780   24.7210 O.3     1  UNL1       -0.2162
     26 C         -26.3540    0.5760   25.7770 C.2     1  UNL1        0.2082
     27 F         -25.8600   -0.6810   25.7950 F       1  UNL1       -0.1978
     28 C         -21.3485    1.3716   26.7913 C.2     1  UNL1        0.0128
     29 C         -25.7219   -0.5257   29.0570 C.3     1  UNL1        0.1878
     30 CL        -22.6722    1.6977   24.5768 Cl      1  UNL1       -0.0808
     31 C         -21.2408    1.2029   28.1734 C.2     1  UNL1        0.0023
     32 N         -26.0843    2.5391   30.8115 N.3     1  UNL1       -0.1091
     33 C         -24.7873    1.8637   31.0058 C.3     1  UNL1        0.1842
     34 N         -24.6628    1.2206   27.2808 N.pl3   1  UNL1       -0.2077
     35 N         -24.3027    1.6474   29.6828 N.pl3   1  UNL1       -0.2187
     36 C         -22.6378    1.5339   26.2970 C.2     1  UNL1        0.0741
     37 C         -23.7561    1.4345   27.2839 C.2     1  UNL1        0.0959
     38 O         -26.2341   -0.5608   28.2011 O.3     1  UNL1       -0.2200
     39 C         -22.3108    1.1234   29.0062 C.2     1  UNL1        0.0175
     40 C         -23.6395    1.4285   28.5868 C.2     1  UNL1        0.0829
@<TRIPOS>BOND
     1     1    29    1
     2     2     7    1
     3     2     1    1
     4     3     2    2
     5     4     3    1
     6     4     5    2
     7     5     6    1
     8     6     7    2
     9     8     1    1
    10     8     9    1
    11     8    12    1
    12     9    33    1
    13     9    10    1
    14    10    11    1
    15    12    11    1
    16    13    34    1
    17    14    13    1
    18    14    15    1
    19    15    18    2
    20    16    17    1
    21    16    15    1
    22    19    14    2
    23    20    21    2
    24    20    19    1
    25    21    26    1
    26    22    21    1
    27    23    22    1
    28    24    23    1
    29    24    25    1
    30    26    27    1
    31    26    13    2
    32    28    31    1
    33    30    36    1
    34    31    39    2
    35    33    32    1
    36    34    37    1
    37    35    33    1
    38    36    28    2
    39    36    37    1
    40    37    40    2
    41    38    29    1
    42    40    39    1
    43    40    35    1
