@<TRIPOS>MOLECULE
outputs/IAG933/test6/raw/output_605_IAG933_linker_design_.xyz
 38 41 0 0 0
SMALL
GASTEIGER

@<TRIPOS>ATOM
      1 C         -24.8550   -1.0120   30.1430 C.3     1  UNL1        0.1443
      2 C         -24.9730   -2.5050   29.7880 C.2     1  UNL1       -0.0097
      3 C         -23.9060   -3.1730   29.1460 C.2     1  UNL1       -0.0037
      4 C         -23.9890   -4.5490   28.8530 C.2     1  UNL1       -0.0003
      5 C         -25.1370   -5.2800   29.2050 C.2     1  UNL1       -0.0000
      6 C         -26.2320   -4.6110   29.7840 C.2     1  UNL1       -0.0003
      7 C         -26.1550   -3.2320   30.0650 C.2     1  UNL1       -0.0037
      8 C         -25.3870   -0.6790   31.5710 C.3     1  UNL1        0.0884
      9 C         -25.1890    0.7730   32.0280 C.3     1  UNL1        0.0198
     10 C         -25.3360    0.6840   33.5440 C.3     1  UNL1        0.0203
     11 C         -24.8290   -0.7150   33.9050 C.3     1  UNL1        0.0887
     12 N         -24.7580   -1.4810   32.6460 N.3     1  UNL1       -0.2185
     13 C         -25.6880    1.6140   26.4610 C.2     1  UNL1        0.0844
     14 C         -26.2500    2.9200   26.3950 C.2     1  UNL1        0.0802
     15 C         -25.6420    4.0930   27.1230 C.2     1  UNL1        0.2665
     16 N         -25.6140    5.2520   26.4490 N.am    1  UNL1       -0.1997
     17 C         -25.0260    6.4790   26.9630 C.3     1  UNL1        0.1388
     18 O         -25.1430    3.9660   28.2430 O.2     1  UNL1       -0.2683
     19 C         -27.4380    3.0910   25.6450 C.2     1  UNL1        0.1069
     20 N         -28.0750    2.0890   25.0030 N.2     1  UNL1       -0.2081
     21 C         -27.5430    0.8490   25.0790 C.2     1  UNL1        0.2534
     22 O         -28.1930   -0.2080   24.4770 O.2     1  UNL1       -0.4558
     23 C         -29.4600    0.0050   23.8660 C.3     1  UNL1        0.2426
     24 C         -30.0650   -1.3770   23.5730 C.3     1  UNL1        0.2292
     25 O         -30.7290   -1.8780   24.7210 O.3     1  UNL1       -0.2162
     26 C         -26.3540    0.5760   25.7770 C.2     1  UNL1        0.1967
     27 F         -25.8600   -0.6810   25.7950 F       1  UNL1       -0.1991
     28 F         -20.9877    1.8922   27.2957 F       1  UNL1       -0.1969
     29 C         -20.8111   -0.5929   28.6845 C.3     1  UNL1        0.0555
     30 C         -24.4936    1.2232   27.1694 C.2     1  UNL1        0.2362
     31 O         -22.9410    1.9878   25.4310 O.2     1  UNL1       -0.2800
     32 C         -24.1025   -0.0936   29.2654 C.2     1  UNL1        0.3094
     33 C         -23.2402    1.6189   26.6227 C.2     1  UNL1        0.2689
     34 C         -22.3958    1.3818   29.0002 C.2     1  UNL1        0.2089
     35 N         -22.7891    0.1631   29.5005 N.pl3   1  UNL1       -0.1685
     36 C         -21.9066   -0.8283   29.5789 C.3     1  UNL1        0.2074
     37 C         -22.2741    1.5694   27.6215 C.2     1  UNL1        0.2227
     38 N         -24.7762    0.4035   28.2098 N.2     1  UNL1       -0.0403
@<TRIPOS>BOND
     1     1    32    1
     2     2     7    1
     3     2     1    1
     4     3     2    2
     5     4     3    1
     6     4     5    2
     7     5     6    1
     8     6     7    2
     9     8     1    1
    10     8     9    1
    11     8    12    1
    12     9    10    1
    13    10    11    1
    14    12    11    1
    15    13    30    1
    16    14    13    1
    17    14    15    1
    18    15    18    2
    19    16    17    1
    20    16    15    1
    21    19    14    2
    22    20    21    2
    23    20    19    1
    24    21    26    1
    25    22    21    1
    26    23    22    1
    27    24    23    1
    28    24    25    1
    29    26    27    1
    30    26    13    2
    31    28    37    1
    32    29    36    1
    33    30    38    1
    34    31    33    1
    35    32    35    1
    36    33    30    2
    37    33    37    1
    38    34    35    1
    39    35    36    1
    40    37    34    2
    41    38    32    2
