@<TRIPOS>MOLECULE
outputs/IAG933/test6/raw/output_6050_IAG933_linker_design_.xyz
 43 47 0 0 0
SMALL
GASTEIGER

@<TRIPOS>ATOM
      1 C         -24.8550   -1.0120   30.1430 C.3     1  UNL1        0.0624
      2 C         -24.9730   -2.5050   29.7880 C.2     1  UNL1       -0.0191
      3 C         -23.9060   -3.1730   29.1460 C.2     1  UNL1       -0.0042
      4 C         -23.9890   -4.5490   28.8530 C.2     1  UNL1       -0.0003
      5 C         -25.1370   -5.2800   29.2050 C.2     1  UNL1       -0.0000
      6 C         -26.2320   -4.6110   29.7840 C.2     1  UNL1       -0.0003
      7 C         -26.1550   -3.2320   30.0650 C.2     1  UNL1       -0.0042
      8 C         -25.3870   -0.6790   31.5710 C.3     1  UNL1        0.0788
      9 C         -25.1890    0.7730   32.0280 C.3     1  UNL1        0.0193
     10 C         -25.3360    0.6840   33.5440 C.3     1  UNL1        0.0202
     11 C         -24.8290   -0.7150   33.9050 C.3     1  UNL1        0.0887
     12 N         -24.7580   -1.4810   32.6460 N.3     1  UNL1       -0.2191
     13 C         -25.6880    1.6140   26.4610 C.2     1  UNL1        0.0400
     14 C         -26.2500    2.9200   26.3950 C.2     1  UNL1        0.0766
     15 C         -25.6420    4.0930   27.1230 C.2     1  UNL1        0.2664
     16 N         -25.6140    5.2520   26.4490 N.am    1  UNL1       -0.1997
     17 C         -25.0260    6.4790   26.9630 C.3     1  UNL1        0.1388
     18 O         -25.1430    3.9660   28.2430 O.2     1  UNL1       -0.2683
     19 C         -27.4380    3.0910   25.6450 C.2     1  UNL1        0.1067
     20 N         -28.0750    2.0890   25.0030 N.2     1  UNL1       -0.2081
     21 C         -27.5430    0.8490   25.0790 C.2     1  UNL1        0.2533
     22 O         -28.1930   -0.2080   24.4770 O.2     1  UNL1       -0.4558
     23 C         -29.4600    0.0050   23.8660 C.3     1  UNL1        0.2426
     24 C         -30.0650   -1.3770   23.5730 C.3     1  UNL1        0.2292
     25 O         -30.7290   -1.8780   24.7210 O.3     1  UNL1       -0.2162
     26 C         -26.3540    0.5760   25.7770 C.2     1  UNL1        0.1931
     27 F         -25.8600   -0.6810   25.7950 F       1  UNL1       -0.1992
     28 C         -21.2157    1.3660   27.6375 C.2     1  UNL1       -0.0191
     29 F         -23.4317    2.9308   25.3315 F       1  UNL1       -0.2042
     30 C         -28.8393    1.9284   30.8296 C.2     1  UNL1        0.0013
     31 C         -28.8019    0.2219   28.5627 C.2     1  UNL1        0.0161
     32 C         -27.6209    1.7162   30.1250 C.2     1  UNL1        0.0161
     33 C         -25.2409    0.0114   29.0354 C.3     1  UNL1        0.1197
     34 C         -24.1648    0.5810   28.3034 C.2     1  UNL1       -0.0040
     35 C         -27.5632    0.7572   29.0615 C.2     1  UNL1        0.0656
     36 C         -24.3496    1.4094   27.0434 C.2     1  UNL1        0.0273
     37 C         -21.9321    1.8498   26.6714 C.2     1  UNL1        0.0254
     38 C         -22.8666    0.2707   28.9847 C.2     1  UNL1       -0.0240
     39 C         -23.2304    2.0405   26.3396 C.2     1  UNL1        0.1396
     40 N         -26.4970    0.0086   28.5777 N.pl3   1  UNL1       -0.2346
     41 C         -30.0288    0.5241   29.2056 C.2     1  UNL1        0.0013
     42 C         -21.6031    0.6571   28.7240 C.3     1  UNL1        0.0518
     43 C         -30.0333    1.2882   30.4022 C.2     1  UNL1        0.0001
@<TRIPOS>BOND
     1     1    33    1
     2     2     7    1
     3     2     1    1
     4     3     2    2
     5     4     3    1
     6     4     5    2
     7     5     6    1
     8     6     7    2
     9     8     1    1
    10     8     9    1
    11     8    12    1
    12     9    10    1
    13    10    11    1
    14    12    11    1
    15    13    36    1
    16    14    13    1
    17    14    15    1
    18    15    18    2
    19    16    17    1
    20    16    15    1
    21    19    14    2
    22    20    21    2
    23    20    19    1
    24    21    26    1
    25    22    21    1
    26    23    22    1
    27    24    23    1
    28    24    25    1
    29    26    27    1
    30    26    13    2
    31    28    42    1
    32    29    39    1
    33    31    35    2
    34    31    41    1
    35    32    30    2
    36    33    40    1
    37    34    38    2
    38    34    33    1
    39    35    32    1
    40    36    34    1
    41    37    28    2
    42    39    37    1
    43    39    36    2
    44    40    35    1
    45    41    43    2
    46    42    38    1
    47    43    30    1
