@<TRIPOS>MOLECULE
outputs/IAG933/test6/raw/output_6055_IAG933_linker_design_.xyz
 44 47 0 0 0
SMALL
GASTEIGER

@<TRIPOS>ATOM
      1 C         -24.8550   -1.0120   30.1430 C.3     1  UNL1        0.0441
      2 C         -24.9730   -2.5050   29.7880 C.2     1  UNL1       -0.0208
      3 C         -23.9060   -3.1730   29.1460 C.2     1  UNL1       -0.0042
      4 C         -23.9890   -4.5490   28.8530 C.2     1  UNL1       -0.0003
      5 C         -25.1370   -5.2800   29.2050 C.2     1  UNL1       -0.0000
      6 C         -26.2320   -4.6110   29.7840 C.2     1  UNL1       -0.0003
      7 C         -26.1550   -3.2320   30.0650 C.2     1  UNL1       -0.0042
      8 C         -25.3870   -0.6790   31.5710 C.3     1  UNL1        0.0772
      9 C         -25.1890    0.7730   32.0280 C.3     1  UNL1        0.0192
     10 C         -25.3360    0.6840   33.5440 C.3     1  UNL1        0.0202
     11 C         -24.8290   -0.7150   33.9050 C.3     1  UNL1        0.0887
     12 N         -24.7580   -1.4810   32.6460 N.3     1  UNL1       -0.2191
     13 C         -25.6880    1.6140   26.4610 C.3     1  UNL1        0.0919
     14 C         -26.2500    2.9200   26.3950 C.2     1  UNL1        0.0589
     15 C         -25.6420    4.0930   27.1230 C.2     1  UNL1        0.2628
     16 N         -25.6140    5.2520   26.4490 N.am    1  UNL1       -0.2000
     17 C         -25.0260    6.4790   26.9630 C.3     1  UNL1        0.1388
     18 O         -25.1430    3.9660   28.2430 O.2     1  UNL1       -0.2686
     19 C         -27.4380    3.0910   25.6450 C.2     1  UNL1        0.1025
     20 N         -28.0750    2.0890   25.0030 N.2     1  UNL1       -0.2118
     21 C         -27.5430    0.8490   25.0790 C.2     1  UNL1        0.2344
     22 O         -28.1930   -0.2080   24.4770 O.2     1  UNL1       -0.4585
     23 C         -29.4600    0.0050   23.8660 C.3     1  UNL1        0.2423
     24 C         -30.0650   -1.3770   23.5730 C.3     1  UNL1        0.2292
     25 O         -30.7290   -1.8780   24.7210 O.3     1  UNL1       -0.2162
     26 C         -26.3540    0.5760   25.7770 C.3     1  UNL1        0.2440
     27 F         -25.8600   -0.6810   25.7950 F       1  UNL1       -0.2265
     28 C         -22.7147    2.4011   25.1714 C.3     1  UNL1        0.2194
     29 S         -28.1648   -0.1793   28.7777 S.O2    1  UNL1       -0.0097
     30 C         -28.0891    3.4822   29.6595 C.3     1  UNL1        0.0019
     31 C         -24.9989    0.0472   28.9936 C.3     1  UNL1        0.0532
     32 C         -23.9507    0.7646   28.2424 C.2     1  UNL1        0.0033
     33 F         -22.3564    2.6816   24.1710 F       1  UNL1       -0.2291
     34 C         -28.8377    2.3158   29.0988 C.3     1  UNL1        0.0253
     35 C         -28.6925    1.0114   29.8633 C.3     1  UNL1        0.1508
     36 O         -28.0322   -1.5161   29.4414 O.2     1  UNL1       -0.1730
     37 C         -22.9659    1.9150   26.3476 C.2     1  UNL1        0.0092
     38 C         -24.1809    1.4629   26.9565 C.2     1  UNL1       -0.0181
     39 O         -28.9530   -0.0999   27.5638 O.2     1  UNL1       -0.1730
     40 C         -26.4543    0.2525   28.7617 C.3     1  UNL1        0.1555
     41 C         -21.6708    2.0261   26.8952 C.2     1  UNL1        0.0004
     42 C         -22.5350    0.7835   28.7562 C.2     1  UNL1        0.1359
     43 F         -22.2141    0.1480   29.8582 F       1  UNL1       -0.2045
     44 C         -21.4354    1.4584   28.1567 C.2     1  UNL1        0.0291
@<TRIPOS>BOND
     1     1    31    1
     2     2     7    1
     3     2     1    1
     4     3     2    2
     5     4     3    1
     6     4     5    2
     7     5     6    1
     8     6     7    2
     9     8     1    1
    10     8     9    1
    11     8    12    1
    12     9    10    1
    13    10    11    1
    14    12    11    1
    15    13    38    1
    16    14    13    1
    17    14    15    1
    18    15    18    2
    19    16    17    1
    20    16    15    1
    21    19    14    2
    22    20    21    2
    23    20    19    1
    24    21    26    1
    25    22    21    1
    26    23    22    1
    27    24    23    1
    28    24    25    1
    29    26    27    1
    30    26    13    1
    31    28    37    1
    32    29    36    2
    33    29    35    1
    34    31    40    1
    35    32    42    1
    36    32    31    1
    37    33    28    1
    38    34    30    1
    39    34    35    1
    40    37    41    2
    41    37    38    1
    42    38    32    2
    43    39    29    2
    44    40    29    1
    45    41    44    1
    46    42    43    1
    47    44    42    2
