@<TRIPOS>MOLECULE
outputs/IAG933/test6/raw/output_6064_IAG933_linker_design_.xyz
 45 48 0 0 0
SMALL
GASTEIGER

@<TRIPOS>ATOM
      1 C         -24.8550   -1.0120   30.1430 C.3     1  UNL1        0.0618
      2 C         -24.9730   -2.5050   29.7880 C.2     1  UNL1       -0.0194
      3 C         -23.9060   -3.1730   29.1460 C.2     1  UNL1       -0.0042
      4 C         -23.9890   -4.5490   28.8530 C.2     1  UNL1       -0.0003
      5 C         -25.1370   -5.2800   29.2050 C.2     1  UNL1       -0.0000
      6 C         -26.2320   -4.6110   29.7840 C.2     1  UNL1       -0.0003
      7 C         -26.1550   -3.2320   30.0650 C.2     1  UNL1       -0.0042
      8 C         -25.3870   -0.6790   31.5710 C.3     1  UNL1        0.0786
      9 C         -25.1890    0.7730   32.0280 C.3     1  UNL1        0.0193
     10 C         -25.3360    0.6840   33.5440 C.3     1  UNL1        0.0202
     11 C         -24.8290   -0.7150   33.9050 C.3     1  UNL1        0.0887
     12 N         -24.7580   -1.4810   32.6460 N.3     1  UNL1       -0.2191
     13 C         -25.6880    1.6140   26.4610 C.3     1  UNL1        0.0875
     14 C         -26.2500    2.9200   26.3950 C.2     1  UNL1        0.0562
     15 C         -25.6420    4.0930   27.1230 C.2     1  UNL1        0.2625
     16 N         -25.6140    5.2520   26.4490 N.am    1  UNL1       -0.2000
     17 C         -25.0260    6.4790   26.9630 C.3     1  UNL1        0.1388
     18 O         -25.1430    3.9660   28.2430 O.2     1  UNL1       -0.2687
     19 C         -27.4380    3.0910   25.6450 C.2     1  UNL1        0.1022
     20 N         -28.0750    2.0890   25.0030 N.2     1  UNL1       -0.2119
     21 C         -27.5430    0.8490   25.0790 C.2     1  UNL1        0.2341
     22 O         -28.1930   -0.2080   24.4770 O.2     1  UNL1       -0.4585
     23 C         -29.4600    0.0050   23.8660 C.3     1  UNL1        0.2423
     24 C         -30.0650   -1.3770   23.5730 C.3     1  UNL1        0.2292
     25 O         -30.7290   -1.8780   24.7210 O.3     1  UNL1       -0.2162
     26 C         -26.3540    0.5760   25.7770 C.3     1  UNL1        0.2414
     27 F         -25.8600   -0.6810   25.7950 F       1  UNL1       -0.2268
     28 C         -27.3211    0.2494   28.7942 C.2     1  UNL1        0.1891
     29 N         -24.9929    0.9285   28.7128 N.3     1  UNL1       -0.2109
     30 C         -21.3655    1.1947   27.7494 C.3     1  UNL1        0.0722
     31 O         -30.0734    5.1721   29.6506 O.2     1  UNL1       -0.2851
     32 C         -22.3847    1.8409   25.4212 C.3     1  UNL1        0.0897
     33 C         -28.0170    1.6011   28.9695 C.2     1  UNL1        0.0376
     34 C         -25.8305   -0.1584   29.2193 C.3     1  UNL1        0.1394
     35 C         -28.0393    3.9445   29.7680 C.2     1  UNL1        0.1279
     36 C         -29.3642    4.0607   29.2781 C.2     1  UNL1        0.2123
     37 C         -22.0347    0.3991   28.8801 C.3     1  UNL1        0.0188
     38 N         -27.3643    5.0576   30.3587 N.pl3   1  UNL1       -0.1247
     39 C         -30.0178    3.0278   28.6166 C.2     1  UNL1        0.0435
     40 N         -22.4415    1.2916   26.7658 N.3     1  UNL1       -0.2703
     41 C         -29.3378    1.7827   28.4736 C.2     1  UNL1        0.0063
     42 C         -24.7340    1.4395   27.5708 C.3     1  UNL1        0.0965
     43 C         -27.3864    2.7002   29.6054 C.2     1  UNL1        0.0242
     44 O         -27.9570   -0.5662   28.2370 O.2     1  UNL1       -0.2899
     45 C         -23.4919    1.9882   27.4771 C.3     1  UNL1        0.0901
@<TRIPOS>BOND
     1     1    34    1
     2     2     7    1
     3     2     1    1
     4     3     2    2
     5     4     3    1
     6     4     5    2
     7     5     6    1
     8     6     7    2
     9     8     1    1
    10     8     9    1
    11     8    12    1
    12     9    10    1
    13    10    11    1
    14    12    11    1
    15    13    42    1
    16    14    13    1
    17    14    15    1
    18    15    18    2
    19    16    17    1
    20    16    15    1
    21    19    14    2
    22    20    21    2
    23    20    19    1
    24    21    26    1
    25    22    21    1
    26    23    22    1
    27    24    23    1
    28    24    25    1
    29    26    27    1
    30    26    13    1
    31    28    33    1
    32    28    34    1
    33    30    37    1
    34    32    40    1
    35    33    43    1
    36    34    29    1
    37    35    38    1
    38    36    31    1
    39    36    35    1
    40    39    36    2
    41    40    45    1
    42    40    30    1
    43    41    39    1
    44    41    33    2
    45    42    45    1
    46    42    29    1
    47    43    35    2
    48    44    28    2
