@<TRIPOS>MOLECULE
outputs/IAG933/test6/raw/output_6068_IAG933_linker_design_.xyz
 39 43 0 0 0
SMALL
GASTEIGER

@<TRIPOS>ATOM
      1 C         -24.8550   -1.0120   30.1430 C.3     1  UNL1        0.2429
      2 C         -24.9730   -2.5050   29.7880 C.2     1  UNL1        0.0254
      3 C         -23.9060   -3.1730   29.1460 C.2     1  UNL1       -0.0003
      4 C         -23.9890   -4.5490   28.8530 C.2     1  UNL1       -0.0002
      5 C         -25.1370   -5.2800   29.2050 C.2     1  UNL1       -0.0000
      6 C         -26.2320   -4.6110   29.7840 C.2     1  UNL1       -0.0002
      7 C         -26.1550   -3.2320   30.0650 C.2     1  UNL1       -0.0003
      8 C         -25.3870   -0.6790   31.5710 C.3     1  UNL1        0.1239
      9 C         -25.1890    0.7730   32.0280 C.3     1  UNL1        0.0235
     10 C         -25.3360    0.6840   33.5440 C.3     1  UNL1        0.0204
     11 C         -24.8290   -0.7150   33.9050 C.3     1  UNL1        0.0889
     12 N         -24.7580   -1.4810   32.6460 N.3     1  UNL1       -0.2149
     13 C         -25.6880    1.6140   26.4610 C.3     1  UNL1        0.0926
     14 C         -26.2500    2.9200   26.3950 C.2     1  UNL1        0.0589
     15 C         -25.6420    4.0930   27.1230 C.2     1  UNL1        0.2628
     16 N         -25.6140    5.2520   26.4490 N.am    1  UNL1       -0.2000
     17 C         -25.0260    6.4790   26.9630 C.3     1  UNL1        0.1388
     18 O         -25.1430    3.9660   28.2430 O.2     1  UNL1       -0.2686
     19 C         -27.4380    3.0910   25.6450 C.2     1  UNL1        0.1025
     20 N         -28.0750    2.0890   25.0030 N.2     1  UNL1       -0.2118
     21 C         -27.5430    0.8490   25.0790 C.2     1  UNL1        0.2344
     22 O         -28.1930   -0.2080   24.4770 O.2     1  UNL1       -0.4585
     23 C         -29.4600    0.0050   23.8660 C.3     1  UNL1        0.2423
     24 C         -30.0650   -1.3770   23.5730 C.3     1  UNL1        0.2292
     25 O         -30.7290   -1.8780   24.7210 O.3     1  UNL1       -0.2162
     26 C         -26.3540    0.5760   25.7770 C.3     1  UNL1        0.2440
     27 F         -25.8600   -0.6810   25.7950 F       1  UNL1       -0.2265
     28 C         -23.6244    1.0065   27.7689 C.2     1  UNL1        0.0845
     29 C         -24.3476    1.4805   26.7454 C.2     1  UNL1       -0.0056
     30 F         -20.5192    2.4906   26.5989 F       1  UNL1       -0.2020
     31 N         -24.9476   -0.1730   29.1387 N.pl3   1  UNL1       -0.0299
     32 C         -23.7020    2.0135   25.5768 C.2     1  UNL1        0.0283
     33 C         -22.2955    1.2549   27.7095 C.2     1  UNL1        0.0675
     34 C         -22.5203    2.2265   25.5978 C.2     1  UNL1        0.1669
     35 C         -21.6170    0.5759   28.7434 C.3     1  UNL1        0.2924
     36 N         -22.5126   -0.2455   29.3398 N.2     1  UNL1       -0.0569
     37 F         -21.9913    2.7853   24.5271 F       1  UNL1       -0.2018
     38 C         -21.7325    2.0336   26.6249 C.2     1  UNL1        0.1678
     39 C         -23.7628    0.1790   28.7811 C.2     1  UNL1        0.3562
@<TRIPOS>BOND
     1     1    31    1
     2     2     7    1
     3     2     1    1
     4     3     2    2
     5     4     3    1
     6     4     5    2
     7     5     6    1
     8     6     7    2
     9     8     1    1
    10     8     9    1
    11     8    12    1
    12     9    10    1
    13    10    11    1
    14    12    11    1
    15    13    29    1
    16    14    13    1
    17    14    15    1
    18    15    18    2
    19    16    17    1
    20    16    15    1
    21    19    14    2
    22    20    21    2
    23    20    19    1
    24    21    26    1
    25    22    21    1
    26    23    22    1
    27    24    23    1
    28    24    25    1
    29    26    27    1
    30    26    13    1
    31    28    39    1
    32    29    28    2
    33    30    38    1
    34    32    34    2
    35    32    29    1
    36    33    28    1
    37    33    35    1
    38    34    38    1
    39    35    36    1
    40    37    34    1
    41    38    33    2
    42    39    31    1
    43    39    36    2
