@<TRIPOS>MOLECULE
No_607-gen_results/8p0m/2024-11-27-11-27-31/
 17 18 0 0 0
SMALL
GASTEIGER

@<TRIPOS>ATOM
      1 C         -28.0162   -0.8135   28.8779 C.ar    1  UNL1        0.0512
      2 C         -28.4690   -0.7850   29.8287 C.ar    1  UNL1        0.0609
      3 C         -26.5455   -0.8762   28.8500 C.ar    1  UNL1        0.1733
      4 C         -25.8041   -1.0324   30.0571 C.ar    1  UNL1        0.1744
      5 C         -27.9437   -0.9869   31.2075 C.ar    1  UNL1        0.0139
      6 C         -26.5825   -1.0386   31.2231 C.ar    1  UNL1        0.0337
      7 CL        -30.2809   -0.7232   29.8834 Cl      1  UNL1       -0.0821
      8 F         -24.5158   -1.0896   30.0531 F       1  UNL1       -0.2009
      9 O         -25.7699   -0.8494   27.7133 O.3     1  UNL1       -0.4515
     10 C         -25.1354    0.3464   27.3715 C.ar    1  UNL1        0.1411
     11 C         -23.9277    0.6288   27.8772 C.ar    1  UNL1        0.0329
     12 C         -23.2215    1.7830   27.3844 C.ar    1  UNL1       -0.0188
     13 C         -22.0249    2.2658   28.0134 C.3     1  UNL1        0.0311
     14 C         -25.6255    1.0807   26.2888 C.ar    1  UNL1        0.0127
     15 C         -23.7335    2.5400   26.3370 C.ar    1  UNL1       -0.0044
     16 C         -26.8140    0.6095   25.7339 C.3     1  UNL1        0.0342
     17 C         -24.9638    2.1588   25.7876 C.ar    1  UNL1       -0.0016
@<TRIPOS>BOND
     1     2     7    1
     2     4     8    1
     3     3     9    1
     4     9    10    1
     5    14    16    1
     6    13    12    1
     7    10    11   ar
     8    11    12   ar
     9    12    15   ar
    10    15    17   ar
    11    17    14   ar
    12    14    10   ar
    13     1     2   ar
    14     2     5   ar
    15     5     6   ar
    16     6     4   ar
    17     4     3   ar
    18     3     1   ar
