@<TRIPOS>MOLECULE
outputs/IAG933/test6/raw/output_6075_IAG933_linker_design_.xyz
 41 44 0 0 0
SMALL
GASTEIGER

@<TRIPOS>ATOM
      1 C         -24.8550   -1.0120   30.1430 C.3     1  UNL1        0.0439
      2 C         -24.9730   -2.5050   29.7880 C.2     1  UNL1       -0.0210
      3 C         -23.9060   -3.1730   29.1460 C.2     1  UNL1       -0.0042
      4 C         -23.9890   -4.5490   28.8530 C.2     1  UNL1       -0.0003
      5 C         -25.1370   -5.2800   29.2050 C.2     1  UNL1       -0.0000
      6 C         -26.2320   -4.6110   29.7840 C.2     1  UNL1       -0.0003
      7 C         -26.1550   -3.2320   30.0650 C.2     1  UNL1       -0.0042
      8 C         -25.3870   -0.6790   31.5710 C.3     1  UNL1        0.0770
      9 C         -25.1890    0.7730   32.0280 C.3     1  UNL1        0.0192
     10 C         -25.3360    0.6840   33.5440 C.3     1  UNL1        0.0202
     11 C         -24.8290   -0.7150   33.9050 C.3     1  UNL1        0.0887
     12 N         -24.7580   -1.4810   32.6460 N.3     1  UNL1       -0.2191
     13 C         -25.6880    1.6140   26.4610 C.3     1  UNL1        0.2314
     14 C         -26.2500    2.9200   26.3950 C.2     1  UNL1        0.0973
     15 C         -25.6420    4.0930   27.1230 C.2     1  UNL1        0.2662
     16 N         -25.6140    5.2520   26.4490 N.am    1  UNL1       -0.1999
     17 C         -25.0260    6.4790   26.9630 C.3     1  UNL1        0.1388
     18 O         -25.1430    3.9660   28.2430 O.2     1  UNL1       -0.2685
     19 C         -27.4380    3.0910   25.6450 C.2     1  UNL1        0.1060
     20 N         -28.0750    2.0890   25.0030 N.2     1  UNL1       -0.2116
     21 C         -27.5430    0.8490   25.0790 C.2     1  UNL1        0.2384
     22 O         -28.1930   -0.2080   24.4770 O.2     1  UNL1       -0.4584
     23 C         -29.4600    0.0050   23.8660 C.3     1  UNL1        0.2423
     24 C         -30.0650   -1.3770   23.5730 C.3     1  UNL1        0.2292
     25 O         -30.7290   -1.8780   24.7210 O.3     1  UNL1       -0.2162
     26 C         -26.3540    0.5760   25.7770 C.3     1  UNL1        0.2824
     27 F         -25.8600   -0.6810   25.7950 F       1  UNL1       -0.2225
     28 N         -26.6839    4.0221   31.0232 N.pl3   1  UNL1        0.2010
     29 N         -26.2774    1.9736   29.2997 N.3     1  UNL1       -0.1640
     30 N         -28.6355    3.2616   31.8579 N.pl3   1  UNL1        0.2010
     31 C         -23.5358    1.3328   27.6457 C.2     1  UNL1        0.3749
     32 C         -25.6630    0.8919   28.7051 C.3     1  UNL1        0.2380
     33 C         -27.4530    1.8976   30.1723 C.3     1  UNL1        0.2258
     34 C         -21.4830    1.3171   28.2438 C.2     1  UNL1        0.4272
     35 O         -21.4214    1.8405   27.0678 O.2     1  UNL1       -0.3938
     36 CL        -23.0390    2.2810   25.1373 Cl      1  UNL1       -0.0351
     37 N         -24.9295    1.2029   27.5944 N.pl3   1  UNL1       -0.1725
     38 C         -27.5845    3.1245   31.0370 C.2     1  UNL1        0.4712
     39 N         -22.6731    0.9455   28.6492 N.2     1  UNL1        0.0101
     40 C         -25.7364   -0.5462   28.9896 C.3     1  UNL1        0.0717
     41 C         -22.7244    1.8244   26.6631 C.2     1  UNL1        0.2895
@<TRIPOS>BOND
     1     1    40    1
     2     2     7    1
     3     2     1    1
     4     3     2    2
     5     4     3    1
     6     4     5    2
     7     5     6    1
     8     6     7    2
     9     8     1    1
    10     8     9    1
    11     8    12    1
    12     9    10    1
    13    10    11    1
    14    12    11    1
    15    13    37    1
    16    14    13    1
    17    14    15    1
    18    15    18    2
    19    16    17    1
    20    16    15    1
    21    19    14    2
    22    20    21    2
    23    20    19    1
    24    21    26    1
    25    22    21    1
    26    23    22    1
    27    24    23    1
    28    24    25    1
    29    26    27    1
    30    26    13    1
    31    28    38    2
    32    29    33    1
    33    31    39    1
    34    32    40    1
    35    32    29    1
    36    33    38    1
    37    34    39    2
    38    35    34    1
    39    36    41    1
    40    37    31    1
    41    37    32    1
    42    38    30    1
    43    41    35    1
    44    41    31    2
