@<TRIPOS>MOLECULE
outputs/IAG933/test6/raw/output_608_IAG933_linker_design_.xyz
 44 48 0 0 0
SMALL
GASTEIGER

@<TRIPOS>ATOM
      1 C         -24.8550   -1.0120   30.1430 C.3     1  UNL1        0.0607
      2 C         -24.9730   -2.5050   29.7880 C.2     1  UNL1       -0.0171
      3 C         -23.9060   -3.1730   29.1460 C.2     1  UNL1       -0.0039
      4 C         -23.9890   -4.5490   28.8530 C.2     1  UNL1       -0.0003
      5 C         -25.1370   -5.2800   29.2050 C.2     1  UNL1       -0.0000
      6 C         -26.2320   -4.6110   29.7840 C.2     1  UNL1       -0.0003
      7 C         -26.1550   -3.2320   30.0650 C.2     1  UNL1       -0.0039
      8 C         -25.3870   -0.6790   31.5710 C.3     1  UNL1        0.0808
      9 C         -25.1890    0.7730   32.0280 C.3     1  UNL1        0.0195
     10 C         -25.3360    0.6840   33.5440 C.3     1  UNL1        0.0203
     11 C         -24.8290   -0.7150   33.9050 C.3     1  UNL1        0.0887
     12 N         -24.7580   -1.4810   32.6460 N.3     1  UNL1       -0.2188
     13 C         -25.6880    1.6140   26.4610 C.2     1  UNL1        0.0391
     14 C         -26.2500    2.9200   26.3950 C.2     1  UNL1        0.0766
     15 C         -25.6420    4.0930   27.1230 C.2     1  UNL1        0.2664
     16 N         -25.6140    5.2520   26.4490 N.am    1  UNL1       -0.1997
     17 C         -25.0260    6.4790   26.9630 C.3     1  UNL1        0.1388
     18 O         -25.1430    3.9660   28.2430 O.2     1  UNL1       -0.2683
     19 C         -27.4380    3.0910   25.6450 C.2     1  UNL1        0.1067
     20 N         -28.0750    2.0890   25.0030 N.2     1  UNL1       -0.2081
     21 C         -27.5430    0.8490   25.0790 C.2     1  UNL1        0.2533
     22 O         -28.1930   -0.2080   24.4770 O.2     1  UNL1       -0.4558
     23 C         -29.4600    0.0050   23.8660 C.3     1  UNL1        0.2426
     24 C         -30.0650   -1.3770   23.5730 C.3     1  UNL1        0.2292
     25 O         -30.7290   -1.8780   24.7210 O.3     1  UNL1       -0.2162
     26 C         -26.3540    0.5760   25.7770 C.2     1  UNL1        0.1931
     27 F         -25.8600   -0.6810   25.7950 F       1  UNL1       -0.1992
     28 C         -24.6882    1.2126   27.3210 C.2     1  UNL1        0.0194
     29 N         -27.0598    1.6309   29.7613 N.am    1  UNL1       -0.1698
     30 C         -22.3838    1.0234   27.9466 C.2     1  UNL1        0.1503
     31 C         -23.3338    1.4245   27.0485 C.2     1  UNL1        0.0852
     32 CL        -22.7847    2.4129   25.5863 Cl      1  UNL1       -0.0799
     33 O         -27.3009   -0.4490   28.5710 O.2     1  UNL1       -0.2683
     34 O         -29.2758    1.8956   29.5332 O.3     1  UNL1       -0.3317
     35 C         -29.9849    3.3089   31.4189 C.3     1  UNL1        0.1197
     36 C         -30.3570    2.7212   30.0116 C.3     1  UNL1        0.1630
     37 C         -28.0273    2.6106   29.7584 C.3     1  UNL1        0.2608
     38 N         -29.5090    4.6920   31.6735 N.3     1  UNL1       -0.2139
     39 F         -21.0788    1.4790   27.8155 F       1  UNL1       -0.2033
     40 C         -24.1695   -0.0275   29.1909 C.2     1  UNL1       -0.0104
     41 C         -26.5208    0.5447   28.8993 C.2     1  UNL1        0.2667
     42 C         -22.8048    0.2169   29.0056 C.2     1  UNL1        0.0267
     43 C         -30.9357    4.2595   32.0039 C.3     1  UNL1        0.1086
     44 C         -25.1508    0.6360   28.4546 C.2     1  UNL1        0.0525
@<TRIPOS>BOND
     1     1    40    1
     2     2     7    1
     3     2     1    1
     4     3     2    2
     5     4     3    1
     6     4     5    2
     7     5     6    1
     8     6     7    2
     9     8     1    1
    10     8     9    1
    11     8    12    1
    12     9    10    1
    13    10    11    1
    14    12    11    1
    15    13    28    1
    16    14    13    1
    17    14    15    1
    18    15    18    2
    19    16    17    1
    20    16    15    1
    21    19    14    2
    22    20    21    2
    23    20    19    1
    24    21    26    1
    25    22    21    1
    26    23    22    1
    27    24    23    1
    28    24    25    1
    29    26    27    1
    30    26    13    2
    31    28    44    1
    32    30    42    2
    33    31    28    2
    34    31    30    1
    35    32    31    1
    36    33    41    2
    37    34    37    1
    38    34    36    1
    39    35    36    1
    40    35    38    1
    41    35    43    1
    42    37    29    1
    43    38    43    1
    44    39    30    1
    45    41    29    1
    46    42    40    1
    47    44    41    1
    48    44    40    2
