@<TRIPOS>MOLECULE
outputs/IAG933/test6/raw/output_6081_IAG933_linker_design_.xyz
 42 45 0 0 0
SMALL
GASTEIGER

@<TRIPOS>ATOM
      1 C         -24.8550   -1.0120   30.1430 C.3     1  UNL1        0.0424
      2 C         -24.9730   -2.5050   29.7880 C.2     1  UNL1       -0.0208
      3 C         -23.9060   -3.1730   29.1460 C.2     1  UNL1       -0.0042
      4 C         -23.9890   -4.5490   28.8530 C.2     1  UNL1       -0.0003
      5 C         -25.1370   -5.2800   29.2050 C.2     1  UNL1       -0.0000
      6 C         -26.2320   -4.6110   29.7840 C.2     1  UNL1       -0.0003
      7 C         -26.1550   -3.2320   30.0650 C.2     1  UNL1       -0.0042
      8 C         -25.3870   -0.6790   31.5710 C.3     1  UNL1        0.0771
      9 C         -25.1890    0.7730   32.0280 C.3     1  UNL1        0.0192
     10 C         -25.3360    0.6840   33.5440 C.3     1  UNL1        0.0202
     11 C         -24.8290   -0.7150   33.9050 C.3     1  UNL1        0.0887
     12 N         -24.7580   -1.4810   32.6460 N.3     1  UNL1       -0.2191
     13 C         -25.6880    1.6140   26.4610 C.3     1  UNL1        0.0921
     14 C         -26.2500    2.9200   26.3950 C.2     1  UNL1        0.0589
     15 C         -25.6420    4.0930   27.1230 C.2     1  UNL1        0.2628
     16 N         -25.6140    5.2520   26.4490 N.am    1  UNL1       -0.2000
     17 C         -25.0260    6.4790   26.9630 C.3     1  UNL1        0.1388
     18 O         -25.1430    3.9660   28.2430 O.2     1  UNL1       -0.2686
     19 C         -27.4380    3.0910   25.6450 C.2     1  UNL1        0.1025
     20 N         -28.0750    2.0890   25.0030 N.2     1  UNL1       -0.2118
     21 C         -27.5430    0.8490   25.0790 C.2     1  UNL1        0.2344
     22 O         -28.1930   -0.2080   24.4770 O.2     1  UNL1       -0.4585
     23 C         -29.4600    0.0050   23.8660 C.3     1  UNL1        0.2423
     24 C         -30.0650   -1.3770   23.5730 C.3     1  UNL1        0.2292
     25 O         -30.7290   -1.8780   24.7210 O.3     1  UNL1       -0.2162
     26 C         -26.3540    0.5760   25.7770 C.3     1  UNL1        0.2440
     27 F         -25.8600   -0.6810   25.7950 F       1  UNL1       -0.2265
     28 C         -25.0081   -0.0014   28.8632 C.3     1  UNL1        0.0305
     29 C         -29.5812    1.7686   28.4584 C.3     1  UNL1        0.0190
     30 C         -29.0918    0.5786   29.3827 C.3     1  UNL1        0.0015
     31 C         -23.9750    0.7781   27.9566 C.2     1  UNL1        0.0132
     32 C         -24.3107    1.4478   26.6918 C.2     1  UNL1       -0.0160
     33 C         -22.5617    0.8721   28.2930 C.2     1  UNL1        0.1914
     34 C         -27.5338    0.6538   29.3580 C.3     1  UNL1        0.0004
     35 C         -26.5113   -0.1222   28.3976 C.3     1  UNL1        0.0048
     36 C         -30.1488    2.8486   29.4873 C.3     1  UNL1        0.0919
     37 C         -21.5704    1.5002   27.3937 C.2     1  UNL1        0.0417
     38 C         -21.9551    1.9820   26.1176 C.2     1  UNL1        0.0029
     39 C         -31.0379    3.8290   28.6414 C.3     1  UNL1        0.0205
     40 N         -28.9562    3.4661   30.1734 N.3     1  UNL1       -0.1329
     41 O         -22.1668    0.2881   29.4084 O.2     1  UNL1       -0.2869
     42 C         -23.3152    1.9220   25.7543 C.2     1  UNL1       -0.0040
@<TRIPOS>BOND
     1     1    28    1
     2     2     7    1
     3     2     1    1
     4     3     2    2
     5     4     3    1
     6     4     5    2
     7     5     6    1
     8     6     7    2
     9     8     1    1
    10     8     9    1
    11     8    12    1
    12     9    10    1
    13    10    11    1
    14    12    11    1
    15    13    32    1
    16    14    13    1
    17    14    15    1
    18    15    18    2
    19    16    17    1
    20    16    15    1
    21    19    14    2
    22    20    21    2
    23    20    19    1
    24    21    26    1
    25    22    21    1
    26    23    22    1
    27    24    23    1
    28    24    25    1
    29    26    27    1
    30    26    13    1
    31    28    35    1
    32    29    30    1
    33    29    36    1
    34    31    33    1
    35    31    28    1
    36    32    31    2
    37    33    41    1
    38    34    30    1
    39    35    34    1
    40    36    39    1
    41    36    40    1
    42    37    33    2
    43    38    37    1
    44    42    38    2
    45    42    32    1
