@<TRIPOS>MOLECULE
outputs/IAG933/test6/raw/output_6082_IAG933_linker_design_.xyz
 40 43 0 0 0
SMALL
GASTEIGER

@<TRIPOS>ATOM
      1 C         -24.8550   -1.0120   30.1430 C.3     1  UNL1        0.1228
      2 C         -24.9730   -2.5050   29.7880 C.2     1  UNL1       -0.0024
      3 C         -23.9060   -3.1730   29.1460 C.2     1  UNL1       -0.0026
      4 C         -23.9890   -4.5490   28.8530 C.2     1  UNL1       -0.0003
      5 C         -25.1370   -5.2800   29.2050 C.2     1  UNL1       -0.0000
      6 C         -26.2320   -4.6110   29.7840 C.2     1  UNL1       -0.0003
      7 C         -26.1550   -3.2320   30.0650 C.2     1  UNL1       -0.0026
      8 C         -25.3870   -0.6790   31.5710 C.3     1  UNL1        0.0956
      9 C         -25.1890    0.7730   32.0280 C.3     1  UNL1        0.0209
     10 C         -25.3360    0.6840   33.5440 C.3     1  UNL1        0.0203
     11 C         -24.8290   -0.7150   33.9050 C.3     1  UNL1        0.0888
     12 N         -24.7580   -1.4810   32.6460 N.3     1  UNL1       -0.2174
     13 C         -25.6880    1.6140   26.4610 C.2     1  UNL1        0.0440
     14 C         -26.2500    2.9200   26.3950 C.2     1  UNL1        0.0767
     15 C         -25.6420    4.0930   27.1230 C.2     1  UNL1        0.2664
     16 N         -25.6140    5.2520   26.4490 N.am    1  UNL1       -0.1997
     17 C         -25.0260    6.4790   26.9630 C.3     1  UNL1        0.1388
     18 O         -25.1430    3.9660   28.2430 O.2     1  UNL1       -0.2683
     19 C         -27.4380    3.0910   25.6450 C.2     1  UNL1        0.1067
     20 N         -28.0750    2.0890   25.0030 N.2     1  UNL1       -0.2081
     21 C         -27.5430    0.8490   25.0790 C.2     1  UNL1        0.2533
     22 O         -28.1930   -0.2080   24.4770 O.2     1  UNL1       -0.4558
     23 C         -29.4600    0.0050   23.8660 C.3     1  UNL1        0.2426
     24 C         -30.0650   -1.3770   23.5730 C.3     1  UNL1        0.2292
     25 O         -30.7290   -1.8780   24.7210 O.3     1  UNL1       -0.2162
     26 C         -26.3540    0.5760   25.7770 C.2     1  UNL1        0.1932
     27 F         -25.8600   -0.6810   25.7950 F       1  UNL1       -0.1992
     28 N         -23.1741    0.2396   29.0078 N.ar    1  UNL1       -0.2100
     29 O         -22.9387    2.4431   25.5421 O.3     1  UNL1       -0.2840
     30 C         -24.3632    1.3116   27.1365 C.ar    1  UNL1        0.0759
     31 C         -26.8495    0.1785   28.9278 C.2     1  UNL1        0.4522
     32 C         -22.0233    0.5106   28.5233 C.ar    1  UNL1        0.2017
     33 C         -21.8634    1.2958   27.4183 C.ar    1  UNL1        0.2134
     34 O         -27.7271   -0.5731   28.4599 O.co2   1  UNL1       -0.2219
     35 O         -27.3277    1.2359   29.4779 O.co2   1  UNL1       -0.2219
     36 F         -20.5903    1.5560   27.0436 F       1  UNL1       -0.1977
     37 N         -25.4749   -0.1158   29.0468 N.am    1  UNL1       -0.2029
     38 C         -24.3282    0.4959   28.3364 C.ar    1  UNL1        0.1450
     39 N         -21.0581   -0.1160   29.0642 N.pl3   1  UNL1       -0.1046
     40 C         -23.0154    1.7411   26.7143 C.ar    1  UNL1        0.2285
@<TRIPOS>BOND
     1     1    37    1
     2     2     7    1
     3     2     1    1
     4     3     2    2
     5     4     3    1
     6     4     5    2
     7     5     6    1
     8     6     7    2
     9     8     1    1
    10     8     9    1
    11     8    12    1
    12     9    10    1
    13    10    11    1
    14    12    11    1
    15    13    30    1
    16    14    13    1
    17    14    15    1
    18    15    18    2
    19    16    17    1
    20    16    15    1
    21    19    14    2
    22    20    21    2
    23    20    19    1
    24    21    26    1
    25    22    21    1
    26    23    22    1
    27    24    23    1
    28    24    25    1
    29    26    27    1
    30    26    13    2
    31    29    40    1
    32    30    38   ar
    33    31    37   am
    34    31    35   ar
    35    32    28   ar
    36    32    39    1
    37    33    32   ar
    38    34    31   ar
    39    36    33    1
    40    38    28   ar
    41    38    37    1
    42    40    30   ar
    43    40    33   ar
