@<TRIPOS>MOLECULE
outputs/IAG933/test6/raw/output_6085_IAG933_linker_design_.xyz
 43 46 0 0 0
SMALL
GASTEIGER

@<TRIPOS>ATOM
      1 C         -24.8550   -1.0120   30.1430 C.3     1  UNL1        0.1767
      2 C         -24.9730   -2.5050   29.7880 C.2     1  UNL1        0.0132
      3 C         -23.9060   -3.1730   29.1460 C.2     1  UNL1       -0.0012
      4 C         -23.9890   -4.5490   28.8530 C.2     1  UNL1       -0.0002
      5 C         -25.1370   -5.2800   29.2050 C.2     1  UNL1       -0.0000
      6 C         -26.2320   -4.6110   29.7840 C.2     1  UNL1       -0.0002
      7 C         -26.1550   -3.2320   30.0650 C.2     1  UNL1       -0.0012
      8 C         -25.3870   -0.6790   31.5710 C.3     1  UNL1        0.1115
      9 C         -25.1890    0.7730   32.0280 C.3     1  UNL1        0.0225
     10 C         -25.3360    0.6840   33.5440 C.3     1  UNL1        0.0204
     11 C         -24.8290   -0.7150   33.9050 C.3     1  UNL1        0.0888
     12 N         -24.7580   -1.4810   32.6460 N.3     1  UNL1       -0.2159
     13 C         -25.6880    1.6140   26.4610 C.2     1  UNL1        0.1547
     14 C         -26.2500    2.9200   26.3950 C.2     1  UNL1        0.1057
     15 C         -25.6420    4.0930   27.1230 C.2     1  UNL1        0.2690
     16 N         -25.6140    5.2520   26.4490 N.am    1  UNL1       -0.1997
     17 C         -25.0260    6.4790   26.9630 C.3     1  UNL1        0.1388
     18 O         -25.1430    3.9660   28.2430 O.2     1  UNL1       -0.2682
     19 C         -27.4380    3.0910   25.6450 C.2     1  UNL1        0.1094
     20 N         -28.0750    2.0890   25.0030 N.2     1  UNL1       -0.2079
     21 C         -27.5430    0.8490   25.0790 C.2     1  UNL1        0.2560
     22 O         -28.1930   -0.2080   24.4770 O.2     1  UNL1       -0.4558
     23 C         -29.4600    0.0050   23.8660 C.3     1  UNL1        0.2426
     24 C         -30.0650   -1.3770   23.5730 C.3     1  UNL1        0.2292
     25 O         -30.7290   -1.8780   24.7210 O.3     1  UNL1       -0.2162
     26 C         -26.3540    0.5760   25.7770 C.2     1  UNL1        0.2220
     27 F         -25.8600   -0.6810   25.7950 F       1  UNL1       -0.1964
     28 C         -26.9460    2.5379   29.8493 C.3     1  UNL1        0.0405
     29 O         -29.3515    5.7981   30.6188 O.3     1  UNL1       -0.4485
     30 O         -28.7072    4.3953   29.1688 O.2     1  UNL1       -0.2501
     31 C         -24.4425    0.2640   28.2176 C.cat   1  UNL1        0.3902
     32 C         -28.2241    6.9148   28.6093 C.3     1  UNL1        0.0513
     33 C         -28.5265    4.5996   30.1991 C.2     1  UNL1        0.3173
     34 C         -29.2012    6.9657   29.8047 C.3     1  UNL1        0.2086
     35 C         -20.8212    1.3985   27.8588 C.3     1  UNL1        0.0750
     36 C         -23.3069    1.8676   26.9647 C.2     1  UNL1        0.1781
     37 C         -27.0844   -0.0285   28.8285 C.2     1  UNL1        0.1363
     38 C         -27.5029    3.6111   30.9319 C.3     1  UNL1        0.1143
     39 C         -27.7632    1.3514   29.2166 C.2     1  UNL1        0.0085
     40 C         -22.4063    1.1767   27.7475 C.2     1  UNL1        0.1680
     41 N         -23.0509    0.0288   28.4800 N.2     1  UNL1       -0.0760
     42 N         -25.5671   -0.2975   29.0021 N.pl3   1  UNL1       -0.1724
     43 N         -24.5617    1.2447   27.2547 N.pl3   1  UNL1       -0.1486
@<TRIPOS>BOND
     1     1    42    1
     2     2     7    1
     3     2     1    1
     4     3     2    2
     5     4     3    1
     6     4     5    2
     7     5     6    1
     8     6     7    2
     9     8     1    1
    10     8     9    1
    11     8    12    1
    12     9    10    1
    13    10    11    1
    14    12    11    1
    15    13    43    1
    16    14    13    1
    17    14    15    1
    18    15    18    2
    19    16    17    1
    20    16    15    1
    21    19    14    2
    22    20    21    2
    23    20    19    1
    24    21    26    1
    25    22    21    1
    26    23    22    1
    27    24    23    1
    28    24    25    1
    29    26    27    1
    30    26    13    2
    31    28    38    1
    32    30    33    2
    33    31    41    2
    34    31    42    1
    35    32    34    1
    36    33    29    1
    37    33    38    1
    38    34    29    1
    39    36    43    1
    40    36    40    2
    41    37    42    1
    42    37    39    2
    43    39    28    1
    44    40    35    1
    45    40    41    1
    46    43    31    1
