@<TRIPOS>MOLECULE
outputs/IAG933/test6/raw/output_609_IAG933_linker_design_.xyz
 45 50 0 0 0
SMALL
GASTEIGER

@<TRIPOS>ATOM
      1 C         -24.8550   -1.0120   30.1430 C.3     1  UNL1        0.0619
      2 C         -24.9730   -2.5050   29.7880 C.2     1  UNL1       -0.0170
      3 C         -23.9060   -3.1730   29.1460 C.2     1  UNL1       -0.0039
      4 C         -23.9890   -4.5490   28.8530 C.2     1  UNL1       -0.0003
      5 C         -25.1370   -5.2800   29.2050 C.2     1  UNL1       -0.0000
      6 C         -26.2320   -4.6110   29.7840 C.2     1  UNL1       -0.0003
      7 C         -26.1550   -3.2320   30.0650 C.2     1  UNL1       -0.0039
      8 C         -25.3870   -0.6790   31.5710 C.3     1  UNL1        0.0809
      9 C         -25.1890    0.7730   32.0280 C.3     1  UNL1        0.0195
     10 C         -25.3360    0.6840   33.5440 C.3     1  UNL1        0.0203
     11 C         -24.8290   -0.7150   33.9050 C.3     1  UNL1        0.0887
     12 N         -24.7580   -1.4810   32.6460 N.3     1  UNL1       -0.2188
     13 C         -25.6880    1.6140   26.4610 C.2     1  UNL1        0.0407
     14 C         -26.2500    2.9200   26.3950 C.2     1  UNL1        0.0745
     15 C         -25.6420    4.0930   27.1230 C.2     1  UNL1        0.2246
     16 N         -25.6140    5.2520   26.4490 N.2     1  UNL1       -0.2356
     17 C         -25.0260    6.4790   26.9630 C.3     1  UNL1        0.1550
     18 O         -25.1430    3.9660   28.2430 O.2     1  UNL1       -0.4287
     19 C         -27.4380    3.0910   25.6450 C.2     1  UNL1        0.1068
     20 N         -28.0750    2.0890   25.0030 N.2     1  UNL1       -0.2081
     21 C         -27.5430    0.8490   25.0790 C.2     1  UNL1        0.2533
     22 O         -28.1930   -0.2080   24.4770 O.2     1  UNL1       -0.4558
     23 C         -29.4600    0.0050   23.8660 C.3     1  UNL1        0.2426
     24 C         -30.0650   -1.3770   23.5730 C.3     1  UNL1        0.2292
     25 O         -30.7290   -1.8780   24.7210 O.3     1  UNL1       -0.2162
     26 C         -26.3540    0.5760   25.7770 C.2     1  UNL1        0.1931
     27 F         -25.8600   -0.6810   25.7950 F       1  UNL1       -0.1992
     28 C         -22.3442   -1.0308   29.7066 C.2     1  UNL1       -0.0025
     29 N         -26.1081    3.1993   30.3751 N.3     1  UNL1       -0.1420
     30 C         -26.7570    5.8993   29.4402 C.3     1  UNL1        0.0160
     31 C         -21.1552   -0.6578   28.9654 C.2     1  UNL1        0.0021
     32 C         -26.3164    4.1495   31.2827 C.3     1  UNL1        0.1689
     33 C         -27.5073    7.1738   29.7940 C.3     1  UNL1        0.0028
     34 F         -22.3978    2.3534   27.2931 F       1  UNL1       -0.2028
     35 C         -28.0177    4.9618   29.8866 C.3     1  UNL1        0.0588
     36 C         -28.7724    6.4035   30.0534 C.3     1  UNL1        0.0161
     37 C         -27.9323    5.5777   32.2432 C.3     1  UNL1        0.0734
     38 C         -25.1816    3.0616   29.3203 C.3     1  UNL1        0.3481
     39 N         -24.3077    2.0760   29.4327 N.pl3   1  UNL1       -0.1812
     40 N         -27.7331    4.3932   31.2787 N.3     1  UNL1       -0.2592
     41 C         -21.2178    0.5084   28.1830 C.2     1  UNL1        0.0310
     42 C         -23.4939    1.0322   29.0045 C.2     1  UNL1        0.0940
     43 C         -23.5585   -0.3029   29.6073 C.2     1  UNL1        0.0001
     44 C         -22.3877    1.3163   28.1484 C.2     1  UNL1        0.1547
     45 C         -29.0706    6.4347   31.5898 C.3     1  UNL1        0.0187
@<TRIPOS>BOND
     1     1    43    1
     2     2     7    1
     3     2     1    1
     4     3     2    2
     5     4     3    1
     6     4     5    2
     7     5     6    1
     8     6     7    2
     9     8     1    1
    10     8     9    1
    11     8    12    1
    12     9    10    1
    13    10    11    1
    14    12    11    1
    15    14    13    1
    16    14    15    1
    17    15    18    1
    18    16    17    1
    19    16    15    2
    20    19    14    2
    21    20    21    2
    22    20    19    1
    23    21    26    1
    24    22    21    1
    25    23    22    1
    26    24    23    1
    27    24    25    1
    28    26    27    1
    29    26    13    2
    30    29    32    1
    31    30    33    1
    32    31    28    2
    33    34    44    1
    34    35    30    1
    35    35    36    1
    36    35    40    1
    37    36    33    1
    38    36    45    1
    39    38    18    1
    40    38    39    1
    41    38    29    1
    42    40    32    1
    43    40    37    1
    44    41    31    1
    45    42    39    1
    46    42    43    2
    47    43    28    1
    48    44    41    2
    49    44    42    1
    50    45    37    1
