@<TRIPOS>MOLECULE
outputs/IAG933/test6/raw/output_6096_IAG933_linker_design_.xyz
 44 47 0 0 0
SMALL
GASTEIGER

@<TRIPOS>ATOM
      1 C         -24.8550   -1.0120   30.1430 C.3     1  UNL1        0.0754
      2 C         -24.9730   -2.5050   29.7880 C.2     1  UNL1       -0.0158
      3 C         -23.9060   -3.1730   29.1460 C.2     1  UNL1       -0.0039
      4 C         -23.9890   -4.5490   28.8530 C.2     1  UNL1       -0.0003
      5 C         -25.1370   -5.2800   29.2050 C.2     1  UNL1       -0.0000
      6 C         -26.2320   -4.6110   29.7840 C.2     1  UNL1       -0.0003
      7 C         -26.1550   -3.2320   30.0650 C.2     1  UNL1       -0.0039
      8 C         -25.3870   -0.6790   31.5710 C.3     1  UNL1        0.0821
      9 C         -25.1890    0.7730   32.0280 C.3     1  UNL1        0.0196
     10 C         -25.3360    0.6840   33.5440 C.3     1  UNL1        0.0203
     11 C         -24.8290   -0.7150   33.9050 C.3     1  UNL1        0.0887
     12 N         -24.7580   -1.4810   32.6460 N.3     1  UNL1       -0.2188
     13 C         -25.6880    1.6140   26.4610 C.3     1  UNL1        0.0924
     14 C         -26.2500    2.9200   26.3950 C.2     1  UNL1        0.0568
     15 C         -25.6420    4.0930   27.1230 C.2     1  UNL1        0.2625
     16 N         -25.6140    5.2520   26.4490 N.am    1  UNL1       -0.2000
     17 C         -25.0260    6.4790   26.9630 C.3     1  UNL1        0.1388
     18 O         -25.1430    3.9660   28.2430 O.2     1  UNL1       -0.2687
     19 C         -27.4380    3.0910   25.6450 C.2     1  UNL1        0.1022
     20 N         -28.0750    2.0890   25.0030 N.2     1  UNL1       -0.2119
     21 C         -27.5430    0.8490   25.0790 C.2     1  UNL1        0.2341
     22 O         -28.1930   -0.2080   24.4770 O.2     1  UNL1       -0.4585
     23 C         -29.4600    0.0050   23.8660 C.3     1  UNL1        0.2423
     24 C         -30.0650   -1.3770   23.5730 C.3     1  UNL1        0.2292
     25 O         -30.7290   -1.8780   24.7210 O.3     1  UNL1       -0.2162
     26 C         -26.3540    0.5760   25.7770 C.3     1  UNL1        0.2419
     27 F         -25.8600   -0.6810   25.7950 F       1  UNL1       -0.2268
     28 C         -22.8557    2.3372   26.1464 C.3     1  UNL1        0.4185
     29 C         -27.8415    0.4988   29.5186 C.3     1  UNL1        0.0241
     30 F         -23.4027    3.3124   25.5575 F       1  UNL1       -0.1660
     31 C         -22.7296   -0.0399   29.1926 C.2     1  UNL1        0.1256
     32 C         -26.6373   -0.0174   28.5643 C.3     1  UNL1        0.0909
     33 C         -29.2511    0.2417   29.0074 C.3     1  UNL1        0.0373
     34 F         -21.4800    2.3332   25.9379 F       1  UNL1       -0.1660
     35 C         -29.6111    1.6226   28.5740 C.3     1  UNL1        0.1822
     36 N         -21.8155   -0.7943   29.8494 N.pl3   1  UNL1       -0.1248
     37 C         -24.7092    1.1475   27.4612 C.3     1  UNL1        0.1087
     38 F         -23.2223    1.8815   24.9592 F       1  UNL1       -0.1660
     39 F         -20.9475    0.9442   28.0459 F       1  UNL1       -0.2030
     40 C         -22.2650    0.8367   28.1015 C.2     1  UNL1        0.1591
     41 C         -23.2740    1.4700   27.2721 C.2     1  UNL1        0.0961
     42 N         -25.0884    0.3855   28.4260 N.pl3   1  UNL1       -0.3067
     43 O         -28.6611    2.6026   28.8087 O.3     1  UNL1       -0.2204
     44 C         -24.2339   -0.1508   29.2592 C.2     1  UNL1        0.0493
@<TRIPOS>BOND
     1     1    44    1
     2     2     7    1
     3     2     1    1
     4     3     2    2
     5     4     3    1
     6     4     5    2
     7     5     6    1
     8     6     7    2
     9     8     1    1
    10     8     9    1
    11     8    12    1
    12     9    10    1
    13    10    11    1
    14    12    11    1
    15    13    14    1
    16    13    37    1
    17    14    15    1
    18    15    18    2
    19    16    17    1
    20    16    15    1
    21    19    14    2
    22    20    21    2
    23    20    19    1
    24    21    26    1
    25    22    21    1
    26    23    22    1
    27    24    23    1
    28    24    25    1
    29    26    27    1
    30    26    13    1
    31    28    41    1
    32    30    28    1
    33    31    44    2
    34    31    36    1
    35    32    29    1
    36    33    29    1
    37    34    28    1
    38    35    43    1
    39    35    33    1
    40    37    41    1
    41    37    42    1
    42    38    28    1
    43    39    40    1
    44    40    31    1
    45    41    40    2
    46    42    32    1
    47    42    44    1
