@<TRIPOS>MOLECULE
outputs/IAG933/test6/raw/output_61_IAG933_linker_design_.xyz
 44 48 0 0 0
SMALL
GASTEIGER

@<TRIPOS>ATOM
      1 C         -24.8550   -1.0120   30.1430 C.3     1  UNL1        0.1986
      2 C         -24.9730   -2.5050   29.7880 C.2     1  UNL1        0.0213
      3 C         -23.9060   -3.1730   29.1460 C.2     1  UNL1       -0.0004
      4 C         -23.9890   -4.5490   28.8530 C.2     1  UNL1       -0.0002
      5 C         -25.1370   -5.2800   29.2050 C.2     1  UNL1       -0.0000
      6 C         -26.2320   -4.6110   29.7840 C.2     1  UNL1       -0.0002
      7 C         -26.1550   -3.2320   30.0650 C.2     1  UNL1       -0.0004
      8 C         -25.3870   -0.6790   31.5710 C.3     1  UNL1        0.1197
      9 C         -25.1890    0.7730   32.0280 C.3     1  UNL1        0.0233
     10 C         -25.3360    0.6840   33.5440 C.3     1  UNL1        0.0204
     11 C         -24.8290   -0.7150   33.9050 C.3     1  UNL1        0.0889
     12 N         -24.7580   -1.4810   32.6460 N.3     1  UNL1       -0.2150
     13 C         -25.6880    1.6140   26.4610 C.3     1  UNL1        0.0923
     14 C         -26.2500    2.9200   26.3950 C.2     1  UNL1        0.0587
     15 C         -25.6420    4.0930   27.1230 C.2     1  UNL1        0.2627
     16 N         -25.6140    5.2520   26.4490 N.am    1  UNL1       -0.2000
     17 C         -25.0260    6.4790   26.9630 C.3     1  UNL1        0.1388
     18 O         -25.1430    3.9660   28.2430 O.2     1  UNL1       -0.2686
     19 C         -27.4380    3.0910   25.6450 C.2     1  UNL1        0.1025
     20 N         -28.0750    2.0890   25.0030 N.2     1  UNL1       -0.2118
     21 C         -27.5430    0.8490   25.0790 C.2     1  UNL1        0.2344
     22 O         -28.1930   -0.2080   24.4770 O.2     1  UNL1       -0.4585
     23 C         -29.4600    0.0050   23.8660 C.3     1  UNL1        0.2423
     24 C         -30.0650   -1.3770   23.5730 C.3     1  UNL1        0.2292
     25 O         -30.7290   -1.8780   24.7210 O.3     1  UNL1       -0.2162
     26 C         -26.3540    0.5760   25.7770 C.3     1  UNL1        0.2438
     27 F         -25.8600   -0.6810   25.7950 F       1  UNL1       -0.2265
     28 O         -21.3367    2.0842   27.8209 O.2     1  UNL1       -0.2446
     29 N         -25.0070   -0.1058   29.0112 N.pl3   1  UNL1       -0.1840
     30 C         -28.9990    1.7831   28.0130 C.3     1  UNL1        0.2128
     31 C         -28.0510    2.5246   30.0726 C.3     1  UNL1        0.0746
     32 C         -26.1532   -0.1444   28.3559 C.3     1  UNL1        0.2201
     33 O         -29.8915    0.6951   27.8938 O.3     1  UNL1       -0.2050
     34 C         -23.6240    2.0389   25.3311 C.3     1  UNL1        0.2320
     35 C         -23.5890    1.1796   27.6394 C.2     1  UNL1        0.1581
     36 C         -28.6705    3.7276   29.3654 C.3     1  UNL1        0.0215
     37 O         -22.2024    1.9636   25.7170 O.3     1  UNL1       -0.4406
     38 N         -28.0393    1.3854   29.0599 N.3     1  UNL1       -0.2445
     39 C         -22.3285    1.7622   27.0874 C.2     1  UNL1        0.3485
     40 C         -27.5425   -0.0809   28.8712 C.3     1  UNL1        0.1254
     41 C         -24.2925    1.6055   26.4070 C.2     1  UNL1        0.0199
     42 C         -23.8425    0.5798   28.7763 C.2     1  UNL1        0.3821
     43 N         -22.9120    0.6849   29.7757 N.2     1  UNL1        0.1934
     44 C         -29.6609    3.0923   28.3517 C.3     1  UNL1        0.0515
@<TRIPOS>BOND
     1     1    29    1
     2     2     7    1
     3     2     1    1
     4     3     2    2
     5     4     3    1
     6     4     5    2
     7     5     6    1
     8     6     7    2
     9     8     1    1
    10     8     9    1
    11     8    12    1
    12     9    10    1
    13    10    11    1
    14    12    11    1
    15    13    41    1
    16    14    13    1
    17    14    15    1
    18    15    18    2
    19    16    17    1
    20    16    15    1
    21    19    14    2
    22    20    21    2
    23    20    19    1
    24    21    26    1
    25    22    21    1
    26    23    22    1
    27    24    23    1
    28    24    25    1
    29    26    27    1
    30    26    13    1
    31    30    33    1
    32    30    44    1
    33    30    38    1
    34    32    40    1
    35    32    29    1
    36    34    37    1
    37    34    41    1
    38    35    42    1
    39    36    31    1
    40    37    39    1
    41    38    31    1
    42    39    35    1
    43    39    28    2
    44    40    38    1
    45    41    35    2
    46    42    29    1
    47    42    43    2
    48    44    36    1
