@<TRIPOS>MOLECULE
outputs/IAG933/test6/raw/output_6100_IAG933_linker_design_.xyz
 43 47 0 0 0
SMALL
GASTEIGER

@<TRIPOS>ATOM
      1 C         -24.8550   -1.0120   30.1430 C.3     1  UNL1        0.0814
      2 C         -24.9730   -2.5050   29.7880 C.2     1  UNL1       -0.0174
      3 C         -23.9060   -3.1730   29.1460 C.2     1  UNL1       -0.0041
      4 C         -23.9890   -4.5490   28.8530 C.2     1  UNL1       -0.0003
      5 C         -25.1370   -5.2800   29.2050 C.2     1  UNL1       -0.0000
      6 C         -26.2320   -4.6110   29.7840 C.2     1  UNL1       -0.0003
      7 C         -26.1550   -3.2320   30.0650 C.2     1  UNL1       -0.0041
      8 C         -25.3870   -0.6790   31.5710 C.3     1  UNL1        0.0806
      9 C         -25.1890    0.7730   32.0280 C.3     1  UNL1        0.0193
     10 C         -25.3360    0.6840   33.5440 C.3     1  UNL1        0.0202
     11 C         -24.8290   -0.7150   33.9050 C.3     1  UNL1        0.0887
     12 N         -24.7580   -1.4810   32.6460 N.3     1  UNL1       -0.2190
     13 C         -25.6880    1.6140   26.4610 C.2     1  UNL1        0.0306
     14 C         -26.2500    2.9200   26.3950 C.2     1  UNL1        0.0717
     15 C         -25.6420    4.0930   27.1230 C.2     1  UNL1        0.2231
     16 N         -25.6140    5.2520   26.4490 N.2     1  UNL1       -0.2356
     17 C         -25.0260    6.4790   26.9630 C.3     1  UNL1        0.1550
     18 O         -25.1430    3.9660   28.2430 O.2     1  UNL1       -0.4439
     19 C         -27.4380    3.0910   25.6450 C.2     1  UNL1        0.1065
     20 N         -28.0750    2.0890   25.0030 N.2     1  UNL1       -0.2081
     21 C         -27.5430    0.8490   25.0790 C.2     1  UNL1        0.2530
     22 O         -28.1930   -0.2080   24.4770 O.2     1  UNL1       -0.4558
     23 C         -29.4600    0.0050   23.8660 C.3     1  UNL1        0.2426
     24 C         -30.0650   -1.3770   23.5730 C.3     1  UNL1        0.2292
     25 O         -30.7290   -1.8780   24.7210 O.3     1  UNL1       -0.2162
     26 C         -26.3540    0.5760   25.7770 C.2     1  UNL1        0.1904
     27 F         -25.8600   -0.6810   25.7950 F       1  UNL1       -0.1995
     28 O         -22.6723   -0.0270   29.5713 O.3     1  UNL1       -0.3375
     29 C         -24.0580   -0.1209   29.3952 C.3     1  UNL1        0.1846
     30 C         -22.5407    1.0681   28.8990 C.3     1  UNL1        0.1789
     31 C         -26.1224    3.7414   30.7065 C.2     1  UNL1        0.0160
     32 C         -23.0171    1.8167   26.6689 C.3     1  UNL1        0.0586
     33 C         -24.7870    2.9935   30.2927 C.2     1  UNL1        0.0328
     34 N         -24.6127    1.1041   28.5786 N.3     1  UNL1       -0.2108
     35 N         -25.1214    4.7345   34.1831 N.am    1  UNL1       -0.0853
     36 C         -24.4737    2.6187   28.8048 C.3     1  UNL1        0.2551
     37 C         -26.2446    4.4667   32.1410 C.3     1  UNL1        0.2526
     38 C         -24.1714    1.2564   27.2432 C.3     1  UNL1        0.0909
     39 O         -27.0852    5.7881   32.2229 O.3     1  UNL1       -0.2082
     40 C         -25.0704    5.0660   32.9809 C.2     1  UNL1        0.2955
     41 F         -20.7976    1.7146   27.4503 F       1  UNL1       -0.2345
     42 O         -24.2683    5.9733   32.4559 O.2     1  UNL1       -0.2685
     43 C         -21.8710    1.4172   27.6299 C.3     1  UNL1        0.1921
@<TRIPOS>BOND
     1     1     2    1
     2     2     7    1
     3     3     2    2
     4     4     3    1
     5     4     5    2
     6     5     6    1
     7     6     7    2
     8     8     1    1
     9     8     9    1
    10     8    12    1
    11     9    10    1
    12    10    11    1
    13    12    11    1
    14    13    38    1
    15    14    13    1
    16    14    15    1
    17    15    18    1
    18    16    17    1
    19    16    15    2
    20    18    36    1
    21    19    14    2
    22    20    21    2
    23    20    19    1
    24    21    26    1
    25    22    21    1
    26    23    22    1
    27    24    23    1
    28    24    25    1
    29    26    27    1
    30    26    13    2
    31    29    28    1
    32    29     1    1
    33    30    28    1
    34    31    37    1
    35    32    38    1
    36    32    43    1
    37    33    31    2
    38    34    36    1
    39    34    29    1
    40    36    33    1
    41    37    39    1
    42    37    40    1
    43    38    34    1
    44    40    35    1
    45    41    43    1
    46    42    40    2
    47    43    30    1
