@<TRIPOS>MOLECULE
outputs/IAG933/test6/raw/output_6102_IAG933_linker_design_.xyz
 46 49 0 0 0
SMALL
GASTEIGER

@<TRIPOS>ATOM
      1 C         -24.8550   -1.0120   30.1430 C.3     1  UNL1        0.0723
      2 C         -24.9730   -2.5050   29.7880 C.2     1  UNL1       -0.0161
      3 C         -23.9060   -3.1730   29.1460 C.2     1  UNL1       -0.0039
      4 C         -23.9890   -4.5490   28.8530 C.2     1  UNL1       -0.0003
      5 C         -25.1370   -5.2800   29.2050 C.2     1  UNL1       -0.0000
      6 C         -26.2320   -4.6110   29.7840 C.2     1  UNL1       -0.0003
      7 C         -26.1550   -3.2320   30.0650 C.2     1  UNL1       -0.0039
      8 C         -25.3870   -0.6790   31.5710 C.3     1  UNL1        0.0818
      9 C         -25.1890    0.7730   32.0280 C.3     1  UNL1        0.0196
     10 C         -25.3360    0.6840   33.5440 C.3     1  UNL1        0.0203
     11 C         -24.8290   -0.7150   33.9050 C.3     1  UNL1        0.0887
     12 N         -24.7580   -1.4810   32.6460 N.3     1  UNL1       -0.2188
     13 C         -25.6880    1.6140   26.4610 C.2     1  UNL1        0.0342
     14 C         -26.2500    2.9200   26.3950 C.2     1  UNL1        0.0762
     15 C         -25.6420    4.0930   27.1230 C.2     1  UNL1        0.2664
     16 N         -25.6140    5.2520   26.4490 N.am    1  UNL1       -0.1997
     17 C         -25.0260    6.4790   26.9630 C.3     1  UNL1        0.1388
     18 O         -25.1430    3.9660   28.2430 O.2     1  UNL1       -0.2683
     19 C         -27.4380    3.0910   25.6450 C.2     1  UNL1        0.1067
     20 N         -28.0750    2.0890   25.0030 N.2     1  UNL1       -0.2081
     21 C         -27.5430    0.8490   25.0790 C.2     1  UNL1        0.2533
     22 O         -28.1930   -0.2080   24.4770 O.2     1  UNL1       -0.4558
     23 C         -29.4600    0.0050   23.8660 C.3     1  UNL1        0.2426
     24 C         -30.0650   -1.3770   23.5730 C.3     1  UNL1        0.2292
     25 O         -30.7290   -1.8780   24.7210 O.3     1  UNL1       -0.2162
     26 C         -26.3540    0.5760   25.7770 C.2     1  UNL1        0.1927
     27 F         -25.8600   -0.6810   25.7950 F       1  UNL1       -0.1993
     28 C         -21.7519    1.5375   27.3772 C.3     1  UNL1        0.0304
     29 O         -28.8836    4.5044   29.1947 O.3     1  UNL1       -0.4458
     30 N         -26.9907   -0.4475   29.2584 N.am    1  UNL1       -0.1871
     31 C         -25.5388   -0.1307   29.1684 C.2     1  UNL1        0.0402
     32 C         -30.0043    3.7207   28.6063 C.3     1  UNL1        0.2389
     33 C         -24.5517    1.2586   27.3343 C.2     1  UNL1       -0.0166
     34 O         -29.1953   -0.7958   28.7288 O.2     1  UNL1       -0.2729
     35 C         -28.9336    4.7218   30.5246 C.2     1  UNL1        0.3176
     36 C         -23.4776    1.0855   29.5632 C.3     1  UNL1        0.1917
     37 C         -29.7982    2.0991   28.9522 C.3     1  UNL1        0.1754
     38 C         -28.8978    1.8896   30.2614 C.3     1  UNL1        0.0464
     39 O         -30.4848    1.4563   27.7906 O.3     1  UNL1       -0.2213
     40 O         -27.9843    5.1293   31.1641 O.2     1  UNL1       -0.2501
     41 C         -30.2138    4.3395   31.1604 C.3     1  UNL1        0.1212
     42 C         -28.3913    1.4621   29.0142 C.3     1  UNL1        0.1126
     43 O         -22.5859    0.0647   29.6410 O.3     1  UNL1       -0.2197
     44 C         -23.1235    1.5019   26.6892 C.2     1  UNL1       -0.0295
     45 C         -24.6416    0.7313   28.6579 C.3     1  UNL1        0.0891
     46 C         -28.2182   -0.0311   28.9522 C.2     1  UNL1        0.2471
@<TRIPOS>BOND
     1     1    31    1
     2     2     7    1
     3     2     1    1
     4     3     2    2
     5     4     3    1
     6     4     5    2
     7     5     6    1
     8     6     7    2
     9     8     1    1
    10     8     9    1
    11     8    12    1
    12     9    10    1
    13    10    11    1
    14    12    11    1
    15    13    33    1
    16    14    13    1
    17    14    15    1
    18    15    18    2
    19    16    17    1
    20    16    15    1
    21    19    14    2
    22    20    21    2
    23    20    19    1
    24    21    26    1
    25    22    21    1
    26    23    22    1
    27    24    23    1
    28    24    25    1
    29    26    27    1
    30    26    13    2
    31    29    35    1
    32    31    30    2
    33    32    37    1
    34    32    29    1
    35    33    45    1
    36    34    46    2
    37    35    41    1
    38    35    40    2
    39    36    43    1
    40    37    39    1
    41    37    42    1
    42    37    38    1
    43    42    46    1
    44    42    38    1
    45    44    33    2
    46    44    28    1
    47    45    31    1
    48    45    36    1
    49    46    30    1
