@<TRIPOS>MOLECULE
outputs/IAG933/test6/raw/output_6103_IAG933_linker_design_.xyz
 44 48 0 0 0
SMALL
GASTEIGER

@<TRIPOS>ATOM
      1 C         -24.8550   -1.0120   30.1430 C.3     1  UNL1        0.0798
      2 C         -24.9730   -2.5050   29.7880 C.2     1  UNL1       -0.0155
      3 C         -23.9060   -3.1730   29.1460 C.2     1  UNL1       -0.0039
      4 C         -23.9890   -4.5490   28.8530 C.2     1  UNL1       -0.0003
      5 C         -25.1370   -5.2800   29.2050 C.2     1  UNL1       -0.0000
      6 C         -26.2320   -4.6110   29.7840 C.2     1  UNL1       -0.0003
      7 C         -26.1550   -3.2320   30.0650 C.2     1  UNL1       -0.0039
      8 C         -25.3870   -0.6790   31.5710 C.3     1  UNL1        0.0824
      9 C         -25.1890    0.7730   32.0280 C.3     1  UNL1        0.0196
     10 C         -25.3360    0.6840   33.5440 C.3     1  UNL1        0.0203
     11 C         -24.8290   -0.7150   33.9050 C.3     1  UNL1        0.0887
     12 N         -24.7580   -1.4810   32.6460 N.3     1  UNL1       -0.2187
     13 C         -25.6880    1.6140   26.4610 C.3     1  UNL1        0.0944
     14 C         -26.2500    2.9200   26.3950 C.2     1  UNL1        0.0590
     15 C         -25.6420    4.0930   27.1230 C.2     1  UNL1        0.2628
     16 N         -25.6140    5.2520   26.4490 N.am    1  UNL1       -0.2000
     17 C         -25.0260    6.4790   26.9630 C.3     1  UNL1        0.1388
     18 O         -25.1430    3.9660   28.2430 O.2     1  UNL1       -0.2686
     19 C         -27.4380    3.0910   25.6450 C.2     1  UNL1        0.1025
     20 N         -28.0750    2.0890   25.0030 N.2     1  UNL1       -0.2118
     21 C         -27.5430    0.8490   25.0790 C.2     1  UNL1        0.2344
     22 O         -28.1930   -0.2080   24.4770 O.2     1  UNL1       -0.4585
     23 C         -29.4600    0.0050   23.8660 C.3     1  UNL1        0.2423
     24 C         -30.0650   -1.3770   23.5730 C.3     1  UNL1        0.2292
     25 O         -30.7290   -1.8780   24.7210 O.3     1  UNL1       -0.2162
     26 C         -26.3540    0.5760   25.7770 C.3     1  UNL1        0.2441
     27 F         -25.8600   -0.6810   25.7950 F       1  UNL1       -0.2265
     28 N         -26.8154   -0.1747   28.5597 N.pl3   1  UNL1       -0.2075
     29 C         -31.1319    0.7148   29.1425 C.3     1  UNL1        0.2961
     30 C         -24.4856   -0.1741   29.1705 C.ar    1  UNL1        0.0809
     31 C         -25.4922    0.3385   28.3269 C.ar    1  UNL1        0.0790
     32 C         -28.7935    1.3740   29.6835 C.3     1  UNL1        0.1972
     33 C         -28.0350    0.2096   29.0640 C.3     1  UNL1        0.2409
     34 C         -23.6129    1.4706   27.0313 C.ar    1  UNL1        0.1119
     35 N         -23.1720    0.1145   28.9505 N.ar    1  UNL1       -0.2202
     36 O         -30.0765    1.6911   29.0811 O.3     1  UNL1       -0.3221
     37 C         -29.9218   -1.2628   28.8936 C.3     1  UNL1        0.2974
     38 C         -23.1559    2.1817   25.8996 C.1     1  UNL1        0.1040
     39 F         -21.4373    1.3128   27.8033 F       1  UNL1       -0.1825
     40 O         -30.8635   -0.3726   28.2666 O.3     1  UNL1       -0.2980
     41 N         -22.8439    2.7678   24.9309 N.1     1  UNL1       -0.1907
     42 C         -22.7554    0.9633   27.9255 C.ar    1  UNL1        0.2314
     43 C         -24.8756    1.1906   27.2482 C.ar    1  UNL1        0.0144
     44 O         -28.7801   -1.0235   29.6154 O.3     1  UNL1       -0.3060
@<TRIPOS>BOND
     1     1    30    1
     2     2     7    1
     3     2     1    1
     4     3     2    2
     5     4     3    1
     6     4     5    2
     7     5     6    1
     8     6     7    2
     9     8     1    1
    10     8     9    1
    11     8    12    1
    12     9    10    1
    13    10    11    1
    14    12    11    1
    15    13    43    1
    16    14    13    1
    17    14    15    1
    18    15    18    2
    19    16    17    1
    20    16    15    1
    21    19    14    2
    22    20    21    2
    23    20    19    1
    24    21    26    1
    25    22    21    1
    26    23    22    1
    27    24    23    1
    28    24    25    1
    29    26    27    1
    30    26    13    1
    31    31    28    1
    32    31    30   ar
    33    33    28    1
    34    33    44    1
    35    33    32    1
    36    34    43   ar
    37    34    42   ar
    38    35    30   ar
    39    36    29    1
    40    36    32    1
    41    37    44    1
    42    38    34    1
    43    39    42    1
    44    40    37    1
    45    40    29    1
    46    41    38    3
    47    42    35   ar
    48    43    31   ar
