@<TRIPOS>MOLECULE
outputs/IAG933/test6/raw/output_6107_IAG933_linker_design_.xyz
 44 47 0 0 0
SMALL
GASTEIGER

@<TRIPOS>ATOM
      1 C         -24.8550   -1.0120   30.1430 C.3     1  UNL1        0.0555
      2 C         -24.9730   -2.5050   29.7880 C.2     1  UNL1       -0.0198
      3 C         -23.9060   -3.1730   29.1460 C.2     1  UNL1       -0.0042
      4 C         -23.9890   -4.5490   28.8530 C.2     1  UNL1       -0.0003
      5 C         -25.1370   -5.2800   29.2050 C.2     1  UNL1       -0.0000
      6 C         -26.2320   -4.6110   29.7840 C.2     1  UNL1       -0.0003
      7 C         -26.1550   -3.2320   30.0650 C.2     1  UNL1       -0.0042
      8 C         -25.3870   -0.6790   31.5710 C.3     1  UNL1        0.0782
      9 C         -25.1890    0.7730   32.0280 C.3     1  UNL1        0.0192
     10 C         -25.3360    0.6840   33.5440 C.3     1  UNL1        0.0202
     11 C         -24.8290   -0.7150   33.9050 C.3     1  UNL1        0.0887
     12 N         -24.7580   -1.4810   32.6460 N.3     1  UNL1       -0.2191
     13 C         -25.6880    1.6140   26.4610 C.2     1  UNL1        0.0320
     14 C         -26.2500    2.9200   26.3950 C.2     1  UNL1        0.0739
     15 C         -25.6420    4.0930   27.1230 C.2     1  UNL1        0.2662
     16 N         -25.6140    5.2520   26.4490 N.am    1  UNL1       -0.1997
     17 C         -25.0260    6.4790   26.9630 C.3     1  UNL1        0.1388
     18 O         -25.1430    3.9660   28.2430 O.2     1  UNL1       -0.2683
     19 C         -27.4380    3.0910   25.6450 C.2     1  UNL1        0.1065
     20 N         -28.0750    2.0890   25.0030 N.2     1  UNL1       -0.2081
     21 C         -27.5430    0.8490   25.0790 C.2     1  UNL1        0.2530
     22 O         -28.1930   -0.2080   24.4770 O.2     1  UNL1       -0.4558
     23 C         -29.4600    0.0050   23.8660 C.3     1  UNL1        0.2426
     24 C         -30.0650   -1.3770   23.5730 C.3     1  UNL1        0.2292
     25 O         -30.7290   -1.8780   24.7210 O.3     1  UNL1       -0.2162
     26 C         -26.3540    0.5760   25.7770 C.2     1  UNL1        0.1904
     27 F         -25.8600   -0.6810   25.7950 F       1  UNL1       -0.1995
     28 O         -21.9337    1.6713   26.6018 O.2     1  UNL1       -0.2701
     29 C         -29.1987   -0.4227   29.6968 C.3     1  UNL1        0.1340
     30 C         -24.3054    1.3876   26.9749 C.3     1  UNL1        0.1022
     31 C         -30.6592    0.6709   31.6108 C.3     1  UNL1        0.1447
     32 N         -24.0958    0.5087   28.2072 N.3     1  UNL1       -0.2597
     33 C         -26.6488    0.3944   28.9117 C.3     1  UNL1        0.1693
     34 C         -27.7210   -0.2028   29.8878 C.3     1  UNL1        0.0648
     35 C         -29.6081   -1.7227   30.4464 C.3     1  UNL1        0.0626
     36 C         -22.6471    0.2759   28.4159 C.3     1  UNL1        0.1622
     37 O         -30.0051   -0.2582   32.4209 O.3     1  UNL1       -0.3536
     38 C         -21.6603    1.1673   27.6447 C.2     1  UNL1        0.2771
     39 C         -29.3464   -1.4413   31.9327 C.3     1  UNL1        0.1447
     40 C         -25.1743   -0.0928   28.9855 C.3     1  UNL1        0.0941
     41 C         -30.0938    0.7263   30.1776 C.3     1  UNL1        0.0626
     42 O         -26.9881    1.7325   29.1423 O.3     1  UNL1       -0.2216
     43 N         -20.4311    1.4170   28.0818 N.am    1  UNL1       -0.0866
     44 O         -29.4290   -0.6325   28.3005 O.3     1  UNL1       -0.2254
@<TRIPOS>BOND
     1     1    40    1
     2     2     7    1
     3     2     1    1
     4     3     2    2
     5     4     3    1
     6     4     5    2
     7     5     6    1
     8     6     7    2
     9     8     1    1
    10     8     9    1
    11     8    12    1
    12     9    10    1
    13    10    11    1
    14    12    11    1
    15    13    30    1
    16    14    13    1
    17    14    15    1
    18    15    18    2
    19    16    17    1
    20    16    15    1
    21    19    14    2
    22    20    21    2
    23    20    19    1
    24    21    26    1
    25    22    21    1
    26    23    22    1
    27    24    23    1
    28    24    25    1
    29    26    27    1
    30    26    13    2
    31    28    38    2
    32    29    34    1
    33    29    41    1
    34    29    35    1
    35    30    32    1
    36    31    37    1
    37    32    36    1
    38    33    40    1
    39    33    42    1
    40    33    34    1
    41    35    39    1
    42    38    43    1
    43    38    36    1
    44    39    37    1
    45    40    32    1
    46    41    31    1
    47    44    29    1
