@<TRIPOS>MOLECULE
outputs/IAG933/test6/raw/output_611_IAG933_linker_design_.xyz
 59 64 0 0 0
SMALL
GASTEIGER

@<TRIPOS>ATOM
      1 C         -24.8550   -1.0120   30.1430 C.3     1  UNL1        0.0451
      2 C         -24.9730   -2.5050   29.7880 C.2     1  UNL1       -0.0207
      3 C         -23.9060   -3.1730   29.1460 C.2     1  UNL1       -0.0042
      4 C         -23.9890   -4.5490   28.8530 C.2     1  UNL1       -0.0003
      5 C         -25.1370   -5.2800   29.2050 C.2     1  UNL1       -0.0000
      6 C         -26.2320   -4.6110   29.7840 C.2     1  UNL1       -0.0003
      7 C         -26.1550   -3.2320   30.0650 C.2     1  UNL1       -0.0042
      8 C         -25.3870   -0.6790   31.5710 C.3     1  UNL1        0.0918
      9 C         -25.1890    0.7730   32.0280 C.3     1  UNL1        0.0774
     10 C         -25.3360    0.6840   33.5440 C.3     1  UNL1        0.0363
     11 C         -24.8290   -0.7150   33.9050 C.3     1  UNL1        0.0901
     12 N         -24.7580   -1.4810   32.6460 N.3     1  UNL1       -0.2177
     13 C         -25.6880    1.6140   26.4610 C.2     1  UNL1        0.0406
     14 C         -26.2500    2.9200   26.3950 C.2     1  UNL1        0.0766
     15 C         -25.6420    4.0930   27.1230 C.2     1  UNL1        0.2664
     16 N         -25.6140    5.2520   26.4490 N.am    1  UNL1       -0.1998
     17 C         -25.0260    6.4790   26.9630 C.3     1  UNL1        0.1373
     18 O         -25.1430    3.9660   28.2430 O.2     1  UNL1       -0.2683
     19 C         -27.4380    3.0910   25.6450 C.2     1  UNL1        0.1067
     20 N         -28.0750    2.0890   25.0030 N.2     1  UNL1       -0.2081
     21 C         -27.5430    0.8490   25.0790 C.2     1  UNL1        0.2533
     22 O         -28.1930   -0.2080   24.4770 O.2     1  UNL1       -0.4558
     23 C         -29.4600    0.0050   23.8660 C.3     1  UNL1        0.2426
     24 C         -30.0650   -1.3770   23.5730 C.3     1  UNL1        0.2292
     25 O         -30.7290   -1.8780   24.7210 O.3     1  UNL1       -0.2162
     26 C         -26.3540    0.5760   25.7770 C.2     1  UNL1        0.1931
     27 F         -25.8600   -0.6810   25.7950 F       1  UNL1       -0.1992
     28 C         -25.1336    8.5489   32.1203 C.3     1  UNL1        0.1845
     29 N         -27.7132    6.3997   30.8766 N.3     1  UNL1       -0.1086
     30 C         -27.2404    4.7801   30.7198 C.3     1  UNL1        0.1674
     31 C         -26.0377    8.3747   29.9198 C.2     1  UNL1        0.0238
     32 F         -27.2754   10.4303   27.4133 F       1  UNL1       -0.2044
     33 C         -26.0540    8.6487   28.5322 C.2     1  UNL1        0.0226
     34 C         -20.4152   10.4520   30.8158 C.3     1  UNL1        0.0193
     35 C         -25.7373   11.1569   28.7087 C.2     1  UNL1        0.0469
     36 N         -24.7251    1.7007   30.8606 N.3     1  UNL1       -0.2475
     37 C         -22.2189    2.0014   27.9905 C.3     1  UNL1        0.0015
     38 C         -24.1852    5.4853   33.1569 C.3     1  UNL1        0.0348
     39 C         -24.0127    6.3586   34.3992 C.3     1  UNL1        0.0028
     40 C         -25.7858    7.3520   27.9733 C.3     1  UNL1        0.1204
     41 C         -21.6929    9.3553   28.9409 C.3     1  UNL1        0.0193
     42 C         -26.3533   10.0305   28.2116 C.2     1  UNL1        0.1386
     43 O         -28.7566    6.6388   31.4644 O.3     1  UNL1       -0.1162
     44 C         -21.4409   11.7864   28.8646 C.3     1  UNL1        0.0193
     45 C         -26.9061    7.1396   29.9108 C.3     1  UNL1        0.1832
     46 N         -22.7076   10.8648   30.6594 N.3     1  UNL1       -0.1291
     47 C         -25.1746    9.1114   30.8585 C.2     1  UNL1        0.0743
     48 C         -22.6347    0.8758   28.9557 C.3     1  UNL1        0.0174
     49 N         -26.7560    6.4715   28.6935 N.3     1  UNL1       -0.1926
     50 C         -24.7826    3.1500   31.1136 C.3     1  UNL1        0.2221
     51 C         -23.4163    1.5739   30.1506 C.3     1  UNL1        0.0743
     52 O         -25.8921    3.3507   31.7996 O.3     1  UNL1       -0.3117
     53 C         -24.7435   11.2915   29.5583 C.2     1  UNL1        0.0853
     54 C         -21.5824   10.6714   29.8677 C.3     1  UNL1        0.0794
     55 C         -25.2578    5.7517   31.9457 C.3     1  UNL1        0.1711
     56 C         -26.2618    4.6780   31.8751 C.3     1  UNL1        0.2625
     57 O         -27.0469    4.7781   32.9524 O.3     1  UNL1       -0.1910
     58 N         -24.1979   10.3796   30.4646 N.pl3   1  UNL1       -0.2161
     59 O         -24.7439    7.2153   31.8504 O.3     1  UNL1       -0.3450
@<TRIPOS>BOND
     1     2     7    1
     2     2     1    1
     3     3     2    2
     4     4     3    1
     5     4     5    2
     6     5     6    1
     7     6     7    2
     8     8     1    1
     9     8     9    1
    10     8    12    1
    11     9    36    1
    12     9    10    1
    13    10    11    1
    14    12    11    1
    15    14    13    1
    16    14    15    1
    17    15    18    2
    18    16    17    1
    19    16    15    1
    20    19    14    2
    21    20    21    2
    22    20    19    1
    23    21    26    1
    24    22    21    1
    25    23    22    1
    26    24    23    1
    27    24    25    1
    28    26    27    1
    29    26    13    2
    30    29    43    1
    31    30    29    1
    32    30    56    1
    33    31    47    2
    34    32    42    1
    35    33    31    1
    36    35    53    2
    37    36    50    1
    38    37    48    1
    39    38    39    1
    40    40    17    1
    41    40    33    1
    42    40    49    1
    43    41    54    1
    44    42    33    2
    45    42    35    1
    46    44    54    1
    47    45    49    1
    48    45    31    1
    49    45    29    1
    50    47    28    1
    51    48    51    1
    52    50    52    1
    53    51    36    1
    54    52    56    1
    55    53    58    1
    56    54    46    1
    57    54    34    1
    58    55    38    1
    59    56    55    1
    60    56    57    1
    61    58    46    1
    62    58    47    1
    63    59    55    1
    64    59    28    1
