@<TRIPOS>MOLECULE
outputs/IAG933/test6/raw/output_6114_IAG933_linker_design_.xyz
 42 47 0 0 0
SMALL
GASTEIGER

@<TRIPOS>ATOM
      1 C         -24.8550   -1.0120   30.1430 C.3     1  UNL1        0.0586
      2 C         -24.9730   -2.5050   29.7880 C.2     1  UNL1       -0.0195
      3 C         -23.9060   -3.1730   29.1460 C.2     1  UNL1       -0.0042
      4 C         -23.9890   -4.5490   28.8530 C.2     1  UNL1       -0.0003
      5 C         -25.1370   -5.2800   29.2050 C.2     1  UNL1       -0.0000
      6 C         -26.2320   -4.6110   29.7840 C.2     1  UNL1       -0.0003
      7 C         -26.1550   -3.2320   30.0650 C.2     1  UNL1       -0.0042
      8 C         -25.3870   -0.6790   31.5710 C.3     1  UNL1        0.0802
      9 C         -25.1890    0.7730   32.0280 C.3     1  UNL1        0.0438
     10 C         -25.3360    0.6840   33.5440 C.3     1  UNL1        0.0220
     11 C         -24.8290   -0.7150   33.9050 C.3     1  UNL1        0.0888
     12 N         -24.7580   -1.4810   32.6460 N.3     1  UNL1       -0.2190
     13 C         -25.6880    1.6140   26.4610 C.3     1  UNL1        0.0720
     14 C         -26.2500    2.9200   26.3950 C.2     1  UNL1        0.0549
     15 C         -25.6420    4.0930   27.1230 C.2     1  UNL1        0.2624
     16 N         -25.6140    5.2520   26.4490 N.am    1  UNL1       -0.2000
     17 C         -25.0260    6.4790   26.9630 C.3     1  UNL1        0.1388
     18 O         -25.1430    3.9660   28.2430 O.2     1  UNL1       -0.2687
     19 C         -27.4380    3.0910   25.6450 C.2     1  UNL1        0.1021
     20 N         -28.0750    2.0890   25.0030 N.2     1  UNL1       -0.2119
     21 C         -27.5430    0.8490   25.0790 C.2     1  UNL1        0.2341
     22 O         -28.1930   -0.2080   24.4770 O.2     1  UNL1       -0.4585
     23 C         -29.4600    0.0050   23.8660 C.3     1  UNL1        0.2423
     24 C         -30.0650   -1.3770   23.5730 C.3     1  UNL1        0.2292
     25 O         -30.7290   -1.8780   24.7210 O.3     1  UNL1       -0.2162
     26 C         -26.3540    0.5760   25.7770 C.3     1  UNL1        0.2400
     27 F         -25.8600   -0.6810   25.7950 F       1  UNL1       -0.2269
     28 C         -26.7273    3.1916   31.2279 C.3     1  UNL1        0.2996
     29 C         -22.2658    1.3433   27.7933 C.2     1  UNL1        0.2598
     30 S         -25.3861    3.6685   32.1181 S.O2    1  UNL1        0.0210
     31 C         -25.8739    1.3895   29.4621 C.3     1  UNL1        0.0993
     32 O         -21.4001    1.9760   26.9512 O.2     1  UNL1       -0.2715
     33 O         -25.7404    4.8186   33.0566 O.2     1  UNL1       -0.1705
     34 C         -23.8260    1.3424   27.7652 C.3     1  UNL1        0.1375
     35 C         -25.6733    2.0620   30.9378 C.3     1  UNL1        0.1781
     36 C         -24.0160   -0.1840   29.2857 C.3     1  UNL1        0.1025
     37 N         -21.7347    0.6293   28.7682 N.am    1  UNL1       -0.1801
     38 C         -22.6467   -0.1733   29.6290 C.2     1  UNL1        0.0784
     39 O         -23.9322    3.7389   31.9216 O.2     1  UNL1       -0.1705
     40 C         -24.3832    1.4610   26.6192 C.3     1  UNL1        0.0332
     41 O         -26.9358    4.1932   30.3025 O.3     1  UNL1       -0.1954
     42 N         -24.5882    1.0646   28.7768 N.3     1  UNL1       -0.2610
@<TRIPOS>BOND
     1     1     2    1
     2     1     8    1
     3     2     7    1
     4     3     2    2
     5     4     3    1
     6     4     5    2
     7     5     6    1
     8     6     7    2
     9     8     9    1
    10     8    12    1
    11     9    10    1
    12    10    11    1
    13    12    11    1
    14    13    40    1
    15    14    13    1
    16    14    15    1
    17    15    18    2
    18    16    17    1
    19    16    15    1
    20    19    14    2
    21    20    21    2
    22    20    19    1
    23    21    26    1
    24    22    21    1
    25    23    22    1
    26    24    23    1
    27    24    25    1
    28    26    27    1
    29    26    13    1
    30    28    41    1
    31    28    30    1
    32    29    37    1
    33    30    33    2
    34    32    29    2
    35    34    40    1
    36    34    29    1
    37    34    42    1
    38    35    31    1
    39    35    28    1
    40    35     9    1
    41    35    30    1
    42    36    38    1
    43    36     1    1
    44    37    38    2
    45    39    30    2
    46    42    36    1
    47    42    31    1
