@<TRIPOS>MOLECULE
outputs/IAG933/test6/raw/output_6115_IAG933_linker_design_.xyz
 47 50 0 0 0
SMALL
GASTEIGER

@<TRIPOS>ATOM
      1 C         -24.8550   -1.0120   30.1430 C.3     1  UNL1        0.0543
      2 C         -24.9730   -2.5050   29.7880 C.2     1  UNL1       -0.0198
      3 C         -23.9060   -3.1730   29.1460 C.2     1  UNL1       -0.0042
      4 C         -23.9890   -4.5490   28.8530 C.2     1  UNL1       -0.0003
      5 C         -25.1370   -5.2800   29.2050 C.2     1  UNL1       -0.0000
      6 C         -26.2320   -4.6110   29.7840 C.2     1  UNL1       -0.0003
      7 C         -26.1550   -3.2320   30.0650 C.2     1  UNL1       -0.0042
      8 C         -25.3870   -0.6790   31.5710 C.3     1  UNL1        0.0782
      9 C         -25.1890    0.7730   32.0280 C.3     1  UNL1        0.0192
     10 C         -25.3360    0.6840   33.5440 C.3     1  UNL1        0.0202
     11 C         -24.8290   -0.7150   33.9050 C.3     1  UNL1        0.0887
     12 N         -24.7580   -1.4810   32.6460 N.3     1  UNL1       -0.2191
     13 C         -25.6880    1.6140   26.4610 C.3     1  UNL1        0.0703
     14 C         -26.2500    2.9200   26.3950 C.2     1  UNL1        0.0548
     15 C         -25.6420    4.0930   27.1230 C.2     1  UNL1        0.2624
     16 N         -25.6140    5.2520   26.4490 N.am    1  UNL1       -0.2000
     17 C         -25.0260    6.4790   26.9630 C.3     1  UNL1        0.1388
     18 O         -25.1430    3.9660   28.2430 O.2     1  UNL1       -0.2687
     19 C         -27.4380    3.0910   25.6450 C.2     1  UNL1        0.1021
     20 N         -28.0750    2.0890   25.0030 N.2     1  UNL1       -0.2119
     21 C         -27.5430    0.8490   25.0790 C.2     1  UNL1        0.2341
     22 O         -28.1930   -0.2080   24.4770 O.2     1  UNL1       -0.4585
     23 C         -29.4600    0.0050   23.8660 C.3     1  UNL1        0.2423
     24 C         -30.0650   -1.3770   23.5730 C.3     1  UNL1        0.2292
     25 O         -30.7290   -1.8780   24.7210 O.3     1  UNL1       -0.2162
     26 C         -26.3540    0.5760   25.7770 C.3     1  UNL1        0.2400
     27 F         -25.8600   -0.6810   25.7950 F       1  UNL1       -0.2269
     28 C         -21.4580    2.1311   27.1085 C.3     1  UNL1        0.1835
     29 O         -20.6518    1.5737   28.1956 O.3     1  UNL1       -0.2204
     30 C         -22.9630    1.7874   27.3862 C.3     1  UNL1        0.0508
     31 N         -24.1889   -0.0866   28.1946 N.3     1  UNL1       -0.2190
     32 O         -30.6989    3.5549   31.8844 O.2     1  UNL1       -0.2749
     33 C         -22.8875    0.4699   28.2045 C.3     1  UNL1        0.0912
     34 C         -27.1719    5.0459   30.3756 C.3     1  UNL1        0.0113
     35 C         -25.1332   -0.1532   28.9611 C.3     1  UNL1        0.0785
     36 O         -29.5152    0.0689   29.4179 O.2     1  UNL1       -0.2943
     37 N         -28.7462    2.9034   31.5105 N.am    1  UNL1       -0.2745
     38 C         -26.4700    0.5105   28.8136 C.3     1  UNL1        0.0256
     39 C         -29.3460    2.0813   30.6021 C.3     1  UNL1        0.1328
     40 C         -27.3323    3.1153   31.9207 C.3     1  UNL1        0.0938
     41 C         -27.4565    0.7591   29.8062 C.3     1  UNL1        0.0677
     42 C         -24.2819    1.6329   26.5118 C.3     1  UNL1        0.0119
     43 C         -29.4013    4.0386   31.4003 C.2     1  UNL1        0.2259
     44 C         -26.5804    4.3360   31.5422 C.3     1  UNL1        0.0220
     45 C         -30.0759    2.7766   29.5341 C.3     1  UNL1        0.0296
     46 C         -28.7360    4.9101   30.2038 C.3     1  UNL1        0.0853
     47 C         -28.7708    0.8686   29.8819 C.2     1  UNL1        0.1685
@<TRIPOS>BOND
     1     1    35    1
     2     2     7    1
     3     2     1    1
     4     3     2    2
     5     4     3    1
     6     4     5    2
     7     5     6    1
     8     6     7    2
     9     8     1    1
    10     8     9    1
    11     8    12    1
    12     9    10    1
    13    10    11    1
    14    12    11    1
    15    13    42    1
    16    14    13    1
    17    14    15    1
    18    15    18    2
    19    16    17    1
    20    16    15    1
    21    19    14    2
    22    20    21    2
    23    20    19    1
    24    21    26    1
    25    22    21    1
    26    23    22    1
    27    24    23    1
    28    24    25    1
    29    26    27    1
    30    26    13    1
    31    28    30    1
    32    28    29    1
    33    30    42    1
    34    30    33    1
    35    31    33    1
    36    31    35    1
    37    34    44    1
    38    35    38    1
    39    36    47    2
    40    37    40    1
    41    38    41    1
    42    39    45    1
    43    39    37    1
    44    41    47    1
    45    43    37   am
    46    43    32    2
    47    44    40    1
    48    46    34    1
    49    46    43    1
    50    47    39    1
