@<TRIPOS>MOLECULE
outputs/IAG933/test6/raw/output_6129_IAG933_linker_design_.xyz
 45 48 0 0 0
SMALL
GASTEIGER

@<TRIPOS>ATOM
      1 C         -24.8550   -1.0120   30.1430 C.3     1  UNL1        0.0547
      2 C         -24.9730   -2.5050   29.7880 C.2     1  UNL1       -0.0198
      3 C         -23.9060   -3.1730   29.1460 C.2     1  UNL1       -0.0042
      4 C         -23.9890   -4.5490   28.8530 C.2     1  UNL1       -0.0003
      5 C         -25.1370   -5.2800   29.2050 C.2     1  UNL1       -0.0000
      6 C         -26.2320   -4.6110   29.7840 C.2     1  UNL1       -0.0003
      7 C         -26.1550   -3.2320   30.0650 C.2     1  UNL1       -0.0042
      8 C         -25.3870   -0.6790   31.5710 C.3     1  UNL1        0.0782
      9 C         -25.1890    0.7730   32.0280 C.3     1  UNL1        0.0192
     10 C         -25.3360    0.6840   33.5440 C.3     1  UNL1        0.0202
     11 C         -24.8290   -0.7150   33.9050 C.3     1  UNL1        0.0887
     12 N         -24.7580   -1.4810   32.6460 N.3     1  UNL1       -0.2191
     13 C         -25.6880    1.6140   26.4610 C.2     1  UNL1        0.0182
     14 C         -26.2500    2.9200   26.3950 C.2     1  UNL1        0.0726
     15 C         -25.6420    4.0930   27.1230 C.2     1  UNL1        0.2661
     16 N         -25.6140    5.2520   26.4490 N.am    1  UNL1       -0.1997
     17 C         -25.0260    6.4790   26.9630 C.3     1  UNL1        0.1388
     18 O         -25.1430    3.9660   28.2430 O.2     1  UNL1       -0.2683
     19 C         -27.4380    3.0910   25.6450 C.2     1  UNL1        0.1064
     20 N         -28.0750    2.0890   25.0030 N.2     1  UNL1       -0.2081
     21 C         -27.5430    0.8490   25.0790 C.2     1  UNL1        0.2530
     22 O         -28.1930   -0.2080   24.4770 O.2     1  UNL1       -0.4558
     23 C         -29.4600    0.0050   23.8660 C.3     1  UNL1        0.2426
     24 C         -30.0650   -1.3770   23.5730 C.3     1  UNL1        0.2292
     25 O         -30.7290   -1.8780   24.7210 O.3     1  UNL1       -0.2162
     26 C         -26.3540    0.5760   25.7770 C.2     1  UNL1        0.1892
     27 F         -25.8600   -0.6810   25.7950 F       1  UNL1       -0.1996
     28 C         -28.6089    0.1334   29.2604 C.2     1  UNL1       -0.0211
     29 C         -31.8492   -4.1999   27.5363 C.3     1  UNL1        0.0358
     30 C         -24.4996    1.4499   28.4490 C.3     1  UNL1        0.0943
     31 C         -29.9503    2.0152   28.5618 C.2     1  UNL1       -0.0006
     32 CL        -21.5520    1.7274   27.8194 Cl      1  UNL1       -0.1146
     33 C         -28.8481    1.5248   29.2621 C.2     1  UNL1       -0.0042
     34 C         -31.1368   -2.9632   28.1235 C.3     1  UNL1        0.1564
     35 C         -25.9680   -0.2368   29.3926 C.3     1  UNL1        0.0825
     36 C         -30.6128   -0.3455   28.0365 C.2     1  UNL1       -0.0200
     37 C         -27.4320   -0.4628   29.9123 C.3     1  UNL1        0.0441
     38 O         -30.5423   -3.3429   29.3516 O.3     1  UNL1       -0.2228
     39 N         -25.5968    1.0974   29.0307 N.3     1  UNL1       -0.2184
     40 C         -24.3326    1.4033   27.2074 C.3     1  UNL1        0.0573
     41 C         -31.6726   -1.5262   27.8052 C.3     1  UNL1        0.0592
     42 C         -22.8332    1.1473   26.6963 C.3     1  UNL1        0.0854
     43 C         -29.4564   -0.7707   28.6109 C.2     1  UNL1       -0.0084
     44 C         -30.7758    1.0828   27.9189 C.2     1  UNL1       -0.0042
     45 C         -22.7359    2.0684   25.4203 C.3     1  UNL1        0.0179
@<TRIPOS>BOND
     1     1    35    1
     2     2     7    1
     3     2     1    1
     4     3     2    2
     5     4     3    1
     6     4     5    2
     7     5     6    1
     8     6     7    2
     9     8     1    1
    10     8     9    1
    11     8    12    1
    12     9    10    1
    13    10    11    1
    14    12    11    1
    15    13    40    1
    16    14    13    1
    17    14    15    1
    18    15    18    2
    19    16    17    1
    20    16    15    1
    21    19    14    2
    22    20    21    2
    23    20    19    1
    24    21    26    1
    25    22    21    1
    26    23    22    1
    27    24    23    1
    28    24    25    1
    29    26    27    1
    30    26    13    2
    31    28    33    1
    32    28    37    1
    33    30    39    1
    34    31    33    2
    35    34    29    1
    36    34    38    1
    37    35    37    1
    38    36    43    1
    39    39    35    1
    40    40    30    1
    41    41    36    1
    42    41    34    1
    43    42    45    1
    44    42    40    1
    45    42    32    1
    46    43    28    2
    47    44    36    2
    48    44    31    1
