@<TRIPOS>MOLECULE
outputs/IAG933/test6/raw/output_613_IAG933_linker_design_.xyz
 41 45 0 0 0
SMALL
GASTEIGER

@<TRIPOS>ATOM
      1 C         -24.8550   -1.0120   30.1430 C.3     1  UNL1        0.2055
      2 C         -24.9730   -2.5050   29.7880 C.2     1  UNL1        0.0186
      3 C         -23.9060   -3.1730   29.1460 C.2     1  UNL1       -0.0008
      4 C         -23.9890   -4.5490   28.8530 C.2     1  UNL1       -0.0002
      5 C         -25.1370   -5.2800   29.2050 C.2     1  UNL1       -0.0000
      6 C         -26.2320   -4.6110   29.7840 C.2     1  UNL1       -0.0002
      7 C         -26.1550   -3.2320   30.0650 C.2     1  UNL1       -0.0008
      8 C         -25.3870   -0.6790   31.5710 C.3     1  UNL1        0.1170
      9 C         -25.1890    0.7730   32.0280 C.3     1  UNL1        0.0229
     10 C         -25.3360    0.6840   33.5440 C.3     1  UNL1        0.0204
     11 C         -24.8290   -0.7150   33.9050 C.3     1  UNL1        0.0888
     12 N         -24.7580   -1.4810   32.6460 N.3     1  UNL1       -0.2154
     13 C         -25.6880    1.6140   26.4610 C.3     1  UNL1        0.1495
     14 C         -26.2500    2.9200   26.3950 C.2     1  UNL1        0.0638
     15 C         -25.6420    4.0930   27.1230 C.2     1  UNL1        0.2629
     16 N         -25.6140    5.2520   26.4490 N.am    1  UNL1       -0.2000
     17 C         -25.0260    6.4790   26.9630 C.3     1  UNL1        0.1388
     18 O         -25.1430    3.9660   28.2430 O.2     1  UNL1       -0.2686
     19 C         -27.4380    3.0910   25.6450 C.2     1  UNL1        0.1026
     20 N         -28.0750    2.0890   25.0030 N.2     1  UNL1       -0.2118
     21 C         -27.5430    0.8490   25.0790 C.2     1  UNL1        0.2346
     22 O         -28.1930   -0.2080   24.4770 O.2     1  UNL1       -0.4585
     23 C         -29.4600    0.0050   23.8660 C.3     1  UNL1        0.2423
     24 C         -30.0650   -1.3770   23.5730 C.3     1  UNL1        0.2292
     25 O         -30.7290   -1.8780   24.7210 O.3     1  UNL1       -0.2162
     26 C         -26.3540    0.5760   25.7770 C.3     1  UNL1        0.2489
     27 F         -25.8600   -0.6810   25.7950 F       1  UNL1       -0.2264
     28 O         -23.6961   -0.3217   30.0538 O.3     1  UNL1       -0.4589
     29 C         -25.2707    1.0476   27.8036 C.2     1  UNL1        0.2507
     30 O         -20.7672    1.0427   26.8919 O.3     1  UNL1       -0.4736
     31 C         -22.8341    2.6005   25.8421 C.2     1  UNL1        0.4067
     32 C         -19.9648    0.0929   28.2317 C.3     1  UNL1        0.2104
     33 O         -26.1311    0.5331   28.5301 O.2     1  UNL1       -0.2711
     34 C         -21.1346   -0.3208   28.7721 C.3     1  UNL1        0.0815
     35 O         -21.9664    2.2967   24.9961 O.co2   1  UNL1       -0.2388
     36 C         -23.1387    1.5505   26.9770 C.ar    1  UNL1        0.1829
     37 N         -24.0368    1.0093   27.9924 N.ar    1  UNL1       -0.2399
     38 C         -22.0749    0.9925   27.3225 C.ar    1  UNL1        0.1617
     39 O         -23.5073    3.8714   25.8551 O.co2   1  UNL1       -0.2388
     40 C         -23.4151    0.3217   28.8899 C.ar    1  UNL1        0.2113
     41 C         -22.1720    0.3212   28.4826 C.ar    1  UNL1        0.0689
@<TRIPOS>BOND
     1     1    28    1
     2     2     7    1
     3     2     1    1
     4     3     2    2
     5     4     3    1
     6     4     5    2
     7     5     6    1
     8     6     7    2
     9     8     1    1
    10     8     9    1
    11     8    12    1
    12     9    10    1
    13    10    11    1
    14    12    11    1
    15    13    29    1
    16    14    13    1
    17    14    15    1
    18    15    18    2
    19    16    17    1
    20    16    15    1
    21    19    14    2
    22    20    21    2
    23    20    19    1
    24    21    26    1
    25    22    21    1
    26    23    22    1
    27    24    23    1
    28    24    25    1
    29    26    27    1
    30    26    13    1
    31    29    37   am
    32    29    33    2
    33    30    38    1
    34    30    32    1
    35    31    39   ar
    36    31    36    1
    37    32    34    1
    38    35    31   ar
    39    36    38   ar
    40    36    37   ar
    41    37    40   ar
    42    38    41   ar
    43    40    28    1
    44    41    34    1
    45    41    40   ar
