@<TRIPOS>MOLECULE
outputs/IAG933/test6/raw/output_6132_IAG933_linker_design_.xyz
 46 50 0 0 0
SMALL
GASTEIGER

@<TRIPOS>ATOM
      1 C         -24.8550   -1.0120   30.1430 C.3     1  UNL1        0.2010
      2 C         -24.9730   -2.5050   29.7880 C.2     1  UNL1        0.0214
      3 C         -23.9060   -3.1730   29.1460 C.2     1  UNL1       -0.0004
      4 C         -23.9890   -4.5490   28.8530 C.2     1  UNL1       -0.0002
      5 C         -25.1370   -5.2800   29.2050 C.2     1  UNL1       -0.0000
      6 C         -26.2320   -4.6110   29.7840 C.2     1  UNL1       -0.0002
      7 C         -26.1550   -3.2320   30.0650 C.2     1  UNL1       -0.0004
      8 C         -25.3870   -0.6790   31.5710 C.3     1  UNL1        0.1198
      9 C         -25.1890    0.7730   32.0280 C.3     1  UNL1        0.0233
     10 C         -25.3360    0.6840   33.5440 C.3     1  UNL1        0.0204
     11 C         -24.8290   -0.7150   33.9050 C.3     1  UNL1        0.0889
     12 N         -24.7580   -1.4810   32.6460 N.3     1  UNL1       -0.2150
     13 C         -25.6880    1.6140   26.4610 C.2     1  UNL1        0.0459
     14 C         -26.2500    2.9200   26.3950 C.2     1  UNL1        0.0768
     15 C         -25.6420    4.0930   27.1230 C.2     1  UNL1        0.2664
     16 N         -25.6140    5.2520   26.4490 N.am    1  UNL1       -0.1997
     17 C         -25.0260    6.4790   26.9630 C.3     1  UNL1        0.1388
     18 O         -25.1430    3.9660   28.2430 O.2     1  UNL1       -0.2683
     19 C         -27.4380    3.0910   25.6450 C.2     1  UNL1        0.1067
     20 N         -28.0750    2.0890   25.0030 N.2     1  UNL1       -0.2081
     21 C         -27.5430    0.8490   25.0790 C.2     1  UNL1        0.2533
     22 O         -28.1930   -0.2080   24.4770 O.2     1  UNL1       -0.4558
     23 C         -29.4600    0.0050   23.8660 C.3     1  UNL1        0.2426
     24 C         -30.0650   -1.3770   23.5730 C.3     1  UNL1        0.2292
     25 O         -30.7290   -1.8780   24.7210 O.3     1  UNL1       -0.2162
     26 C         -26.3540    0.5760   25.7770 C.2     1  UNL1        0.1933
     27 F         -25.8600   -0.6810   25.7950 F       1  UNL1       -0.1992
     28 C         -28.6174   -0.3915   29.6860 C.3     1  UNL1        0.0726
     29 C         -22.4893    1.0293   28.0065 C.2     1  UNL1        0.2054
     30 F         -22.1171   -0.2521   29.9062 F       1  UNL1       -0.1785
     31 C         -28.8210    2.3211   31.0655 C.3     1  UNL1        0.0721
     32 N         -26.4971   -0.3205   28.0410 N.pl3   1  UNL1       -0.0363
     33 CL        -22.6777    2.1065   25.4657 Cl      1  UNL1       -0.0798
     34 F         -21.1485    1.3536   27.8593 F       1  UNL1       -0.2007
     35 C         -29.3395    4.6233   30.2426 C.3     1  UNL1        0.0029
     36 N         -24.3170   -0.0160   29.2615 N.pl3   1  UNL1       -0.1608
     37 C         -24.6979    1.2392   27.2702 C.2     1  UNL1        0.0950
     38 C         -29.5363    0.6275   29.4071 C.3     1  UNL1        0.0765
     39 C         -23.3420    1.4988   26.9577 C.2     1  UNL1        0.0947
     40 C         -28.8098    2.7937   28.5482 C.3     1  UNL1        0.0721
     41 N         -29.1350    1.9416   29.7482 N.3     1  UNL1       -0.2725
     42 C         -29.3729    4.2301   28.7478 C.3     1  UNL1        0.0174
     43 C         -28.3044    3.8128   31.0844 C.3     1  UNL1        0.0174
     44 C         -27.2867   -0.5547   29.0957 C.3     1  UNL1        0.2523
     45 C         -23.0187    0.2858   29.0898 C.3     1  UNL1        0.3738
     46 C         -25.1700    0.4390   28.3331 C.2     1  UNL1        0.3121
@<TRIPOS>BOND
     1     1     2    1
     2     2     7    1
     3     3     2    2
     4     4     3    1
     5     4     5    2
     6     5     6    1
     7     6     7    2
     8     8     1    1
     9     8     9    1
    10     8    12    1
    11     9    10    1
    12    10    11    1
    13    12    11    1
    14    13    37    1
    15    14    13    1
    16    14    15    1
    17    15    18    2
    18    16    17    1
    19    16    15    1
    20    19    14    2
    21    20    21    2
    22    20    19    1
    23    21    26    1
    24    22    21    1
    25    23    22    1
    26    24    23    1
    27    24    25    1
    28    26    27    1
    29    26    13    2
    30    29    45    1
    31    31    43    1
    32    32    46    1
    33    32    44    1
    34    33    39    1
    35    34    29    1
    36    35    43    1
    37    36     1    1
    38    37    46    2
    39    38    28    1
    40    38    41    1
    41    39    37    1
    42    39    29    2
    43    40    42    1
    44    40    41    1
    45    41    31    1
    46    42    35    1
    47    44    28    1
    48    45    36    1
    49    45    30    1
    50    46    36    1
