@<TRIPOS>MOLECULE
outputs/IAG933/test6/raw/output_6136_IAG933_linker_design_.xyz
 51 56 0 0 0
SMALL
GASTEIGER

@<TRIPOS>ATOM
      1 C         -24.8550   -1.0120   30.1430 C.3     1  UNL1        0.0641
      2 C         -24.9730   -2.5050   29.7880 C.2     1  UNL1       -0.0191
      3 C         -23.9060   -3.1730   29.1460 C.2     1  UNL1       -0.0042
      4 C         -23.9890   -4.5490   28.8530 C.2     1  UNL1       -0.0003
      5 C         -25.1370   -5.2800   29.2050 C.2     1  UNL1       -0.0000
      6 C         -26.2320   -4.6110   29.7840 C.2     1  UNL1       -0.0003
      7 C         -26.1550   -3.2320   30.0650 C.2     1  UNL1       -0.0042
      8 C         -25.3870   -0.6790   31.5710 C.3     1  UNL1        0.0788
      9 C         -25.1890    0.7730   32.0280 C.3     1  UNL1        0.0193
     10 C         -25.3360    0.6840   33.5440 C.3     1  UNL1        0.0202
     11 C         -24.8290   -0.7150   33.9050 C.3     1  UNL1        0.0887
     12 N         -24.7580   -1.4810   32.6460 N.3     1  UNL1       -0.2191
     13 C         -25.6880    1.6140   26.4610 C.3     1  UNL1        0.1469
     14 C         -26.2500    2.9200   26.3950 C.2     1  UNL1        0.0636
     15 C         -25.6420    4.0930   27.1230 C.2     1  UNL1        0.2629
     16 N         -25.6140    5.2520   26.4490 N.am    1  UNL1       -0.2000
     17 C         -25.0260    6.4790   26.9630 C.3     1  UNL1        0.1388
     18 O         -25.1430    3.9660   28.2430 O.2     1  UNL1       -0.2686
     19 C         -27.4380    3.0910   25.6450 C.2     1  UNL1        0.1026
     20 N         -28.0750    2.0890   25.0030 N.2     1  UNL1       -0.2118
     21 C         -27.5430    0.8490   25.0790 C.2     1  UNL1        0.2346
     22 O         -28.1930   -0.2080   24.4770 O.2     1  UNL1       -0.4586
     23 C         -29.4600    0.0050   23.8660 C.3     1  UNL1        0.2388
     24 C         -30.0650   -1.3770   23.5730 C.3     1  UNL1        0.1898
     25 O         -30.7290   -1.8780   24.7210 O.3     1  UNL1       -0.3450
     26 C         -26.3540    0.5760   25.7770 C.3     1  UNL1        0.2486
     27 F         -25.8600   -0.6810   25.7950 F       1  UNL1       -0.2264
     28 O         -33.7305    3.0322   28.3449 O.2     1  UNL1       -0.4717
     29 C         -32.6347    2.8149   30.5448 C.2     1  UNL1        0.0121
     30 C         -31.2864   -0.2598   26.7086 C.2     1  UNL1        0.0071
     31 C         -31.6838   -1.2168   25.5019 C.3     1  UNL1        0.1687
     32 C         -21.6832    1.4428   27.8958 C.3     1  UNL1        0.0953
     33 C         -25.4220   -0.1360   28.9731 C.3     1  UNL1        0.1452
     34 O         -23.4003    1.8211   25.9337 O.2     1  UNL1       -0.2740
     35 C         -22.9056    0.8400   28.6411 C.2     1  UNL1        0.2321
     36 C         -29.7814    0.0313   28.5352 C.2     1  UNL1       -0.0149
     37 C         -26.8287    0.3769   29.4085 C.2     1  UNL1        0.1737
     38 C         -30.6477    1.2827   30.5876 C.2     1  UNL1       -0.0004
     39 C         -31.6071    2.1239   31.1492 C.2     1  UNL1       -0.0013
     40 C         -33.6639    3.8398   31.4438 C.3     1  UNL1        0.0342
     41 C         -32.7919    2.3734   29.0705 C.2     1  UNL1        0.1346
     42 C         -28.3193   -0.3958   29.2101 C.3     1  UNL1        0.0925
     43 C         -31.9258    1.2685   28.5057 C.2     1  UNL1        0.0331
     44 N         -24.3397    0.6290   28.1624 N.am    1  UNL1       -0.2239
     45 C         -30.0045   -0.4591   27.3360 C.2     1  UNL1       -0.0057
     46 O         -26.8502    1.5095   29.8153 O.2     1  UNL1       -0.2940
     47 C         -34.9833    3.6151   28.7700 C.3     1  UNL1        0.2525
     48 C         -32.1868    0.6501   27.2670 C.2     1  UNL1        0.0011
     49 O         -22.5318   -0.0055   29.5906 O.2     1  UNL1       -0.2744
     50 C         -30.7528    0.8345   29.2333 C.2     1  UNL1       -0.0007
     51 C         -24.3948    1.3269   26.8119 C.2     1  UNL1        0.2387
@<TRIPOS>BOND
     1     1     2    1
     2     2     7    1
     3     3     2    2
     4     4     3    1
     5     4     5    2
     6     5     6    1
     7     6     7    2
     8     8     1    1
     9     8     9    1
    10     8    12    1
    11     9    10    1
    12    10    11    1
    13    12    11    1
    14    13    14    1
    15    13    51    1
    16    14    15    1
    17    15    18    2
    18    16    17    1
    19    16    15    1
    20    19    14    2
    21    20    21    2
    22    20    19    1
    23    21    26    1
    24    22    21    1
    25    23    22    1
    26    24    23    1
    27    24    25    1
    28    25    31    1
    29    26    27    1
    30    26    13    1
    31    28    47    1
    32    28    41    1
    33    29    39    1
    34    29    40    1
    35    30    48    2
    36    30    45    1
    37    31    30    1
    38    32    35    1
    39    33    37    1
    40    33     1    1
    41    34    51    2
    42    35    49    2
    43    36    42    1
    44    36    50    1
    45    37    46    2
    46    38    39    2
    47    41    29    2
    48    42    37    1
    49    43    41    1
    50    43    50    2
    51    44    35   am
    52    44    33    1
    53    45    36    2
    54    48    43    1
    55    50    38    1
    56    51    44   am
