@<TRIPOS>MOLECULE
No_614-gen_results/8p0m/2024-11-27-11-27-31/
 22 24 0 0 0
SMALL
GASTEIGER

@<TRIPOS>ATOM
      1 C         -28.0162   -0.8135   28.8779 C.ar    1  UNL1        0.0665
      2 C         -28.4690   -0.7850   29.8287 C.ar    1  UNL1        0.0161
      3 C         -28.1960    0.3478   28.0550 C.ar    1  UNL1       -0.0061
      4 C         -29.0191    1.3501   28.3782 C.ar    1  UNL1        0.0009
      5 C         -29.6249    1.2683   29.6012 C.ar    1  UNL1        0.0712
      6 C         -30.5243    2.3147   30.0648 C.3     1  UNL1        0.4186
      7 C         -29.3399    0.1476   30.4094 C.ar    1  UNL1        0.0052
      8 F         -30.2594    2.7230   31.1722 F       1  UNL1       -0.1659
      9 F         -31.7960    1.7860   30.0785 F       1  UNL1       -0.1659
     10 F         -30.5160    3.3110   29.1206 F       1  UNL1       -0.1659
     11 C         -27.4002    0.3209   26.6883 C.3     1  UNL1        0.0390
     12 C         -25.9544    0.3681   26.7189 C.3     1  UNL1        0.0285
     13 C         -25.2215   -0.1637   27.7521 C.ar    1  UNL1       -0.0069
     14 C         -23.8228   -0.0108   27.8630 C.ar    1  UNL1       -0.0030
     15 C         -23.0889   -0.5337   28.9942 C.ar    1  UNL1       -0.0002
     16 C         -23.6932   -1.6202   29.6587 C.ar    1  UNL1        0.0013
     17 C         -25.0115   -1.9787   29.4367 C.ar    1  UNL1        0.0162
     18 C         -25.6817   -1.2916   28.5106 C.ar    1  UNL1        0.0665
     19 N         -27.0710   -1.2165   28.7592 N.pl3   1  UNL1       -0.2131
     20 C         -25.2929    1.0111   25.6193 C.3     1  UNL1        0.0051
     21 C         -28.1423    0.4800   25.5408 C.3     1  UNL1        0.0723
     22 BR        -28.0802    1.2229   24.6801 Br      1  UNL1       -0.0804
@<TRIPOS>BOND
     1     5     6    1
     2     6     8    1
     3     6     9    1
     4     6    10    1
     5     3    11    1
     6    11    12    1
     7     1    19    1
     8    12    20    1
     9    11    21    1
    10    21    22    1
    11    12    13    1
    12    19    18    1
    13     1     2   ar
    14     2     7   ar
    15     7     5   ar
    16     5     4   ar
    17     4     3   ar
    18     3     1   ar
    19    13    14   ar
    20    14    15   ar
    21    15    16   ar
    22    16    17   ar
    23    17    18   ar
    24    18    13   ar
