@<TRIPOS>MOLECULE
outputs/IAG933/test6/raw/output_6140_IAG933_linker_design_.xyz
 59 62 0 0 0
SMALL
GASTEIGER

@<TRIPOS>ATOM
      1 C         -24.8550   -1.0120   30.1430 C.3     1  UNL1        0.0454
      2 C         -24.9730   -2.5050   29.7880 C.2     1  UNL1       -0.0207
      3 C         -23.9060   -3.1730   29.1460 C.2     1  UNL1       -0.0042
      4 C         -23.9890   -4.5490   28.8530 C.2     1  UNL1       -0.0003
      5 C         -25.1370   -5.2800   29.2050 C.2     1  UNL1       -0.0000
      6 C         -26.2320   -4.6110   29.7840 C.2     1  UNL1       -0.0003
      7 C         -26.1550   -3.2320   30.0650 C.2     1  UNL1       -0.0042
      8 C         -25.3870   -0.6790   31.5710 C.3     1  UNL1        0.0952
      9 C         -25.1890    0.7730   32.0280 C.3     1  UNL1        0.0909
     10 C         -25.3360    0.6840   33.5440 C.3     1  UNL1        0.0400
     11 C         -24.8290   -0.7150   33.9050 C.3     1  UNL1        0.0905
     12 N         -24.7580   -1.4810   32.6460 N.3     1  UNL1       -0.2174
     13 C         -25.6880    1.6140   26.4610 C.3     1  UNL1        0.0912
     14 C         -26.2500    2.9200   26.3950 C.2     1  UNL1        0.0547
     15 C         -25.6420    4.0930   27.1230 C.2     1  UNL1        0.2225
     16 N         -25.6140    5.2520   26.4490 N.2     1  UNL1       -0.2356
     17 C         -25.0260    6.4790   26.9630 C.3     1  UNL1        0.1550
     18 O         -25.1430    3.9660   28.2430 O.2     1  UNL1       -0.4396
     19 C         -27.4380    3.0910   25.6450 C.2     1  UNL1        0.1023
     20 N         -28.0750    2.0890   25.0030 N.2     1  UNL1       -0.2119
     21 C         -27.5430    0.8490   25.0790 C.2     1  UNL1        0.2341
     22 O         -28.1930   -0.2080   24.4770 O.2     1  UNL1       -0.4585
     23 C         -29.4600    0.0050   23.8660 C.3     1  UNL1        0.2423
     24 C         -30.0650   -1.3770   23.5730 C.3     1  UNL1        0.2292
     25 O         -30.7290   -1.8780   24.7210 O.3     1  UNL1       -0.2162
     26 C         -26.3540    0.5760   25.7770 C.3     1  UNL1        0.2417
     27 F         -25.8600   -0.6810   25.7950 F       1  UNL1       -0.2268
     28 C         -25.2250    2.5917   30.4923 C.3     1  UNL1        0.1559
     29 C         -26.8216    4.7180   30.2568 C.2     1  UNL1        0.0188
     30 N         -28.0402    8.3831   33.4202 N.am    1  UNL1       -0.1854
     31 O         -29.5346    8.9274   31.8629 O.2     1  UNL1       -0.2474
     32 C         -23.6800    6.4083   34.3386 C.3     1  UNL1        0.1158
     33 N         -26.2298    1.9259   31.4486 N.pl3   1  UNL1       -0.3003
     34 C         -27.4934    7.2247   30.6153 C.3     1  UNL1        0.0136
     35 C         -26.4105    6.3603   30.2284 C.3     1  UNL1        0.0946
     36 O         -23.0383    7.7091   34.0610 O.3     1  UNL1       -0.3536
     37 C         -24.7338    1.3056   27.5863 C.3     1  UNL1        0.1190
     38 C         -25.0292    6.6925   36.4753 C.3     1  UNL1        0.0030
     39 N         -23.3809    1.9686   27.4462 N.am    1  UNL1       -0.1806
     40 C         -27.5602    2.7623   31.7876 C.2     1  UNL1        0.0614
     41 C         -28.6764    9.2773   32.7457 C.2     1  UNL1        0.3589
     42 C         -22.6861    2.6734   25.0284 C.1     1  UNL1        0.0076
     43 N         -28.4501   10.6209   33.0395 N.am    1  UNL1       -0.0679
     44 C         -25.6521    5.9078   32.5422 C.1     1  UNL1       -0.0278
     45 O         -24.3666    7.5345   31.3551 O.2     1  UNL1       -0.2825
     46 O         -26.7154    4.4482   33.8773 O.2     1  UNL1       -0.2828
     47 C         -27.4551    7.6497   34.5287 C.3     1  UNL1        0.1252
     48 C         -25.0870    6.6293   35.0052 C.3     1  UNL1        0.0369
     49 C         -22.8669    5.3884   33.4493 C.3     1  UNL1        0.0321
     50 C         -25.4780    3.9268   29.7337 C.2     1  UNL1        0.1410
     51 C         -22.3030    1.2178   27.9472 C.2     1  UNL1        0.4577
     52 C         -26.3962    6.6741   34.4100 C.3     1  UNL1        0.0936
     53 C         -25.2147    6.5030   31.2313 C.2     1  UNL1        0.2138
     54 O         -21.1438    1.6223   27.9398 O.co2   1  UNL1       -0.2213
     55 C         -26.4595    5.6146   33.5812 C.2     1  UNL1        0.2115
     56 O         -22.4444    0.0953   28.4153 O.co2   1  UNL1       -0.2213
     57 C         -21.6570    7.7363   33.6183 C.3     1  UNL1        0.1740
     58 C         -23.0406    2.3558   26.1546 C.1     1  UNL1        0.0226
     59 C         -27.8793    3.9941   31.1566 C.2     1  UNL1        0.0147
@<TRIPOS>BOND
     1     2     7    1
     2     2     1    1
     3     3     2    2
     4     4     3    1
     5     4     5    2
     6     5     6    1
     7     6     7    2
     8     8     1    1
     9     8     9    1
    10     8    12    1
    11     9    33    1
    12     9    10    1
    13    10    11    1
    14    12    11    1
    15    13    37    1
    16    14    13    1
    17    14    15    1
    18    15    18    1
    19    16    17    1
    20    16    15    2
    21    18    50    1
    22    19    14    2
    23    20    21    2
    24    20    19    1
    25    21    26    1
    26    22    21    1
    27    23    22    1
    28    24    23    1
    29    24    25    1
    30    26    27    1
    31    26    13    1
    32    28    33    1
    33    29    59    1
    34    30    47    1
    35    31    41    2
    36    32    49    1
    37    32    48    1
    38    33    40    1
    39    35    29    1
    40    35    34    1
    41    35    53    1
    42    36    32    1
    43    39    37    1
    44    39    51   am
    45    41    43    1
    46    41    30    1
    47    42    58    3
    48    44    55    2
    49    48    38    1
    50    50    29    2
    51    50    28    1
    52    51    56   ar
    53    52    47    1
    54    52    48    1
    55    53    45    1
    56    53    44    2
    57    54    51   ar
    58    55    46    1
    59    55    52    1
    60    57    36    1
    61    58    39    1
    62    59    40    2
