@<TRIPOS>MOLECULE
outputs/IAG933/test6/raw/output_6142_IAG933_linker_design_.xyz
 40 43 0 0 0
SMALL
GASTEIGER

@<TRIPOS>ATOM
      1 C         -24.8550   -1.0120   30.1430 C.3     1  UNL1        0.0567
      2 C         -24.9730   -2.5050   29.7880 C.2     1  UNL1       -0.0198
      3 C         -23.9060   -3.1730   29.1460 C.2     1  UNL1       -0.0042
      4 C         -23.9890   -4.5490   28.8530 C.2     1  UNL1       -0.0003
      5 C         -25.1370   -5.2800   29.2050 C.2     1  UNL1       -0.0000
      6 C         -26.2320   -4.6110   29.7840 C.2     1  UNL1       -0.0003
      7 C         -26.1550   -3.2320   30.0650 C.2     1  UNL1       -0.0042
      8 C         -25.3870   -0.6790   31.5710 C.3     1  UNL1        0.0781
      9 C         -25.1890    0.7730   32.0280 C.3     1  UNL1        0.0192
     10 C         -25.3360    0.6840   33.5440 C.3     1  UNL1        0.0202
     11 C         -24.8290   -0.7150   33.9050 C.3     1  UNL1        0.0887
     12 N         -24.7580   -1.4810   32.6460 N.3     1  UNL1       -0.2191
     13 C         -25.6880    1.6140   26.4610 C.2     1  UNL1        0.0556
     14 C         -26.2500    2.9200   26.3950 C.2     1  UNL1        0.0780
     15 C         -25.6420    4.0930   27.1230 C.2     1  UNL1        0.2665
     16 N         -25.6140    5.2520   26.4490 N.am    1  UNL1       -0.1997
     17 C         -25.0260    6.4790   26.9630 C.3     1  UNL1        0.1388
     18 O         -25.1430    3.9660   28.2430 O.2     1  UNL1       -0.2683
     19 C         -27.4380    3.0910   25.6450 C.2     1  UNL1        0.1068
     20 N         -28.0750    2.0890   25.0030 N.2     1  UNL1       -0.2081
     21 C         -27.5430    0.8490   25.0790 C.2     1  UNL1        0.2533
     22 O         -28.1930   -0.2080   24.4770 O.2     1  UNL1       -0.4558
     23 C         -29.4600    0.0050   23.8660 C.3     1  UNL1        0.2426
     24 C         -30.0650   -1.3770   23.5730 C.3     1  UNL1        0.2292
     25 O         -30.7290   -1.8780   24.7210 O.3     1  UNL1       -0.2162
     26 C         -26.3540    0.5760   25.7770 C.2     1  UNL1        0.1945
     27 F         -25.8600   -0.6810   25.7950 F       1  UNL1       -0.1992
     28 O         -22.9336    0.2937   30.0637 O.3     1  UNL1       -0.3632
     29 F         -21.3226    2.3728   26.1373 F       1  UNL1       -0.1806
     30 C         -24.3947    0.6549   28.3136 C.ar    1  UNL1        0.0487
     31 C         -23.0985    0.7615   28.8375 C.ar    1  UNL1        0.1984
     32 F         -20.7500    1.0515   28.3090 F       1  UNL1       -0.1968
     33 C         -26.8089   -0.3604   28.9701 C.1     1  UNL1        0.0771
     34 C         -24.5112    1.3723   27.0913 C.ar    1  UNL1        0.0863
     35 C         -25.4001   -0.1234   29.0835 C.3     1  UNL1        0.1234
     36 C         -22.0281    1.2485   27.9902 C.ar    1  UNL1        0.2216
     37 C         -22.2650    1.8697   26.7943 C.ar    1  UNL1        0.2530
     38 N         -23.5116    1.8568   26.3472 N.ar    1  UNL1       -0.2161
     39 N         -27.9288   -0.6370   29.0362 N.1     1  UNL1       -0.1955
     40 N         -22.0709   -0.7849   30.0212 N.3     1  UNL1        0.1109
@<TRIPOS>BOND
     1     1    35    1
     2     2     7    1
     3     2     1    1
     4     3     2    2
     5     4     3    1
     6     4     5    2
     7     5     6    1
     8     6     7    2
     9     8     1    1
    10     8     9    1
    11     8    12    1
    12     9    10    1
    13    10    11    1
    14    12    11    1
    15    13    34    1
    16    14    13    1
    17    14    15    1
    18    15    18    2
    19    16    17    1
    20    16    15    1
    21    19    14    2
    22    20    21    2
    23    20    19    1
    24    21    26    1
    25    22    21    1
    26    23    22    1
    27    24    23    1
    28    24    25    1
    29    26    27    1
    30    26    13    2
    31    29    37    1
    32    30    31   ar
    33    30    35    1
    34    31    28    1
    35    33    39    3
    36    34    30   ar
    37    35    33    1
    38    36    32    1
    39    36    31   ar
    40    37    36   ar
    41    38    37   ar
    42    38    34   ar
    43    40    28    1
