@<TRIPOS>MOLECULE
outputs/IAG933/test6/raw/output_6144_IAG933_linker_design_.xyz
 39 42 0 0 0
SMALL
GASTEIGER

@<TRIPOS>ATOM
      1 C         -24.8550   -1.0120   30.1430 C.3     1  UNL1        0.1000
      2 C         -24.9730   -2.5050   29.7880 C.2     1  UNL1       -0.0141
      3 C         -23.9060   -3.1730   29.1460 C.2     1  UNL1       -0.0038
      4 C         -23.9890   -4.5490   28.8530 C.2     1  UNL1       -0.0003
      5 C         -25.1370   -5.2800   29.2050 C.2     1  UNL1       -0.0000
      6 C         -26.2320   -4.6110   29.7840 C.2     1  UNL1       -0.0003
      7 C         -26.1550   -3.2320   30.0650 C.2     1  UNL1       -0.0038
      8 C         -25.3870   -0.6790   31.5710 C.3     1  UNL1        0.0839
      9 C         -25.1890    0.7730   32.0280 C.3     1  UNL1        0.0196
     10 C         -25.3360    0.6840   33.5440 C.3     1  UNL1        0.0203
     11 C         -24.8290   -0.7150   33.9050 C.3     1  UNL1        0.0887
     12 N         -24.7580   -1.4810   32.6460 N.3     1  UNL1       -0.2187
     13 C         -25.6880    1.6140   26.4610 C.2     1  UNL1        0.0249
     14 C         -26.2500    2.9200   26.3950 C.2     1  UNL1        0.0730
     15 C         -25.6420    4.0930   27.1230 C.2     1  UNL1        0.2661
     16 N         -25.6140    5.2520   26.4490 N.am    1  UNL1       -0.1997
     17 C         -25.0260    6.4790   26.9630 C.3     1  UNL1        0.1388
     18 O         -25.1430    3.9660   28.2430 O.2     1  UNL1       -0.2683
     19 C         -27.4380    3.0910   25.6450 C.2     1  UNL1        0.1064
     20 N         -28.0750    2.0890   25.0030 N.2     1  UNL1       -0.2081
     21 C         -27.5430    0.8490   25.0790 C.2     1  UNL1        0.2530
     22 O         -28.1930   -0.2080   24.4770 O.2     1  UNL1       -0.4558
     23 C         -29.4600    0.0050   23.8660 C.3     1  UNL1        0.2426
     24 C         -30.0650   -1.3770   23.5730 C.3     1  UNL1        0.2292
     25 O         -30.7290   -1.8780   24.7210 O.3     1  UNL1       -0.2162
     26 C         -26.3540    0.5760   25.7770 C.2     1  UNL1        0.1896
     27 F         -25.8600   -0.6810   25.7950 F       1  UNL1       -0.1996
     28 N         -23.7290    1.1812   29.5325 N.pl3   1  UNL1       -0.0215
     29 C         -23.4027    2.9552   24.9472 C.1     1  UNL1       -0.0094
     30 C         -24.5572    1.3548   27.3184 C.3     1  UNL1        0.1116
     31 C         -22.1316    1.4804   27.8776 C.2     1  UNL1        0.2340
     32 C         -24.6079    0.9544   28.6067 C.3     1  UNL1        0.2704
     33 C         -23.2013    1.6918   26.9911 C.2     1  UNL1        0.0637
     34 N         -21.8615    0.1266   29.8922 N.2     1  UNL1        0.1997
     35 C         -25.5662   -0.1401   29.0928 C.2     1  UNL1        0.2027
     36 F         -20.8611    1.8900   27.5645 F       1  UNL1       -0.1957
     37 C         -23.2177    2.3103   25.9449 C.1     1  UNL1       -0.0526
     38 C         -22.4783    0.9333   29.1096 C.2     1  UNL1        0.4411
     39 O         -26.4890   -0.5813   28.5347 O.2     1  UNL1       -0.2913
@<TRIPOS>BOND
     1     1    35    1
     2     2     7    1
     3     2     1    1
     4     3     2    2
     5     4     3    1
     6     4     5    2
     7     5     6    1
     8     6     7    2
     9     8     1    1
    10     8     9    1
    11     8    12    1
    12     9    10    1
    13    10    11    1
    14    12    11    1
    15    14    13    1
    16    14    15    1
    17    15    18    2
    18    16    17    1
    19    16    15    1
    20    19    14    2
    21    20    21    2
    22    20    19    1
    23    21    26    1
    24    22    21    1
    25    23    22    1
    26    24    23    1
    27    24    25    1
    28    26    27    1
    29    26    13    2
    30    29    37    3
    31    30    13    1
    32    30    32    1
    33    31    38    1
    34    32    35    1
    35    32    28    1
    36    33    30    1
    37    33    31    2
    38    36    31    1
    39    37    33    1
    40    38    28    1
    41    38    34    2
    42    39    35    2
