@<TRIPOS>MOLECULE
outputs/IAG933/test6/raw/output_6146_IAG933_linker_design_.xyz
 46 50 0 0 0
SMALL
GASTEIGER

@<TRIPOS>ATOM
      1 C         -24.8550   -1.0120   30.1430 C.3     1  UNL1        0.1532
      2 C         -24.9730   -2.5050   29.7880 C.2     1  UNL1        0.0059
      3 C         -23.9060   -3.1730   29.1460 C.2     1  UNL1       -0.0019
      4 C         -23.9890   -4.5490   28.8530 C.2     1  UNL1       -0.0002
      5 C         -25.1370   -5.2800   29.2050 C.2     1  UNL1       -0.0000
      6 C         -26.2320   -4.6110   29.7840 C.2     1  UNL1       -0.0002
      7 C         -26.1550   -3.2320   30.0650 C.2     1  UNL1       -0.0019
      8 C         -25.3870   -0.6790   31.5710 C.3     1  UNL1        0.1041
      9 C         -25.1890    0.7730   32.0280 C.3     1  UNL1        0.0217
     10 C         -25.3360    0.6840   33.5440 C.3     1  UNL1        0.0203
     11 C         -24.8290   -0.7150   33.9050 C.3     1  UNL1        0.0888
     12 N         -24.7580   -1.4810   32.6460 N.3     1  UNL1       -0.2166
     13 C         -25.6880    1.6140   26.4610 C.3     1  UNL1        0.1290
     14 C         -26.2500    2.9200   26.3950 C.2     1  UNL1        0.0696
     15 C         -25.6420    4.0930   27.1230 C.2     1  UNL1        0.2637
     16 N         -25.6140    5.2520   26.4490 N.am    1  UNL1       -0.2000
     17 C         -25.0260    6.4790   26.9630 C.3     1  UNL1        0.1388
     18 O         -25.1430    3.9660   28.2430 O.2     1  UNL1       -0.2686
     19 C         -27.4380    3.0910   25.6450 C.2     1  UNL1        0.1035
     20 N         -28.0750    2.0890   25.0030 N.2     1  UNL1       -0.2118
     21 C         -27.5430    0.8490   25.0790 C.2     1  UNL1        0.2355
     22 O         -28.1930   -0.2080   24.4770 O.2     1  UNL1       -0.4586
     23 C         -29.4600    0.0050   23.8660 C.3     1  UNL1        0.2388
     24 C         -30.0650   -1.3770   23.5730 C.3     1  UNL1        0.1893
     25 O         -30.7290   -1.8780   24.7210 O.3     1  UNL1       -0.3498
     26 C         -26.3540    0.5760   25.7770 C.3     1  UNL1        0.2546
     27 F         -25.8600   -0.6810   25.7950 F       1  UNL1       -0.2254
     28 N         -28.8000    1.1626   29.3805 N.3     1  UNL1       -0.2588
     29 C         -28.7404    2.9538   31.2498 C.3     1  UNL1        0.0189
     30 C         -23.4530    1.0133   26.9773 C.3     1  UNL1        0.1430
     31 C         -31.4554   -0.6789   27.3370 C.3     1  UNL1        0.0053
     32 C         -29.8758    3.0067   29.0588 C.3     1  UNL1        0.1061
     33 N         -30.0850    2.1687   27.9612 N.3     1  UNL1       -0.2021
     34 C         -32.6149   -0.6323   28.3144 C.3     1  UNL1        0.0002
     35 C         -22.7327    0.6117   28.3837 C.3     1  UNL1        0.1411
     36 O         -23.7220   -0.3961   29.3087 O.3     1  UNL1       -0.3506
     37 C         -30.1193   -0.2734   27.9252 C.3     1  UNL1        0.0341
     38 BR        -22.6404    2.0515   25.7230 Br      1  UNL1       -0.0611
     39 C         -21.2272    0.8693   28.0497 C.3     1  UNL1        0.0345
     40 C         -26.2049    0.6205   28.4392 C.3     1  UNL1        0.0906
     41 C         -31.7465   -2.1861   26.9439 C.3     1  UNL1        0.0322
     42 N         -25.0045    1.0900   27.5107 N.3     1  UNL1       -0.2563
     43 C         -27.4313    0.5679   29.4808 C.3     1  UNL1        0.0907
     44 C         -29.4827    2.1548   30.1255 C.3     1  UNL1        0.0762
     45 C         -31.9304   -2.3281   25.3793 C.3     1  UNL1        0.1423
     46 C         -29.7084    0.9570   28.3945 C.3     1  UNL1        0.1320
@<TRIPOS>BOND
     1     1    36    1
     2     2     7    1
     3     2     1    1
     4     3     2    2
     5     4     3    1
     6     4     5    2
     7     5     6    1
     8     6     7    2
     9     8     1    1
    10     8     9    1
    11     8    12    1
    12     9    10    1
    13    10    11    1
    14    12    11    1
    15    13    14    1
    16    13    42    1
    17    14    15    1
    18    15    18    2
    19    16    17    1
    20    16    15    1
    21    19    14    2
    22    20    21    2
    23    20    19    1
    24    21    26    1
    25    22    21    1
    26    23    22    1
    27    24    23    1
    28    24    25    1
    29    25    45    1
    30    26    27    1
    31    26    13    1
    32    28    43    1
    33    28    44    1
    34    30    38    1
    35    30    42    1
    36    30    35    1
    37    31    37    1
    38    31    34    1
    39    32    44    1
    40    33    46    1
    41    33    32    1
    42    35    39    1
    43    35    36    1
    44    40    43    1
    45    41    31    1
    46    42    40    1
    47    44    29    1
    48    45    41    1
    49    46    37    1
    50    46    28    1
