@<TRIPOS>MOLECULE
outputs/IAG933/test6/raw/output_6148_IAG933_linker_design_.xyz
 43 47 0 0 0
SMALL
GASTEIGER

@<TRIPOS>ATOM
      1 C         -24.8550   -1.0120   30.1430 C.3     1  UNL1        0.0697
      2 C         -24.9730   -2.5050   29.7880 C.2     1  UNL1       -0.0186
      3 C         -23.9060   -3.1730   29.1460 C.2     1  UNL1       -0.0042
      4 C         -23.9890   -4.5490   28.8530 C.2     1  UNL1       -0.0003
      5 C         -25.1370   -5.2800   29.2050 C.2     1  UNL1       -0.0000
      6 C         -26.2320   -4.6110   29.7840 C.2     1  UNL1       -0.0003
      7 C         -26.1550   -3.2320   30.0650 C.2     1  UNL1       -0.0042
      8 C         -25.3870   -0.6790   31.5710 C.3     1  UNL1        0.0818
      9 C         -25.1890    0.7730   32.0280 C.3     1  UNL1        0.0509
     10 C         -25.3360    0.6840   33.5440 C.3     1  UNL1        0.0228
     11 C         -24.8290   -0.7150   33.9050 C.3     1  UNL1        0.0888
     12 N         -24.7580   -1.4810   32.6460 N.3     1  UNL1       -0.2190
     13 C         -25.6880    1.6140   26.4610 C.2     1  UNL1        0.0878
     14 C         -26.2500    2.9200   26.3950 C.2     1  UNL1        0.0899
     15 C         -25.6420    4.0930   27.1230 C.2     1  UNL1        0.2676
     16 N         -25.6140    5.2520   26.4490 N.am    1  UNL1       -0.1997
     17 C         -25.0260    6.4790   26.9630 C.3     1  UNL1        0.1388
     18 O         -25.1430    3.9660   28.2430 O.2     1  UNL1       -0.2683
     19 C         -27.4380    3.0910   25.6450 C.2     1  UNL1        0.1080
     20 N         -28.0750    2.0890   25.0030 N.2     1  UNL1       -0.2080
     21 C         -27.5430    0.8490   25.0790 C.2     1  UNL1        0.2546
     22 O         -28.1930   -0.2080   24.4770 O.2     1  UNL1       -0.4558
     23 C         -29.4600    0.0050   23.8660 C.3     1  UNL1        0.2426
     24 C         -30.0650   -1.3770   23.5730 C.3     1  UNL1        0.2292
     25 O         -30.7290   -1.8780   24.7210 O.3     1  UNL1       -0.2162
     26 C         -26.3540    0.5760   25.7770 C.2     1  UNL1        0.2063
     27 F         -25.8600   -0.6810   25.7950 F       1  UNL1       -0.1979
     28 O         -23.7185    6.0180   32.3339 O.3     1  UNL1       -0.1455
     29 C         -22.4757    0.5827   28.1965 C.3     1  UNL1        0.0509
     30 C         -22.8678    2.6260   25.2215 C.3     1  UNL1        0.0215
     31 C         -23.1543    2.2603   26.7060 C.3     1  UNL1        0.0751
     32 O         -25.1481    4.4660   31.1074 O.3     1  UNL1       -0.2915
     33 C         -24.5753   -0.1420   29.1421 C.3     1  UNL1        0.1646
     34 C         -24.9324    1.9764   31.1660 C.3     1  UNL1        0.1841
     35 O         -23.5885    2.1963   30.9305 O.3     1  UNL1       -0.2204
     36 C         -23.9835    0.4590   27.9316 C.3     1  UNL1        0.1786
     37 O         -24.4774   -0.6834   27.8917 O.3     1  UNL1       -0.3372
     38 C         -25.6828    3.2384   31.5927 C.3     1  UNL1        0.1914
     39 N         -24.3434    1.3660   27.0251 N.pl3   1  UNL1       -0.2870
     40 S         -24.9970    5.7987   31.7966 S.3     1  UNL1        0.0285
     41 C         -21.8976    1.5960   27.3364 C.3     1  UNL1        0.0241
     42 C         -26.2990    5.8966   32.9449 C.3     1  UNL1        0.1082
     43 C         -25.4719    7.0515   30.6486 C.3     1  UNL1        0.1082
@<TRIPOS>BOND
     1     1     2    1
     2     2     7    1
     3     3     2    2
     4     4     3    1
     5     4     5    2
     6     5     6    1
     7     6     7    2
     8     8     1    1
     9     8     9    1
    10     8    12    1
    11     9    34    1
    12     9    10    1
    13    10    11    1
    14    12    11    1
    15    13    39    1
    16    14    13    1
    17    14    15    1
    18    15    18    2
    19    16    17    1
    20    16    15    1
    21    19    14    2
    22    20    21    2
    23    20    19    1
    24    21    26    1
    25    22    21    1
    26    23    22    1
    27    24    23    1
    28    24    25    1
    29    26    27    1
    30    26    13    2
    31    31    30    1
    32    31    39    1
    33    31    41    1
    34    32    38    1
    35    32    40    1
    36    33     1    1
    37    34    35    1
    38    34    38    1
    39    36    29    1
    40    36    33    1
    41    37    36    1
    42    37    33    1
    43    39    36    1
    44    40    28    1
    45    40    42    1
    46    41    29    1
    47    43    40    1
