@<TRIPOS>MOLECULE
outputs/IAG933/test6/raw/output_6150_IAG933_linker_design_.xyz
 46 50 0 0 0
SMALL
GASTEIGER

@<TRIPOS>ATOM
      1 C         -24.8550   -1.0120   30.1430 C.3     1  UNL1        0.0671
      2 C         -24.9730   -2.5050   29.7880 C.2     1  UNL1       -0.0190
      3 C         -23.9060   -3.1730   29.1460 C.2     1  UNL1       -0.0042
      4 C         -23.9890   -4.5490   28.8530 C.2     1  UNL1       -0.0003
      5 C         -25.1370   -5.2800   29.2050 C.2     1  UNL1       -0.0000
      6 C         -26.2320   -4.6110   29.7840 C.2     1  UNL1       -0.0003
      7 C         -26.1550   -3.2320   30.0650 C.2     1  UNL1       -0.0042
      8 C         -25.3870   -0.6790   31.5710 C.3     1  UNL1        0.0790
      9 C         -25.1890    0.7730   32.0280 C.3     1  UNL1        0.0193
     10 C         -25.3360    0.6840   33.5440 C.3     1  UNL1        0.0202
     11 C         -24.8290   -0.7150   33.9050 C.3     1  UNL1        0.0887
     12 N         -24.7580   -1.4810   32.6460 N.3     1  UNL1       -0.2191
     13 C         -25.6880    1.6140   26.4610 C.3     1  UNL1        0.0945
     14 C         -26.2500    2.9200   26.3950 C.2     1  UNL1        0.0590
     15 C         -25.6420    4.0930   27.1230 C.2     1  UNL1        0.2628
     16 N         -25.6140    5.2520   26.4490 N.am    1  UNL1       -0.2000
     17 C         -25.0260    6.4790   26.9630 C.3     1  UNL1        0.1388
     18 O         -25.1430    3.9660   28.2430 O.2     1  UNL1       -0.2686
     19 C         -27.4380    3.0910   25.6450 C.2     1  UNL1        0.1025
     20 N         -28.0750    2.0890   25.0030 N.2     1  UNL1       -0.2118
     21 C         -27.5430    0.8490   25.0790 C.2     1  UNL1        0.2344
     22 O         -28.1930   -0.2080   24.4770 O.2     1  UNL1       -0.4585
     23 C         -29.4600    0.0050   23.8660 C.3     1  UNL1        0.2423
     24 C         -30.0650   -1.3770   23.5730 C.3     1  UNL1        0.2292
     25 O         -30.7290   -1.8780   24.7210 O.3     1  UNL1       -0.2162
     26 C         -26.3540    0.5760   25.7770 C.3     1  UNL1        0.2441
     27 F         -25.8600   -0.6810   25.7950 F       1  UNL1       -0.2265
     28 C         -29.0708    1.3578   28.0110 C.3     1  UNL1        0.0934
     29 C         -21.8515    1.8876   26.7449 C.2     1  UNL1        0.0145
     30 C         -28.7485    3.4908   29.1146 C.3     1  UNL1        0.0035
     31 O         -27.8731   -0.9849   28.0642 O.2     1  UNL1       -0.2730
     32 O         -22.8708    0.6245   29.9320 O.2     1  UNL1       -0.2852
     33 C         -25.8603   -0.3454   29.1862 C.3     1  UNL1        0.1738
     34 C         -24.2136    0.9624   28.1957 C.2     1  UNL1        0.1018
     35 C         -24.2743    1.4116   26.8333 C.2     1  UNL1        0.0135
     36 N         -25.2875    0.8704   28.8235 N.pl3   1  UNL1       -0.2268
     37 C         -23.0730    1.6254   26.1451 C.2     1  UNL1        0.0555
     38 C         -28.5531    2.8732   30.5177 C.3     1  UNL1        0.0216
     39 C         -28.7582    1.3853   30.4617 C.3     1  UNL1        0.0934
     40 C         -31.1293    2.3896   29.0534 C.3     1  UNL1        0.0018
     41 C         -27.3839   -0.2347   28.7878 C.2     1  UNL1        0.2458
     42 C         -21.7537    1.6117   28.1134 C.2     1  UNL1        0.0442
     43 N         -28.4465    0.9612   29.1966 N.am    1  UNL1       -0.2782
     44 C         -29.7983    2.6249   28.3331 C.3     1  UNL1        0.0199
     45 C         -22.9154    1.1267   28.7496 C.2     1  UNL1        0.2101
     46 CL        -23.1434    1.4213   24.3904 Cl      1  UNL1       -0.0825
@<TRIPOS>BOND
     1     1    33    1
     2     2     7    1
     3     2     1    1
     4     3     2    2
     5     4     3    1
     6     4     5    2
     7     5     6    1
     8     6     7    2
     9     8     1    1
    10     8     9    1
    11     8    12    1
    12     9    10    1
    13    10    11    1
    14    12    11    1
    15    13    35    1
    16    14    13    1
    17    14    15    1
    18    15    18    2
    19    16    17    1
    20    16    15    1
    21    19    14    2
    22    20    21    2
    23    20    19    1
    24    21    26    1
    25    22    21    1
    26    23    22    1
    27    24    23    1
    28    24    25    1
    29    26    27    1
    30    26    13    1
    31    28    44    1
    32    28    43    1
    33    29    42    1
    34    30    38    1
    35    31    41    2
    36    33    41    1
    37    34    45    1
    38    34    36    1
    39    35    34    2
    40    36    33    1
    41    37    29    2
    42    37    35    1
    43    39    38    1
    44    41    43   am
    45    42    45    2
    46    43    39    1
    47    44    40    1
    48    44    30    1
    49    45    32    1
    50    46    37    1
