@<TRIPOS>MOLECULE
outputs/IAG933/test6/raw/output_6151_IAG933_linker_design_.xyz
 40 44 0 0 0
SMALL
GASTEIGER

@<TRIPOS>ATOM
      1 C         -24.8550   -1.0120   30.1430 C.3     1  UNL1        0.0959
      2 C         -24.9730   -2.5050   29.7880 C.2     1  UNL1       -0.0142
      3 C         -23.9060   -3.1730   29.1460 C.2     1  UNL1       -0.0038
      4 C         -23.9890   -4.5490   28.8530 C.2     1  UNL1       -0.0003
      5 C         -25.1370   -5.2800   29.2050 C.2     1  UNL1       -0.0000
      6 C         -26.2320   -4.6110   29.7840 C.2     1  UNL1       -0.0003
      7 C         -26.1550   -3.2320   30.0650 C.2     1  UNL1       -0.0038
      8 C         -25.3870   -0.6790   31.5710 C.3     1  UNL1        0.0861
      9 C         -25.1890    0.7730   32.0280 C.3     1  UNL1        0.0458
     10 C         -25.3360    0.6840   33.5440 C.3     1  UNL1        0.0226
     11 C         -24.8290   -0.7150   33.9050 C.3     1  UNL1        0.0888
     12 N         -24.7580   -1.4810   32.6460 N.3     1  UNL1       -0.2186
     13 C         -25.6880    1.6140   26.4610 C.3     1  UNL1        0.0862
     14 C         -26.2500    2.9200   26.3950 C.2     1  UNL1        0.0562
     15 C         -25.6420    4.0930   27.1230 C.2     1  UNL1        0.2625
     16 N         -25.6140    5.2520   26.4490 N.am    1  UNL1       -0.2000
     17 C         -25.0260    6.4790   26.9630 C.3     1  UNL1        0.1388
     18 O         -25.1430    3.9660   28.2430 O.2     1  UNL1       -0.2687
     19 C         -27.4380    3.0910   25.6450 C.2     1  UNL1        0.1022
     20 N         -28.0750    2.0890   25.0030 N.2     1  UNL1       -0.2119
     21 C         -27.5430    0.8490   25.0790 C.2     1  UNL1        0.2341
     22 O         -28.1930   -0.2080   24.4770 O.2     1  UNL1       -0.4585
     23 C         -29.4600    0.0050   23.8660 C.3     1  UNL1        0.2423
     24 C         -30.0650   -1.3770   23.5730 C.3     1  UNL1        0.2292
     25 O         -30.7290   -1.8780   24.7210 O.3     1  UNL1       -0.2162
     26 C         -26.3540    0.5760   25.7770 C.3     1  UNL1        0.2413
     27 F         -25.8600   -0.6810   25.7950 F       1  UNL1       -0.2268
     28 C         -23.1613    1.3260   29.9096 C.3     1  UNL1        0.0451
     29 C         -21.9166    1.8149   26.2627 C.3     1  UNL1        0.0917
     30 C         -23.2364    1.9082   25.7730 C.3     1  UNL1        0.0367
     31 O         -24.3863    3.0680   31.6180 O.3     1  UNL1       -0.3531
     32 C         -25.4157    0.0577   29.2963 C.2     1  UNL1        0.1577
     33 C         -25.2051    1.9993   31.0290 C.3     1  UNL1        0.1236
     34 C         -24.2402    1.5582   26.7201 C.3     1  UNL1        0.0830
     35 C         -25.0934    3.9581   32.4705 C.3     1  UNL1        0.1740
     36 N         -23.7588    1.3513   27.8746 N.3     1  UNL1       -0.2032
     37 O         -26.4628   -0.0658   28.6522 O.2     1  UNL1       -0.2956
     38 C         -24.7352    1.4605   29.6018 C.3     1  UNL1        0.0880
     39 N         -21.6570    1.4596   27.5484 N.3     1  UNL1       -0.2022
     40 C         -22.7649    1.0834   28.2385 C.3     1  UNL1        0.1454
@<TRIPOS>BOND
     1     1     2    1
     2     1     8    1
     3     2     7    1
     4     3     2    2
     5     4     3    1
     6     4     5    2
     7     5     6    1
     8     6     7    2
     9     8     9    1
    10     8    12    1
    11     9    10    1
    12    10    11    1
    13    12    11    1
    14    13    14    1
    15    13    34    1
    16    14    15    1
    17    15    18    2
    18    16    17    1
    19    16    15    1
    20    19    14    2
    21    20    21    2
    22    20    19    1
    23    21    26    1
    24    22    21    1
    25    23    22    1
    26    24    23    1
    27    24    25    1
    28    26    27    1
    29    26    13    1
    30    29    39    1
    31    30    29    1
    32    31    35    1
    33    32    38    1
    34    32     1    1
    35    33    31    1
    36    33     9    1
    37    34    30    1
    38    34    36    1
    39    36    40    1
    40    37    32    2
    41    38    28    1
    42    38    33    1
    43    39    40    1
    44    40    28    1
