@<TRIPOS>MOLECULE
outputs/IAG933/test6/raw/output_6157_IAG933_linker_design_.xyz
 46 49 0 0 0
SMALL
GASTEIGER

@<TRIPOS>ATOM
      1 C         -24.8550   -1.0120   30.1430 C.3     1  UNL1        0.0603
      2 C         -24.9730   -2.5050   29.7880 C.2     1  UNL1       -0.0171
      3 C         -23.9060   -3.1730   29.1460 C.2     1  UNL1       -0.0039
      4 C         -23.9890   -4.5490   28.8530 C.2     1  UNL1       -0.0003
      5 C         -25.1370   -5.2800   29.2050 C.2     1  UNL1       -0.0000
      6 C         -26.2320   -4.6110   29.7840 C.2     1  UNL1       -0.0003
      7 C         -26.1550   -3.2320   30.0650 C.2     1  UNL1       -0.0039
      8 C         -25.3870   -0.6790   31.5710 C.3     1  UNL1        0.0808
      9 C         -25.1890    0.7730   32.0280 C.3     1  UNL1        0.0195
     10 C         -25.3360    0.6840   33.5440 C.3     1  UNL1        0.0203
     11 C         -24.8290   -0.7150   33.9050 C.3     1  UNL1        0.0887
     12 N         -24.7580   -1.4810   32.6460 N.3     1  UNL1       -0.2188
     13 C         -25.6880    1.6140   26.4610 C.2     1  UNL1        0.0400
     14 C         -26.2500    2.9200   26.3950 C.2     1  UNL1        0.0766
     15 C         -25.6420    4.0930   27.1230 C.2     1  UNL1        0.2664
     16 N         -25.6140    5.2520   26.4490 N.am    1  UNL1       -0.1997
     17 C         -25.0260    6.4790   26.9630 C.3     1  UNL1        0.1388
     18 O         -25.1430    3.9660   28.2430 O.2     1  UNL1       -0.2683
     19 C         -27.4380    3.0910   25.6450 C.2     1  UNL1        0.1067
     20 N         -28.0750    2.0890   25.0030 N.2     1  UNL1       -0.2081
     21 C         -27.5430    0.8490   25.0790 C.2     1  UNL1        0.2533
     22 O         -28.1930   -0.2080   24.4770 O.2     1  UNL1       -0.4558
     23 C         -29.4600    0.0050   23.8660 C.3     1  UNL1        0.2426
     24 C         -30.0650   -1.3770   23.5730 C.3     1  UNL1        0.2292
     25 O         -30.7290   -1.8780   24.7210 O.3     1  UNL1       -0.2162
     26 C         -26.3540    0.5760   25.7770 C.2     1  UNL1        0.1931
     27 F         -25.8600   -0.6810   25.7950 F       1  UNL1       -0.1992
     28 C         -22.8586    0.3195   29.1933 C.2     1  UNL1        0.0161
     29 C         -23.2913    1.4740   27.1047 C.2     1  UNL1        0.1564
     30 C         -28.4346   -1.0110   29.3664 C.3     1  UNL1        0.0314
     31 N         -21.1010    1.4805   28.0434 N.pl3   1  UNL1       -0.1257
     32 O         -31.7423   -0.4799   27.2951 O.co2   1  UNL1       -0.2456
     33 C         -25.1223    0.5966   28.5349 C.2     1  UNL1       -0.0235
     34 O         -29.3658   -3.1447   29.9878 O.3     1  UNL1       -0.1936
     35 C         -29.7132   -1.7010   29.9254 C.3     1  UNL1        0.1404
     36 C         -26.5676    0.7772   29.0762 C.3     1  UNL1        0.0262
     37 C         -29.9498   -1.4152   31.4457 C.3     1  UNL1        0.0336
     38 C         -30.7749   -1.8012   28.8425 C.3     1  UNL1        0.1444
     39 C         -31.3188   -0.4986   28.5158 C.2     1  UNL1        0.3674
     40 F         -22.8675    2.1112   25.9080 F       1  UNL1       -0.2028
     41 O         -31.3943    0.4563   29.2791 O.co2   1  UNL1       -0.2456
     42 C         -24.6816    1.2328   27.3435 C.2     1  UNL1        0.0271
     43 C         -24.2308    0.0068   29.2991 C.2     1  UNL1       -0.0195
     44 O         -30.3625   -4.0530   30.2856 O.3     1  UNL1       -0.0348
     45 C         -22.4181    1.1086   28.0980 C.2     1  UNL1        0.1161
     46 C         -28.0699    0.5253   29.5102 C.3     1  UNL1        0.0072
@<TRIPOS>BOND
     1     1    43    1
     2     2     7    1
     3     2     1    1
     4     3     2    2
     5     4     3    1
     6     4     5    2
     7     5     6    1
     8     6     7    2
     9     8     1    1
    10     8     9    1
    11     8    12    1
    12     9    10    1
    13    10    11    1
    14    12    11    1
    15    13    42    1
    16    14    13    1
    17    14    15    1
    18    15    18    2
    19    16    17    1
    20    16    15    1
    21    19    14    2
    22    20    21    2
    23    20    19    1
    24    21    26    1
    25    22    21    1
    26    23    22    1
    27    24    23    1
    28    24    25    1
    29    26    27    1
    30    26    13    2
    31    28    43    1
    32    29    42    2
    33    29    45    1
    34    30    46    1
    35    30    35    1
    36    31    45    1
    37    32    39   ar
    38    33    36    1
    39    33    43    2
    40    34    44    1
    41    35    34    1
    42    35    37    1
    43    36    46    1
    44    38    35    1
    45    39    38    1
    46    39    41   ar
    47    40    29    1
    48    42    33    1
    49    45    28    2
