@<TRIPOS>MOLECULE
No_616-gen_results/8p0m/2024-11-27-11-27-31/
 9 9 0 0 0
SMALL
GASTEIGER

@<TRIPOS>ATOM
      1 C         -28.0162   -0.8135   28.8779 C.ar    1  UNL1       -0.0000
      2 C         -28.4690   -0.7850   29.8287 C.ar    1  UNL1       -0.0000
      3 C         -27.1356    0.2359   28.5352 C.ar    1  UNL1       -0.0003
      4 C         -26.8745    1.2825   29.3982 C.ar    1  UNL1       -0.0000
      5 C         -28.3613    0.1987   30.9244 C.ar    1  UNL1       -0.0000
      6 C         -27.5277    1.2234   30.6356 C.ar    1  UNL1       -0.0000
      7 C         -26.3987    0.2949   27.2279 C.2     1  UNL1       -0.0046
      8 C         -25.8882    1.5487   26.8334 C.2     1  UNL1       -0.0258
      9 C         -25.6084    2.5578   27.8019 C.3     1  UNL1        0.0307
@<TRIPOS>BOND
     1     3     7    1
     2     7     8    2
     3     8     9    1
     4     1     2   ar
     5     2     5   ar
     6     5     6   ar
     7     6     4   ar
     8     4     3   ar
     9     3     1   ar
