@<TRIPOS>MOLECULE
outputs/IAG933/test6/raw/output_6160_IAG933_linker_design_.xyz
 42 45 0 0 0
SMALL
GASTEIGER

@<TRIPOS>ATOM
      1 C         -24.8550   -1.0120   30.1430 C.3     1  UNL1        0.1312
      2 C         -24.9730   -2.5050   29.7880 C.2     1  UNL1       -0.0013
      3 C         -23.9060   -3.1730   29.1460 C.2     1  UNL1       -0.0026
      4 C         -23.9890   -4.5490   28.8530 C.2     1  UNL1       -0.0003
      5 C         -25.1370   -5.2800   29.2050 C.2     1  UNL1       -0.0000
      6 C         -26.2320   -4.6110   29.7840 C.2     1  UNL1       -0.0003
      7 C         -26.1550   -3.2320   30.0650 C.2     1  UNL1       -0.0026
      8 C         -25.3870   -0.6790   31.5710 C.3     1  UNL1        0.0968
      9 C         -25.1890    0.7730   32.0280 C.3     1  UNL1        0.0210
     10 C         -25.3360    0.6840   33.5440 C.3     1  UNL1        0.0203
     11 C         -24.8290   -0.7150   33.9050 C.3     1  UNL1        0.0888
     12 N         -24.7580   -1.4810   32.6460 N.3     1  UNL1       -0.2174
     13 C         -25.6880    1.6140   26.4610 C.3     1  UNL1        0.0926
     14 C         -26.2500    2.9200   26.3950 C.2     1  UNL1        0.0587
     15 C         -25.6420    4.0930   27.1230 C.2     1  UNL1        0.2627
     16 N         -25.6140    5.2520   26.4490 N.am    1  UNL1       -0.2000
     17 C         -25.0260    6.4790   26.9630 C.3     1  UNL1        0.1388
     18 O         -25.1430    3.9660   28.2430 O.2     1  UNL1       -0.2686
     19 C         -27.4380    3.0910   25.6450 C.2     1  UNL1        0.1025
     20 N         -28.0750    2.0890   25.0030 N.2     1  UNL1       -0.2118
     21 C         -27.5430    0.8490   25.0790 C.2     1  UNL1        0.2344
     22 O         -28.1930   -0.2080   24.4770 O.2     1  UNL1       -0.4585
     23 C         -29.4600    0.0050   23.8660 C.3     1  UNL1        0.2423
     24 C         -30.0650   -1.3770   23.5730 C.3     1  UNL1        0.2292
     25 O         -30.7290   -1.8780   24.7210 O.3     1  UNL1       -0.2162
     26 C         -26.3540    0.5760   25.7770 C.3     1  UNL1        0.2438
     27 F         -25.8600   -0.6810   25.7950 F       1  UNL1       -0.2265
     28 F         -20.8634    1.2946   27.2684 F       1  UNL1       -0.2326
     29 C         -29.9790    0.9765   28.3406 C.3     1  UNL1        0.1232
     30 C         -22.0138    1.4794   27.9048 C.3     1  UNL1        0.2140
     31 C         -25.4532    0.4401   28.5027 C.2     1  UNL1        0.1017
     32 N         -29.4782    2.0413   29.2001 N.3     1  UNL1       -0.1303
     33 C         -27.8373   -0.2355   28.5966 C.1     1  UNL1       -0.0836
     34 C         -26.7077    0.1407   28.3791 C.1     1  UNL1       -0.0486
     35 C         -22.8987    0.4951   28.4427 C.3     1  UNL1        0.1613
     36 C         -29.3532   -0.4011   28.6366 C.3     1  UNL1        0.0969
     37 C         -23.3632    1.3977   27.2796 C.3     1  UNL1        0.1969
     38 O         -22.4286    1.9450   25.3653 O.3     1  UNL1       -0.0343
     39 C         -24.8008    1.2773   27.3963 C.2     1  UNL1        0.0169
     40 N         -22.1630   -0.4000   29.4633 N.3     1  UNL1       -0.1269
     41 N         -24.9174    0.0237   29.3006 N.pl3   1  UNL1       -0.2258
     42 O         -23.4429    2.4416   26.0305 O.3     1  UNL1       -0.1859
@<TRIPOS>BOND
     1     1    41    1
     2     2     7    1
     3     2     1    1
     4     3     2    2
     5     4     3    1
     6     4     5    2
     7     5     6    1
     8     6     7    2
     9     8     1    1
    10     8     9    1
    11     8    12    1
    12     9    10    1
    13    10    11    1
    14    12    11    1
    15    13    39    1
    16    14    13    1
    17    14    15    1
    18    15    18    2
    19    16    17    1
    20    16    15    1
    21    19    14    2
    22    20    21    2
    23    20    19    1
    24    21    26    1
    25    22    21    1
    26    23    22    1
    27    24    23    1
    28    24    25    1
    29    26    27    1
    30    26    13    1
    31    29    36    1
    32    29    32    1
    33    30    28    1
    34    30    35    1
    35    31    41    1
    36    33    36    1
    37    34    31    1
    38    34    33    3
    39    35    40    1
    40    37    42    1
    41    37    39    1
    42    37    30    1
    43    37    35    1
    44    38    42    1
    45    39    31    2
