@<TRIPOS>MOLECULE
outputs/IAG933/test6/raw/output_6170_IAG933_linker_design_.xyz
 47 51 0 0 0
SMALL
GASTEIGER

@<TRIPOS>ATOM
      1 C         -24.8550   -1.0120   30.1430 C.3     1  UNL1        0.0626
      2 C         -24.9730   -2.5050   29.7880 C.2     1  UNL1       -0.0191
      3 C         -23.9060   -3.1730   29.1460 C.2     1  UNL1       -0.0042
      4 C         -23.9890   -4.5490   28.8530 C.2     1  UNL1       -0.0003
      5 C         -25.1370   -5.2800   29.2050 C.2     1  UNL1       -0.0000
      6 C         -26.2320   -4.6110   29.7840 C.2     1  UNL1       -0.0003
      7 C         -26.1550   -3.2320   30.0650 C.2     1  UNL1       -0.0042
      8 C         -25.3870   -0.6790   31.5710 C.3     1  UNL1        0.0788
      9 C         -25.1890    0.7730   32.0280 C.3     1  UNL1        0.0193
     10 C         -25.3360    0.6840   33.5440 C.3     1  UNL1        0.0202
     11 C         -24.8290   -0.7150   33.9050 C.3     1  UNL1        0.0887
     12 N         -24.7580   -1.4810   32.6460 N.3     1  UNL1       -0.2191
     13 C         -25.6880    1.6140   26.4610 C.3     1  UNL1        0.0921
     14 C         -26.2500    2.9200   26.3950 C.2     1  UNL1        0.0589
     15 C         -25.6420    4.0930   27.1230 C.2     1  UNL1        0.2628
     16 N         -25.6140    5.2520   26.4490 N.am    1  UNL1       -0.2000
     17 C         -25.0260    6.4790   26.9630 C.3     1  UNL1        0.1388
     18 O         -25.1430    3.9660   28.2430 O.2     1  UNL1       -0.2686
     19 C         -27.4380    3.0910   25.6450 C.2     1  UNL1        0.1025
     20 N         -28.0750    2.0890   25.0030 N.2     1  UNL1       -0.2118
     21 C         -27.5430    0.8490   25.0790 C.2     1  UNL1        0.2344
     22 O         -28.1930   -0.2080   24.4770 O.2     1  UNL1       -0.4585
     23 C         -29.4600    0.0050   23.8660 C.3     1  UNL1        0.2423
     24 C         -30.0650   -1.3770   23.5730 C.3     1  UNL1        0.2292
     25 O         -30.7290   -1.8780   24.7210 O.3     1  UNL1       -0.2162
     26 C         -26.3540    0.5760   25.7770 C.3     1  UNL1        0.2440
     27 F         -25.8600   -0.6810   25.7950 F       1  UNL1       -0.2265
     28 C         -22.0165    1.9182   26.0621 C.2     1  UNL1        0.0011
     29 C         -29.0909    3.4570   29.9967 C.3     1  UNL1        0.1747
     30 C         -23.3519    1.8880   25.7415 C.2     1  UNL1       -0.0040
     31 C         -24.8211    0.1207   28.9870 C.3     1  UNL1        0.1254
     32 N         -22.1016    0.5128   29.4138 N.pl3   1  UNL1       -0.1283
     33 C         -23.8892    0.8491   27.9048 C.2     1  UNL1        0.0111
     34 C         -24.2661    1.4307   26.6969 C.2     1  UNL1       -0.0161
     35 O         -27.7250    3.8988   30.3411 O.3     1  UNL1       -0.2211
     36 N         -26.2591    0.4505   28.8485 N.am    1  UNL1       -0.1841
     37 C         -21.5815    1.4244   27.2807 C.2     1  UNL1        0.0178
     38 O         -28.2306   -0.4128   28.4092 O.2     1  UNL1       -0.2492
     39 C         -30.4186    2.2374   28.7453 C.3     1  UNL1        0.0272
     40 N         -28.1022    1.5561   29.5055 N.am    1  UNL1       -0.1864
     41 F         -29.7366    4.9648   28.1633 F       1  UNL1       -0.2346
     42 C         -31.1914    3.5263   28.8780 C.3     1  UNL1        0.0398
     43 C         -29.6770    3.2625   31.3877 C.3     1  UNL1        0.0376
     44 C         -27.5666    0.5085   28.8987 C.2     1  UNL1        0.3395
     45 C         -22.5054    0.9432   28.2049 C.2     1  UNL1        0.0864
     46 C         -30.0962    4.3698   29.2914 C.3     1  UNL1        0.1903
     47 C         -28.9184    2.5516   28.9726 C.3     1  UNL1        0.1275
@<TRIPOS>BOND
     1     1    31    1
     2     2     7    1
     3     2     1    1
     4     3     2    2
     5     4     3    1
     6     4     5    2
     7     5     6    1
     8     6     7    2
     9     8     1    1
    10     8     9    1
    11     8    12    1
    12     9    10    1
    13    10    11    1
    14    12    11    1
    15    13    34    1
    16    14    13    1
    17    14    15    1
    18    15    18    2
    19    16    17    1
    20    16    15    1
    21    19    14    2
    22    20    21    2
    23    20    19    1
    24    21    26    1
    25    22    21    1
    26    23    22    1
    27    24    23    1
    28    24    25    1
    29    26    27    1
    30    26    13    1
    31    28    37    1
    32    29    35    1
    33    29    43    1
    34    30    28    2
    35    30    34    1
    36    31    36    1
    37    33    45    1
    38    33    31    1
    39    34    33    2
    40    36    44    1
    41    37    45    2
    42    38    44    2
    43    39    42    1
    44    39    47    1
    45    42    46    1
    46    44    40    1
    47    45    32    1
    48    46    41    1
    49    46    29    1
    50    47    40    1
    51    47    29    1
