@<TRIPOS>MOLECULE
outputs/IAG933/test6/raw/output_6171_IAG933_linker_design_.xyz
 43 47 0 0 0
SMALL
GASTEIGER

@<TRIPOS>ATOM
      1 C         -24.8550   -1.0120   30.1430 C.3     1  UNL1        0.0583
      2 C         -24.9730   -2.5050   29.7880 C.2     1  UNL1       -0.0195
      3 C         -23.9060   -3.1730   29.1460 C.2     1  UNL1       -0.0042
      4 C         -23.9890   -4.5490   28.8530 C.2     1  UNL1       -0.0003
      5 C         -25.1370   -5.2800   29.2050 C.2     1  UNL1       -0.0000
      6 C         -26.2320   -4.6110   29.7840 C.2     1  UNL1       -0.0003
      7 C         -26.1550   -3.2320   30.0650 C.2     1  UNL1       -0.0042
      8 C         -25.3870   -0.6790   31.5710 C.3     1  UNL1        0.0785
      9 C         -25.1890    0.7730   32.0280 C.3     1  UNL1        0.0192
     10 C         -25.3360    0.6840   33.5440 C.3     1  UNL1        0.0202
     11 C         -24.8290   -0.7150   33.9050 C.3     1  UNL1        0.0887
     12 N         -24.7580   -1.4810   32.6460 N.3     1  UNL1       -0.2191
     13 C         -25.6880    1.6140   26.4610 C.2     1  UNL1        0.0251
     14 C         -26.2500    2.9200   26.3950 C.2     1  UNL1        0.0731
     15 C         -25.6420    4.0930   27.1230 C.2     1  UNL1        0.2661
     16 N         -25.6140    5.2520   26.4490 N.am    1  UNL1       -0.1997
     17 C         -25.0260    6.4790   26.9630 C.3     1  UNL1        0.1388
     18 O         -25.1430    3.9660   28.2430 O.2     1  UNL1       -0.2683
     19 C         -27.4380    3.0910   25.6450 C.2     1  UNL1        0.1064
     20 N         -28.0750    2.0890   25.0030 N.2     1  UNL1       -0.2081
     21 C         -27.5430    0.8490   25.0790 C.2     1  UNL1        0.2530
     22 O         -28.1930   -0.2080   24.4770 O.2     1  UNL1       -0.4558
     23 C         -29.4600    0.0050   23.8660 C.3     1  UNL1        0.2426
     24 C         -30.0650   -1.3770   23.5730 C.3     1  UNL1        0.2292
     25 O         -30.7290   -1.8780   24.7210 O.3     1  UNL1       -0.2162
     26 C         -26.3540    0.5760   25.7770 C.2     1  UNL1        0.1896
     27 F         -25.8600   -0.6810   25.7950 F       1  UNL1       -0.1996
     28 C         -24.2433    0.6613   28.2821 C.2     1  UNL1       -0.0020
     29 C         -25.2462   -0.0356   29.0573 C.3     1  UNL1        0.0995
     30 N         -22.4886    0.1638   29.9760 N.pl3   1  UNL1       -0.1287
     31 C         -22.8636    0.7566   28.7585 C.2     1  UNL1        0.0828
     32 C         -29.5424   -1.1607   29.1421 C.3     1  UNL1        0.0057
     33 F         -23.5188    1.2451   24.7941 F       1  UNL1       -0.1989
     34 C         -29.1531   -0.3106   27.8370 C.3     1  UNL1        0.0342
     35 C         -21.8881    1.7222   26.5460 C.2     1  UNL1        0.0409
     36 C         -28.2033   -0.8008   29.8244 C.3     1  UNL1        0.0342
     37 C         -28.0106    0.3943   28.8633 C.3     1  UNL1        0.1357
     38 N         -26.5975    0.0748   28.8582 N.3     1  UNL1       -0.2003
     39 C         -23.3692    1.7955   26.0723 C.3     1  UNL1        0.2895
     40 N         -28.4359    1.7253   29.3382 N.3     1  UNL1       -0.1166
     41 C         -21.7502    1.3207   27.9224 C.2     1  UNL1        0.0183
     42 F         -23.4241    3.2371   25.8195 F       1  UNL1       -0.1989
     43 C         -24.5008    1.2834   27.0269 C.3     1  UNL1        0.1110
@<TRIPOS>BOND
     1     1    29    1
     2     2     7    1
     3     2     1    1
     4     3     2    2
     5     4     3    1
     6     4     5    2
     7     5     6    1
     8     6     7    2
     9     8     1    1
    10     8     9    1
    11     8    12    1
    12     9    10    1
    13    10    11    1
    14    12    11    1
    15    14    13    1
    16    14    15    1
    17    15    18    2
    18    16    17    1
    19    16    15    1
    20    19    14    2
    21    20    21    2
    22    20    19    1
    23    21    26    1
    24    22    21    1
    25    23    22    1
    26    24    23    1
    27    24    25    1
    28    26    27    1
    29    26    13    2
    30    28    31    2
    31    28    29    1
    32    29    38    1
    33    31    30    1
    34    32    36    1
    35    33    39    1
    36    34    37    1
    37    34    32    1
    38    35    41    2
    39    37    40    1
    40    37    36    1
    41    38    37    1
    42    39    35    1
    43    39    43    1
    44    41    31    1
    45    42    39    1
    46    43    13    1
    47    43    28    1
