@<TRIPOS>MOLECULE
outputs/IAG933/test6/raw/output_6180_IAG933_linker_design_.xyz
 46 49 0 0 0
SMALL
GASTEIGER

@<TRIPOS>ATOM
      1 C         -24.8550   -1.0120   30.1430 C.3     1  UNL1        0.0437
      2 C         -24.9730   -2.5050   29.7880 C.2     1  UNL1       -0.0208
      3 C         -23.9060   -3.1730   29.1460 C.2     1  UNL1       -0.0042
      4 C         -23.9890   -4.5490   28.8530 C.2     1  UNL1       -0.0003
      5 C         -25.1370   -5.2800   29.2050 C.2     1  UNL1       -0.0000
      6 C         -26.2320   -4.6110   29.7840 C.2     1  UNL1       -0.0003
      7 C         -26.1550   -3.2320   30.0650 C.2     1  UNL1       -0.0042
      8 C         -25.3870   -0.6790   31.5710 C.3     1  UNL1        0.0772
      9 C         -25.1890    0.7730   32.0280 C.3     1  UNL1        0.0192
     10 C         -25.3360    0.6840   33.5440 C.3     1  UNL1        0.0202
     11 C         -24.8290   -0.7150   33.9050 C.3     1  UNL1        0.0887
     12 N         -24.7580   -1.4810   32.6460 N.3     1  UNL1       -0.2191
     13 C         -25.6880    1.6140   26.4610 C.2     1  UNL1        0.0210
     14 C         -26.2500    2.9200   26.3950 C.2     1  UNL1        0.0729
     15 C         -25.6420    4.0930   27.1230 C.2     1  UNL1        0.2661
     16 N         -25.6140    5.2520   26.4490 N.am    1  UNL1       -0.1997
     17 C         -25.0260    6.4790   26.9630 C.3     1  UNL1        0.1388
     18 O         -25.1430    3.9660   28.2430 O.2     1  UNL1       -0.2683
     19 C         -27.4380    3.0910   25.6450 C.2     1  UNL1        0.1064
     20 N         -28.0750    2.0890   25.0030 N.2     1  UNL1       -0.2081
     21 C         -27.5430    0.8490   25.0790 C.2     1  UNL1        0.2530
     22 O         -28.1930   -0.2080   24.4770 O.2     1  UNL1       -0.4558
     23 C         -29.4600    0.0050   23.8660 C.3     1  UNL1        0.2426
     24 C         -30.0650   -1.3770   23.5730 C.3     1  UNL1        0.2292
     25 O         -30.7290   -1.8780   24.7210 O.3     1  UNL1       -0.2162
     26 C         -26.3540    0.5760   25.7770 C.2     1  UNL1        0.1895
     27 F         -25.8600   -0.6810   25.7950 F       1  UNL1       -0.1996
     28 C         -24.0159   -0.0808   29.1945 C.3     1  UNL1        0.0462
     29 O         -28.6512    0.5826   29.7021 O.2     1  UNL1       -0.2222
     30 C         -24.3087    1.2221   26.8760 C.3     1  UNL1        0.0653
     31 C         -24.9050    0.6328   28.5019 C.2     1  UNL1        0.0793
     32 C         -31.3373   -4.1398   29.2508 C.3     1  UNL1        0.0321
     33 C         -23.2423    1.9276   26.8856 C.3     1  UNL1        0.0264
     34 C         -32.0228   -3.6548   27.9444 C.3     1  UNL1        0.1422
     35 N         -29.0372   -0.1262   27.6143 N.am    1  UNL1       -0.1642
     36 C         -22.3284    1.6837   28.0277 C.3     1  UNL1        0.0810
     37 CL        -20.6920    1.6914   27.4310 Cl      1  UNL1       -0.1150
     38 C         -22.5252    0.0814   28.4473 C.3     1  UNL1        0.0223
     39 O         -26.9964   -0.6494   28.7293 O.3     1  UNL1       -0.2980
     40 C         -28.2288   -0.0028   28.7083 C.2     1  UNL1        0.4461
     41 C         -33.4609   -5.2083   30.3286 C.3     1  UNL1        0.0001
     42 O         -31.4062   -2.4613   27.3854 O.3     1  UNL1       -0.3519
     43 C         -30.4952   -0.1375   27.8350 C.3     1  UNL1        0.1507
     44 N         -26.0545    0.3593   28.9417 N.2     1  UNL1       -0.0805
     45 C         -30.9635   -1.5099   28.3698 C.3     1  UNL1        0.1656
     46 C         -32.0004   -5.4047   29.8489 C.3     1  UNL1        0.0026
@<TRIPOS>BOND
     1     1     2    1
     2     2     7    1
     3     3     2    2
     4     4     3    1
     5     4     5    2
     6     5     6    1
     7     6     7    2
     8     8     1    1
     9     8     9    1
    10     8    12    1
    11     9    10    1
    12    10    11    1
    13    12    11    1
    14    14    13    1
    15    14    15    1
    16    15    18    2
    17    16    17    1
    18    16    15    1
    19    19    14    2
    20    20    21    2
    21    20    19    1
    22    21    26    1
    23    22    21    1
    24    23    22    1
    25    24    23    1
    26    24    25    1
    27    26    27    1
    28    26    13    2
    29    28     1    1
    30    30    13    1
    31    30    33    1
    32    30    31    1
    33    31    44    2
    34    31    28    1
    35    32    46    1
    36    33    36    1
    37    34    32    1
    38    35    43    1
    39    35    40    1
    40    36    37    1
    41    36    38    1
    42    38    28    1
    43    39    44    1
    44    40    39    1
    45    40    29    2
    46    42    34    1
    47    42    45    1
    48    43    45    1
    49    46    41    1
