@<TRIPOS>MOLECULE
outputs/IAG933/test6/raw/output_6183_IAG933_linker_design_.xyz
 45 48 0 0 0
SMALL
GASTEIGER

@<TRIPOS>ATOM
      1 C         -24.8550   -1.0120   30.1430 C.3     1  UNL1        0.0469
      2 C         -24.9730   -2.5050   29.7880 C.2     1  UNL1       -0.0207
      3 C         -23.9060   -3.1730   29.1460 C.2     1  UNL1       -0.0042
      4 C         -23.9890   -4.5490   28.8530 C.2     1  UNL1       -0.0003
      5 C         -25.1370   -5.2800   29.2050 C.2     1  UNL1       -0.0000
      6 C         -26.2320   -4.6110   29.7840 C.2     1  UNL1       -0.0003
      7 C         -26.1550   -3.2320   30.0650 C.2     1  UNL1       -0.0042
      8 C         -25.3870   -0.6790   31.5710 C.3     1  UNL1        0.0773
      9 C         -25.1890    0.7730   32.0280 C.3     1  UNL1        0.0192
     10 C         -25.3360    0.6840   33.5440 C.3     1  UNL1        0.0202
     11 C         -24.8290   -0.7150   33.9050 C.3     1  UNL1        0.0887
     12 N         -24.7580   -1.4810   32.6460 N.3     1  UNL1       -0.2191
     13 C         -25.6880    1.6140   26.4610 C.2     1  UNL1        0.0156
     14 C         -26.2500    2.9200   26.3950 C.2     1  UNL1        0.0726
     15 C         -25.6420    4.0930   27.1230 C.2     1  UNL1        0.2661
     16 N         -25.6140    5.2520   26.4490 N.am    1  UNL1       -0.1997
     17 C         -25.0260    6.4790   26.9630 C.3     1  UNL1        0.1388
     18 O         -25.1430    3.9660   28.2430 O.2     1  UNL1       -0.2683
     19 C         -27.4380    3.0910   25.6450 C.2     1  UNL1        0.1064
     20 N         -28.0750    2.0890   25.0030 N.2     1  UNL1       -0.2081
     21 C         -27.5430    0.8490   25.0790 C.2     1  UNL1        0.2530
     22 O         -28.1930   -0.2080   24.4770 O.2     1  UNL1       -0.4558
     23 C         -29.4600    0.0050   23.8660 C.3     1  UNL1        0.2426
     24 C         -30.0650   -1.3770   23.5730 C.3     1  UNL1        0.2292
     25 O         -30.7290   -1.8780   24.7210 O.3     1  UNL1       -0.2162
     26 C         -26.3540    0.5760   25.7770 C.2     1  UNL1        0.1891
     27 F         -25.8600   -0.6810   25.7950 F       1  UNL1       -0.1996
     28 C         -29.5595    0.5730   29.4214 C.3     1  UNL1        0.1154
     29 C         -31.8251    4.7680   30.4157 C.3     1  UNL1        0.0473
     30 C         -23.2367    1.8796   26.0980 C.3     1  UNL1        0.0044
     31 O         -30.4141    2.9445   31.0614 O.3     1  UNL1       -0.4511
     32 C         -30.1316    5.4081   32.0136 C.3     1  UNL1        0.0473
     33 N         -28.1190    0.8774   29.7147 N.am    1  UNL1       -0.2679
     34 O         -27.4280   -0.9674   28.5637 O.2     1  UNL1       -0.2749
     35 C         -21.9091    1.4805   28.2474 C.3     1  UNL1        0.0000
     36 O         -28.4635    3.5969   29.9535 O.2     1  UNL1       -0.2482
     37 C         -22.7398    0.2485   28.5986 C.3     1  UNL1        0.0008
     38 C         -24.1424    0.1820   27.9595 C.3     1  UNL1        0.0131
     39 C         -21.8453    1.7954   26.7434 C.3     1  UNL1        0.0003
     40 C         -30.9754    4.1923   31.5557 C.3     1  UNL1        0.1691
     41 C         -25.2929    0.0727   29.1233 C.3     1  UNL1        0.0824
     42 C         -26.9790   -0.0368   29.1770 C.2     1  UNL1        0.2260
     43 C         -29.0750    2.7748   30.6714 C.2     1  UNL1        0.3374
     44 C         -24.3623    1.4356   27.0795 C.3     1  UNL1        0.0254
     45 C         -28.3578    1.4713   31.0401 C.3     1  UNL1        0.2040
@<TRIPOS>BOND
     1     1    41    1
     2     2     7    1
     3     2     1    1
     4     3     2    2
     5     4     3    1
     6     4     5    2
     7     5     6    1
     8     6     7    2
     9     8     1    1
    10     8     9    1
    11     8    12    1
    12     9    10    1
    13    10    11    1
    14    12    11    1
    15    14    13    1
    16    14    15    1
    17    15    18    2
    18    16    17    1
    19    16    15    1
    20    19    14    2
    21    20    21    2
    22    20    19    1
    23    21    26    1
    24    22    21    1
    25    23    22    1
    26    24    23    1
    27    24    25    1
    28    26    27    1
    29    26    13    2
    30    28    33    1
    31    29    40    1
    32    30    39    1
    33    30    44    1
    34    31    40    1
    35    33    45    1
    36    34    42    2
    37    35    37    1
    38    36    43    2
    39    38    37    1
    40    38    41    1
    41    39    35    1
    42    40    32    1
    43    41    42    1
    44    42    33   am
    45    43    45    1
    46    43    31    1
    47    44    13    1
    48    44    38    1
