@<TRIPOS>MOLECULE
outputs/IAG933/test6/raw/output_6185_IAG933_linker_design_.xyz
 42 46 0 0 0
SMALL
GASTEIGER

@<TRIPOS>ATOM
      1 C         -24.8550   -1.0120   30.1430 C.3     1  UNL1        0.0636
      2 C         -24.9730   -2.5050   29.7880 C.2     1  UNL1       -0.0170
      3 C         -23.9060   -3.1730   29.1460 C.2     1  UNL1       -0.0039
      4 C         -23.9890   -4.5490   28.8530 C.2     1  UNL1       -0.0003
      5 C         -25.1370   -5.2800   29.2050 C.2     1  UNL1       -0.0000
      6 C         -26.2320   -4.6110   29.7840 C.2     1  UNL1       -0.0003
      7 C         -26.1550   -3.2320   30.0650 C.2     1  UNL1       -0.0039
      8 C         -25.3870   -0.6790   31.5710 C.3     1  UNL1        0.0809
      9 C         -25.1890    0.7730   32.0280 C.3     1  UNL1        0.0195
     10 C         -25.3360    0.6840   33.5440 C.3     1  UNL1        0.0203
     11 C         -24.8290   -0.7150   33.9050 C.3     1  UNL1        0.0887
     12 N         -24.7580   -1.4810   32.6460 N.3     1  UNL1       -0.2188
     13 C         -25.6880    1.6140   26.4610 C.2     1  UNL1        0.0440
     14 C         -26.2500    2.9200   26.3950 C.2     1  UNL1        0.0767
     15 C         -25.6420    4.0930   27.1230 C.2     1  UNL1        0.2664
     16 N         -25.6140    5.2520   26.4490 N.am    1  UNL1       -0.1997
     17 C         -25.0260    6.4790   26.9630 C.3     1  UNL1        0.1388
     18 O         -25.1430    3.9660   28.2430 O.2     1  UNL1       -0.2683
     19 C         -27.4380    3.0910   25.6450 C.2     1  UNL1        0.1067
     20 N         -28.0750    2.0890   25.0030 N.2     1  UNL1       -0.2081
     21 C         -27.5430    0.8490   25.0790 C.2     1  UNL1        0.2533
     22 O         -28.1930   -0.2080   24.4770 O.2     1  UNL1       -0.4558
     23 C         -29.4600    0.0050   23.8660 C.3     1  UNL1        0.2426
     24 C         -30.0650   -1.3770   23.5730 C.3     1  UNL1        0.2292
     25 O         -30.7290   -1.8780   24.7210 O.3     1  UNL1       -0.2162
     26 C         -26.3540    0.5760   25.7770 C.2     1  UNL1        0.1932
     27 F         -25.8600   -0.6810   25.7950 F       1  UNL1       -0.1992
     28 C         -25.1870    0.7285   28.5118 C.2     1  UNL1        0.1394
     29 C         -22.8907    1.2300   24.6417 C.3     1  UNL1        0.2526
     30 C         -22.8977    0.2437   29.0260 C.2     1  UNL1        0.0443
     31 O         -22.9220    2.1380   25.7572 O.2     1  UNL1       -0.4681
     32 O         -26.5255    0.9026   29.0484 O.2     1  UNL1       -0.4608
     33 O         -21.1751    1.2213   27.7082 O.2     1  UNL1       -0.2833
     34 C         -22.4468    1.0148   27.9529 C.2     1  UNL1        0.2292
     35 C         -23.3685    1.4888   26.9329 C.2     1  UNL1        0.1802
     36 O         -29.6016    1.4925   27.7483 O.3     1  UNL1       -0.2743
     37 C         -27.6924   -0.1193   29.0872 C.3     1  UNL1        0.2995
     38 S         -29.3977    0.5292   28.6171 S.3     1  UNL1        0.1000
     39 C         -28.9997    2.0293   28.8561 C.3     1  UNL1        0.2546
     40 O         -30.1531   -0.5915   28.6920 O.3     1  UNL1       -0.1395
     41 C         -24.2647    0.0100   29.2295 C.2     1  UNL1        0.0203
     42 C         -24.7139    1.3206   27.2426 C.2     1  UNL1        0.0734
@<TRIPOS>BOND
     1     1    41    1
     2     2     7    1
     3     2     1    1
     4     3     2    2
     5     4     3    1
     6     4     5    2
     7     5     6    1
     8     6     7    2
     9     8     1    1
    10     8     9    1
    11     8    12    1
    12     9    10    1
    13    10    11    1
    14    12    11    1
    15    13    42    1
    16    14    13    1
    17    14    15    1
    18    15    18    2
    19    16    17    1
    20    16    15    1
    21    19    14    2
    22    20    21    2
    23    20    19    1
    24    21    26    1
    25    22    21    1
    26    23    22    1
    27    24    23    1
    28    24    25    1
    29    26    27    1
    30    26    13    2
    31    28    32    1
    32    28    41    1
    33    29    31    1
    34    30    41    2
    35    31    35    1
    36    32    37    1
    37    33    34    1
    38    34    30    1
    39    35    42    1
    40    35    34    2
    41    36    38    1
    42    36    39    1
    43    38    40    1
    44    38    39    1
    45    38    37    1
    46    42    28    2
