@<TRIPOS>MOLECULE
outputs/IAG933/test6/raw/output_6196_IAG933_linker_design_.xyz
 42 46 0 0 0
SMALL
GASTEIGER

@<TRIPOS>ATOM
      1 C         -24.8550   -1.0120   30.1430 C.3     1  UNL1        0.0438
      2 C         -24.9730   -2.5050   29.7880 C.2     1  UNL1       -0.0208
      3 C         -23.9060   -3.1730   29.1460 C.2     1  UNL1       -0.0042
      4 C         -23.9890   -4.5490   28.8530 C.2     1  UNL1       -0.0003
      5 C         -25.1370   -5.2800   29.2050 C.2     1  UNL1       -0.0000
      6 C         -26.2320   -4.6110   29.7840 C.2     1  UNL1       -0.0003
      7 C         -26.1550   -3.2320   30.0650 C.2     1  UNL1       -0.0042
      8 C         -25.3870   -0.6790   31.5710 C.3     1  UNL1        0.0786
      9 C         -25.1890    0.7730   32.0280 C.3     1  UNL1        0.0392
     10 C         -25.3360    0.6840   33.5440 C.3     1  UNL1        0.0218
     11 C         -24.8290   -0.7150   33.9050 C.3     1  UNL1        0.0888
     12 N         -24.7580   -1.4810   32.6460 N.3     1  UNL1       -0.2191
     13 C         -25.6880    1.6140   26.4610 C.3     1  UNL1        0.0954
     14 C         -26.2500    2.9200   26.3950 C.2     1  UNL1        0.0590
     15 C         -25.6420    4.0930   27.1230 C.2     1  UNL1        0.2628
     16 N         -25.6140    5.2520   26.4490 N.am    1  UNL1       -0.2000
     17 C         -25.0260    6.4790   26.9630 C.3     1  UNL1        0.1388
     18 O         -25.1430    3.9660   28.2430 O.2     1  UNL1       -0.2686
     19 C         -27.4380    3.0910   25.6450 C.2     1  UNL1        0.1025
     20 N         -28.0750    2.0890   25.0030 N.2     1  UNL1       -0.2118
     21 C         -27.5430    0.8490   25.0790 C.2     1  UNL1        0.2344
     22 O         -28.1930   -0.2080   24.4770 O.2     1  UNL1       -0.4585
     23 C         -29.4600    0.0050   23.8660 C.3     1  UNL1        0.2423
     24 C         -30.0650   -1.3770   23.5730 C.3     1  UNL1        0.2292
     25 O         -30.7290   -1.8780   24.7210 O.3     1  UNL1       -0.2162
     26 C         -26.3540    0.5760   25.7770 C.3     1  UNL1        0.2441
     27 F         -25.8600   -0.6810   25.7950 F       1  UNL1       -0.2265
     28 C         -22.4829    1.3888   28.5844 C.2     1  UNL1        0.0392
     29 C         -21.9220    1.7762   26.3609 C.2     1  UNL1       -0.0001
     30 C         -26.5560    2.8079   31.4163 C.3     1  UNL1        0.1167
     31 N         -26.4597    3.3427   32.7770 N.pl3   1  UNL1       -0.2834
     32 C         -23.2644    1.7964   26.0019 C.2     1  UNL1       -0.0008
     33 C         -27.2498    5.5461   33.4439 C.2     1  UNL1        0.0174
     34 C         -25.2177    4.1829   32.8707 C.2     1  UNL1        0.0655
     35 C         -25.7107    5.5376   33.3833 C.2     1  UNL1        0.0174
     36 C         -21.4933    1.5414   27.6368 C.2     1  UNL1        0.0032
     37 C         -24.2560    1.6289   26.9570 C.2     1  UNL1        0.0214
     38 C         -25.8720    1.7553   31.0960 C.3     1  UNL1        0.1371
     39 N         -25.5626    1.4534   29.7197 N.3     1  UNL1       -0.0274
     40 C         -27.6877    4.1307   33.0937 C.2     1  UNL1        0.0655
     41 O         -24.2376    1.7601   29.5854 O.2     1  UNL1       -0.3848
     42 C         -23.7889    1.5952   28.3383 C.2     1  UNL1        0.1634
@<TRIPOS>BOND
     1     2     7    1
     2     2     1    1
     3     3     2    2
     4     4     3    1
     5     4     5    2
     6     5     6    1
     7     6     7    2
     8     8     1    1
     9     8     9    1
    10     8    12    1
    11     9    38    1
    12     9    10    1
    13    10    11    1
    14    12    11    1
    15    13    37    1
    16    14    13    1
    17    14    15    1
    18    15    18    2
    19    16    17    1
    20    16    15    1
    21    19    14    2
    22    20    21    2
    23    20    19    1
    24    21    26    1
    25    22    21    1
    26    23    22    1
    27    24    23    1
    28    24    25    1
    29    26    27    1
    30    26    13    1
    31    29    36    1
    32    30    31    1
    33    31    34    1
    34    31    40    1
    35    32    29    2
    36    32    37    1
    37    34    35    2
    38    35    33    1
    39    36    28    2
    40    37    42    2
    41    38    30    1
    42    39    38    1
    43    40    33    2
    44    41    39    1
    45    42    28    1
    46    42    41    1
