@<TRIPOS>MOLECULE
No_620-gen_results/8p0m/2024-11-27-11-27-31/
 32 34 0 0 0
SMALL
GASTEIGER

@<TRIPOS>ATOM
      1 C         -28.0162   -0.8135   28.8779 C.ar    1  UNL1        0.0369
      2 C         -27.0636   -0.1190   28.6079 C.ar    1  UNL1        0.0031
      3 C         -25.7923   -0.4302   29.0761 C.ar    1  UNL1        0.0002
      4 C         -25.5756   -1.5654   29.9363 C.ar    1  UNL1        0.0031
      5 C         -26.7354   -2.3004   30.2173 C.ar    1  UNL1        0.0369
      6 C         -27.9184   -1.9537   29.7629 C.ar    1  UNL1        0.1387
      7 O         -29.0001   -2.7012   30.1151 O.3     1  UNL1       -0.4727
      8 C         -24.5290    0.3490   28.7998 C.ar    1  UNL1        0.0000
      9 C         -24.4808    1.2113   27.7998 C.ar    1  UNL1        0.0000
     10 C         -23.4518    1.8595   27.4552 C.ar    1  UNL1        0.0000
     11 C         -22.1631    1.6473   28.0100 C.ar    1  UNL1        0.0000
     12 C         -23.3137    0.0274   29.4409 C.ar    1  UNL1        0.0000
     13 C         -22.1009    0.7427   29.0466 C.ar    1  UNL1        0.0000
     14 C         -28.8810   -3.9652   30.6067 C.3     1  UNL1        0.2373
     15 C         -30.0929   -4.6996   30.6556 C.3     1  UNL1        0.1897
     16 O         -30.7819   -4.8266   29.7129 O.3     1  UNL1       -0.3476
     17 C         -32.1326   -4.8412   29.8150 C.3     1  UNL1        0.1417
     18 C         -32.5947   -5.9476   29.6496 C.3     1  UNL1        0.0604
     19 C         -32.5932   -6.4753   28.6151 C.ar    1  UNL1       -0.0194
     20 C         -31.5989   -6.7425   28.0010 C.ar    1  UNL1       -0.0042
     21 C         -31.3899   -6.5532   26.5905 C.ar    1  UNL1       -0.0003
     22 C         -32.4966   -6.7070   25.7778 C.ar    1  UNL1       -0.0000
     23 C         -33.7631   -6.5760   26.3429 C.ar    1  UNL1       -0.0003
     24 C         -33.8187   -6.5308   27.7402 C.ar    1  UNL1       -0.0042
     25 C         -32.7645   -3.5466   29.9414 C.2     1  UNL1        0.0032
     26 C         -32.4800   -2.5786   30.2980 C.2     1  UNL1       -0.0025
     27 C         -33.1778   -1.3041   30.3857 C.2     1  UNL1       -0.0045
     28 C         -32.6498   -0.1038   30.9535 C.2     1  UNL1       -0.0214
     29 C         -31.2828   -0.1300   31.3247 C.3     1  UNL1        0.0517
     30 C         -30.6692    1.0832   31.6929 C.2     1  UNL1       -0.0260
     31 C         -30.9018    2.0805   31.1104 C.2     1  UNL1       -0.0300
     32 C         -32.2624    2.3476   30.6202 C.3     1  UNL1        0.0304
@<TRIPOS>BOND
     1     6     7    1
     2     3     8    1
     3     7    14    1
     4    14    15    1
     5    15    16    1
     6    16    17    1
     7    17    18    1
     8    17    25    1
     9    25    26    2
    10    26    27    1
    11    27    28    2
    12    28    29    1
    13    29    30    1
    14    30    31    2
    15    31    32    1
    16    18    19    1
    17     1     2   ar
    18     2     3   ar
    19     3     4   ar
    20     4     5   ar
    21     5     6   ar
    22     6     1   ar
    23    19    20   ar
    24    20    21   ar
    25    21    22   ar
    26    22    23   ar
    27    23    24   ar
    28    24    19   ar
    29     8     9   ar
    30     9    10   ar
    31    10    11   ar
    32    11    13   ar
    33    13    12   ar
    34    12     8   ar
