@<TRIPOS>MOLECULE
outputs/IAG933/test6/raw/output_6200_IAG933_linker_design_.xyz
 43 48 0 0 0
SMALL
GASTEIGER

@<TRIPOS>ATOM
      1 C         -24.8550   -1.0120   30.1430 C.3     1  UNL1        0.0399
      2 C         -24.9730   -2.5050   29.7880 C.2     1  UNL1       -0.0211
      3 C         -23.9060   -3.1730   29.1460 C.2     1  UNL1       -0.0042
      4 C         -23.9890   -4.5490   28.8530 C.2     1  UNL1       -0.0003
      5 C         -25.1370   -5.2800   29.2050 C.2     1  UNL1       -0.0000
      6 C         -26.2320   -4.6110   29.7840 C.2     1  UNL1       -0.0003
      7 C         -26.1550   -3.2320   30.0650 C.2     1  UNL1       -0.0042
      8 C         -25.3870   -0.6790   31.5710 C.3     1  UNL1        0.0769
      9 C         -25.1890    0.7730   32.0280 C.3     1  UNL1        0.0192
     10 C         -25.3360    0.6840   33.5440 C.3     1  UNL1        0.0202
     11 C         -24.8290   -0.7150   33.9050 C.3     1  UNL1        0.0887
     12 N         -24.7580   -1.4810   32.6460 N.3     1  UNL1       -0.2191
     13 C         -25.6880    1.6140   26.4610 C.3     1  UNL1        0.0717
     14 C         -26.2500    2.9200   26.3950 C.2     1  UNL1        0.0549
     15 C         -25.6420    4.0930   27.1230 C.2     1  UNL1        0.2624
     16 N         -25.6140    5.2520   26.4490 N.am    1  UNL1       -0.2000
     17 C         -25.0260    6.4790   26.9630 C.3     1  UNL1        0.1388
     18 O         -25.1430    3.9660   28.2430 O.2     1  UNL1       -0.2687
     19 C         -27.4380    3.0910   25.6450 C.2     1  UNL1        0.1021
     20 N         -28.0750    2.0890   25.0030 N.2     1  UNL1       -0.2119
     21 C         -27.5430    0.8490   25.0790 C.2     1  UNL1        0.2341
     22 O         -28.1930   -0.2080   24.4770 O.2     1  UNL1       -0.4585
     23 C         -29.4600    0.0050   23.8660 C.3     1  UNL1        0.2423
     24 C         -30.0650   -1.3770   23.5730 C.3     1  UNL1        0.2292
     25 O         -30.7290   -1.8780   24.7210 O.3     1  UNL1       -0.2162
     26 C         -26.3540    0.5760   25.7770 C.3     1  UNL1        0.2400
     27 F         -25.8600   -0.6810   25.7950 F       1  UNL1       -0.2269
     28 C         -24.5201    0.1092   29.1691 C.3     1  UNL1        0.0237
     29 C         -23.5139    0.8328   26.9570 C.3     1  UNL1        0.0021
     30 O         -28.0979   -1.1638   29.5197 O.2     1  UNL1       -0.2699
     31 C         -29.7729    2.3521   29.5749 C.3     1  UNL1        0.0460
     32 C         -28.3531    2.4333   29.2721 C.3     1  UNL1        0.0799
     33 C         -22.8462    0.1142   29.1398 C.3     1  UNL1        0.0020
     34 C         -27.8461    3.9885   31.0401 C.3     1  UNL1        0.0018
     35 C         -27.5995    3.7013   29.5348 C.3     1  UNL1        0.0202
     36 N         -27.5304    1.1380   29.0767 N.am    1  UNL1       -0.2790
     37 C         -24.9218    1.0336   27.6782 C.3     1  UNL1        0.0256
     38 C         -25.8284    0.9971   28.8349 C.3     1  UNL1        0.0762
     39 C         -30.3009    1.4321   28.6488 C.2     1  UNL1       -0.0198
     40 C         -29.5461    0.1943   28.4600 C.2     1  UNL1        0.0534
     41 C         -28.2722    0.0449   29.0689 C.2     1  UNL1        0.2487
     42 C         -22.6030    1.3377   28.0230 C.3     1  UNL1        0.0001
     43 C         -21.0777    1.4149   27.5360 C.3     1  UNL1        0.0000
@<TRIPOS>BOND
     1     1     2    1
     2     2     7    1
     3     3     2    2
     4     4     3    1
     5     4     5    2
     6     5     6    1
     7     6     7    2
     8     8     1    1
     9     8     9    1
    10     8    12    1
    11     9    10    1
    12    10    11    1
    13    12    11    1
    14    13    14    1
    15    13    37    1
    16    14    15    1
    17    15    18    2
    18    16    17    1
    19    16    15    1
    20    19    14    2
    21    20    21    2
    22    20    19    1
    23    21    26    1
    24    22    21    1
    25    23    22    1
    26    24    23    1
    27    24    25    1
    28    26    27    1
    29    26    13    1
    30    28     1    1
    31    29    42    1
    32    32    35    1
    33    32    31    1
    34    33    28    1
    35    35    34    1
    36    36    32    1
    37    37    29    1
    38    37    38    1
    39    37    28    1
    40    38    36    1
    41    38    28    1
    42    39    31    1
    43    40    39    2
    44    40    41    1
    45    41    36   am
    46    41    30    2
    47    42    43    1
    48    42    33    1
