@<TRIPOS>MOLECULE
outputs/IAG933/test6/raw/output_6204_IAG933_linker_design_.xyz
 45 49 0 0 0
SMALL
GASTEIGER

@<TRIPOS>ATOM
      1 C         -24.8550   -1.0120   30.1430 C.3     1  UNL1        0.0397
      2 C         -24.9730   -2.5050   29.7880 C.2     1  UNL1       -0.0211
      3 C         -23.9060   -3.1730   29.1460 C.2     1  UNL1       -0.0042
      4 C         -23.9890   -4.5490   28.8530 C.2     1  UNL1       -0.0003
      5 C         -25.1370   -5.2800   29.2050 C.2     1  UNL1       -0.0000
      6 C         -26.2320   -4.6110   29.7840 C.2     1  UNL1       -0.0003
      7 C         -26.1550   -3.2320   30.0650 C.2     1  UNL1       -0.0042
      8 C         -25.3870   -0.6790   31.5710 C.3     1  UNL1        0.0768
      9 C         -25.1890    0.7730   32.0280 C.3     1  UNL1        0.0192
     10 C         -25.3360    0.6840   33.5440 C.3     1  UNL1        0.0202
     11 C         -24.8290   -0.7150   33.9050 C.3     1  UNL1        0.0887
     12 N         -24.7580   -1.4810   32.6460 N.3     1  UNL1       -0.2191
     13 C         -25.6880    1.6140   26.4610 C.3     1  UNL1        0.1175
     14 C         -26.2500    2.9200   26.3950 C.2     1  UNL1        0.0649
     15 C         -25.6420    4.0930   27.1230 C.2     1  UNL1        0.2633
     16 N         -25.6140    5.2520   26.4490 N.am    1  UNL1       -0.2000
     17 C         -25.0260    6.4790   26.9630 C.3     1  UNL1        0.1388
     18 O         -25.1430    3.9660   28.2430 O.2     1  UNL1       -0.2686
     19 C         -27.4380    3.0910   25.6450 C.2     1  UNL1        0.1030
     20 N         -28.0750    2.0890   25.0030 N.2     1  UNL1       -0.2118
     21 C         -27.5430    0.8490   25.0790 C.2     1  UNL1        0.2350
     22 O         -28.1930   -0.2080   24.4770 O.2     1  UNL1       -0.4585
     23 C         -29.4600    0.0050   23.8660 C.3     1  UNL1        0.2423
     24 C         -30.0650   -1.3770   23.5730 C.3     1  UNL1        0.2292
     25 O         -30.7290   -1.8780   24.7210 O.3     1  UNL1       -0.2162
     26 C         -26.3540    0.5760   25.7770 C.3     1  UNL1        0.2499
     27 F         -25.8600   -0.6810   25.7950 F       1  UNL1       -0.2260
     28 S         -23.9482    1.5584   26.2519 S.3     1  UNL1       -0.1325
     29 C         -27.5832    2.2812   30.3467 C.3     1  UNL1        0.0725
     30 C         -24.6068    1.3415   29.1556 C.3     1  UNL1        0.0140
     31 C         -30.0084   -1.0769   29.6120 C.3     1  UNL1        0.0591
     32 C         -29.2431    1.1330   29.0778 C.3     1  UNL1        0.1156
     33 N         -27.7053    1.4994   29.1175 N.3     1  UNL1       -0.2679
     34 C         -28.8024    1.9987   31.2449 C.3     1  UNL1        0.0191
     35 C         -23.6064    1.3161   27.9575 C.3     1  UNL1        0.0656
     36 N         -22.1615   -0.0049   29.7022 N.3     1  UNL1       -0.1320
     37 C         -25.4882    0.0437   29.1422 C.3     1  UNL1        0.0223
     38 C         -31.3283   -1.7917   29.2602 C.3     1  UNL1        0.0078
     39 C         -22.2683    0.4742   28.3422 C.3     1  UNL1        0.1017
     40 C         -29.5525   -0.1859   28.5123 C.2     1  UNL1        0.1645
     41 C         -30.3077   -0.1731   30.7851 C.3     1  UNL1        0.0092
     42 C         -29.8488    1.2391   30.4184 C.3     1  UNL1        0.0236
     43 O         -29.8071   -0.4826   27.3022 O.2     1  UNL1       -0.2947
     44 C         -26.9597    0.2670   28.9367 C.3     1  UNL1        0.0728
     45 C         -21.1157    1.2484   27.7131 C.3     1  UNL1        0.0214
@<TRIPOS>BOND
     1     1    37    1
     2     2     7    1
     3     2     1    1
     4     3     2    2
     5     4     3    1
     6     4     5    2
     7     5     6    1
     8     6     7    2
     9     8     1    1
    10     8     9    1
    11     8    12    1
    12     9    10    1
    13    10    11    1
    14    12    11    1
    15    13    28    1
    16    14    13    1
    17    14    15    1
    18    15    18    2
    19    16    17    1
    20    16    15    1
    21    19    14    2
    22    20    21    2
    23    20    19    1
    24    21    26    1
    25    22    21    1
    26    23    22    1
    27    24    23    1
    28    24    25    1
    29    26    27    1
    30    26    13    1
    31    28    35    1
    32    29    34    1
    33    31    38    1
    34    31    41    1
    35    32    40    1
    36    32    33    1
    37    32    42    1
    38    33    29    1
    39    35    39    1
    40    35    30    1
    41    37    44    1
    42    37    30    1
    43    39    45    1
    44    39    36    1
    45    40    31    1
    46    42    41    1
    47    42    34    1
    48    43    40    2
    49    44    33    1
