@<TRIPOS>MOLECULE
outputs/IAG933/test6/raw/output_6208_IAG933_linker_design_.xyz
 47 51 0 0 0
SMALL
GASTEIGER

@<TRIPOS>ATOM
      1 C         -24.8550   -1.0120   30.1430 C.3     1  UNL1        0.1533
      2 C         -24.9730   -2.5050   29.7880 C.2     1  UNL1        0.0059
      3 C         -23.9060   -3.1730   29.1460 C.2     1  UNL1       -0.0019
      4 C         -23.9890   -4.5490   28.8530 C.2     1  UNL1       -0.0002
      5 C         -25.1370   -5.2800   29.2050 C.2     1  UNL1       -0.0000
      6 C         -26.2320   -4.6110   29.7840 C.2     1  UNL1       -0.0002
      7 C         -26.1550   -3.2320   30.0650 C.2     1  UNL1       -0.0019
      8 C         -25.3870   -0.6790   31.5710 C.3     1  UNL1        0.1041
      9 C         -25.1890    0.7730   32.0280 C.3     1  UNL1        0.0217
     10 C         -25.3360    0.6840   33.5440 C.3     1  UNL1        0.0203
     11 C         -24.8290   -0.7150   33.9050 C.3     1  UNL1        0.0888
     12 N         -24.7580   -1.4810   32.6460 N.3     1  UNL1       -0.2166
     13 C         -25.6880    1.6140   26.4610 C.2     1  UNL1        0.0407
     14 C         -26.2500    2.9200   26.3950 C.2     1  UNL1        0.0744
     15 C         -25.6420    4.0930   27.1230 C.2     1  UNL1        0.2218
     16 N         -25.6140    5.2520   26.4490 N.2     1  UNL1       -0.2357
     17 C         -25.0260    6.4790   26.9630 C.3     1  UNL1        0.1550
     18 O         -25.1430    3.9660   28.2430 O.2     1  UNL1       -0.4642
     19 C         -27.4380    3.0910   25.6450 C.2     1  UNL1        0.1068
     20 N         -28.0750    2.0890   25.0030 N.2     1  UNL1       -0.2081
     21 C         -27.5430    0.8490   25.0790 C.2     1  UNL1        0.2533
     22 O         -28.1930   -0.2080   24.4770 O.2     1  UNL1       -0.4558
     23 C         -29.4600    0.0050   23.8660 C.3     1  UNL1        0.2426
     24 C         -30.0650   -1.3770   23.5730 C.3     1  UNL1        0.2292
     25 O         -30.7290   -1.8780   24.7210 O.3     1  UNL1       -0.2162
     26 C         -26.3540    0.5760   25.7770 C.2     1  UNL1        0.1931
     27 F         -25.8600   -0.6810   25.7950 F       1  UNL1       -0.1992
     28 C         -27.2964    6.1773   30.2171 C.2     1  UNL1       -0.0258
     29 C         -24.8421    5.5193   33.1001 C.2     1  UNL1        0.2607
     30 N         -25.3691    5.1634   34.2566 N.am    1  UNL1       -0.0878
     31 C         -22.2733    2.2762   28.3836 C.3     1  UNL1        0.1167
     32 C         -21.3901    1.6647   27.4264 C.2     1  UNL1        0.3649
     33 C         -26.6261    5.0458   30.8625 C.3     1  UNL1        0.0348
     34 C         -27.3229    3.8100   30.6925 C.3     1  UNL1        0.0306
     35 O         -23.6942    5.9603   33.0009 O.2     1  UNL1       -0.2717
     36 C         -28.3122    6.0254   29.2868 C.2     1  UNL1       -0.0049
     37 C         -24.9888    4.5825   30.7670 C.3     1  UNL1        0.0536
     38 C         -28.2742    3.6458   29.6710 C.2     1  UNL1       -0.0258
     39 O         -24.2748   -0.2045   29.3385 O.3     1  UNL1       -0.3504
     40 C         -22.8878    1.7021   29.5815 C.3     1  UNL1        0.0445
     41 C         -22.9312    0.1024   29.6763 C.3     1  UNL1        0.1432
     42 C         -25.0669    3.6059   29.4227 C.3     1  UNL1        0.1683
     43 O         -21.1827    2.1323   26.2987 O.co2   1  UNL1       -0.2457
     44 C         -25.6295    5.3635   31.8022 C.3     1  UNL1        0.0878
     45 C         -28.7751    4.7558   28.9686 C.2     1  UNL1       -0.0049
     46 O         -20.6858    0.4695   27.8223 O.co2   1  UNL1       -0.2457
     47 C         -24.2958    2.3663   29.8233 C.3     1  UNL1        0.0467
@<TRIPOS>BOND
     1     1    39    1
     2     2     7    1
     3     2     1    1
     4     3     2    2
     5     4     3    1
     6     4     5    2
     7     5     6    1
     8     6     7    2
     9     8     1    1
    10     8     9    1
    11     8    12    1
    12     9    10    1
    13    10    11    1
    14    12    11    1
    15    14    13    1
    16    14    15    1
    17    15    18    1
    18    16    17    1
    19    16    15    2
    20    18    42    1
    21    19    14    2
    22    20    21    2
    23    20    19    1
    24    21    26    1
    25    22    21    1
    26    23    22    1
    27    24    23    1
    28    24    25    1
    29    26    27    1
    30    26    13    2
    31    29    30    1
    32    32    46   ar
    33    32    31    1
    34    33    28    1
    35    33    44    1
    36    34    33    1
    37    35    29    2
    38    36    28    2
    39    37    42    1
    40    37    33    1
    41    37    44    1
    42    38    34    1
    43    39    41    1
    44    40    31    1
    45    40    41    1
    46    40    47    1
    47    42    47    1
    48    43    32   ar
    49    44    29    1
    50    45    36    1
    51    45    38    2
