@<TRIPOS>MOLECULE
outputs/IAG933/test6/raw/output_6209_IAG933_linker_design_.xyz
 43 47 0 0 0
SMALL
GASTEIGER

@<TRIPOS>ATOM
      1 C         -24.8550   -1.0120   30.1430 C.3     1  UNL1        0.2039
      2 C         -24.9730   -2.5050   29.7880 C.2     1  UNL1        0.0186
      3 C         -23.9060   -3.1730   29.1460 C.2     1  UNL1       -0.0008
      4 C         -23.9890   -4.5490   28.8530 C.2     1  UNL1       -0.0002
      5 C         -25.1370   -5.2800   29.2050 C.2     1  UNL1       -0.0000
      6 C         -26.2320   -4.6110   29.7840 C.2     1  UNL1       -0.0002
      7 C         -26.1550   -3.2320   30.0650 C.2     1  UNL1       -0.0008
      8 C         -25.3870   -0.6790   31.5710 C.3     1  UNL1        0.1170
      9 C         -25.1890    0.7730   32.0280 C.3     1  UNL1        0.0229
     10 C         -25.3360    0.6840   33.5440 C.3     1  UNL1        0.0204
     11 C         -24.8290   -0.7150   33.9050 C.3     1  UNL1        0.0888
     12 N         -24.7580   -1.4810   32.6460 N.3     1  UNL1       -0.2154
     13 C         -25.6880    1.6140   26.4610 C.2     1  UNL1        0.0407
     14 C         -26.2500    2.9200   26.3950 C.2     1  UNL1        0.0744
     15 C         -25.6420    4.0930   27.1230 C.2     1  UNL1        0.2222
     16 N         -25.6140    5.2520   26.4490 N.2     1  UNL1       -0.2356
     17 C         -25.0260    6.4790   26.9630 C.3     1  UNL1        0.1550
     18 O         -25.1430    3.9660   28.2430 O.2     1  UNL1       -0.4577
     19 C         -27.4380    3.0910   25.6450 C.2     1  UNL1        0.1068
     20 N         -28.0750    2.0890   25.0030 N.2     1  UNL1       -0.2081
     21 C         -27.5430    0.8490   25.0790 C.2     1  UNL1        0.2533
     22 O         -28.1930   -0.2080   24.4770 O.2     1  UNL1       -0.4558
     23 C         -29.4600    0.0050   23.8660 C.3     1  UNL1        0.2426
     24 C         -30.0650   -1.3770   23.5730 C.3     1  UNL1        0.2292
     25 O         -30.7290   -1.8780   24.7210 O.3     1  UNL1       -0.2162
     26 C         -26.3540    0.5760   25.7770 C.2     1  UNL1        0.1931
     27 F         -25.8600   -0.6810   25.7950 F       1  UNL1       -0.1992
     28 C         -22.3163   -0.1216   28.8367 C.2     1  UNL1        0.0367
     29 C         -21.3542    1.6448   27.4392 C.2     1  UNL1       -0.0000
     30 N         -26.3789    3.8800   30.6410 N.am    1  UNL1       -0.2499
     31 C         -25.5641    4.3969   31.8178 C.2     1  UNL1        0.2530
     32 C         -27.3466    4.7391   30.1026 C.2     1  UNL1        0.0679
     33 O         -24.7502    0.0308   29.2311 O.2     1  UNL1       -0.4735
     34 C         -22.5952    2.3305   27.4395 C.2     1  UNL1        0.0023
     35 C         -21.1926    0.4510   28.2010 C.2     1  UNL1        0.0031
     36 C         -25.9668    2.6559   29.9905 C.3     1  UNL1        0.1467
     37 C         -24.7118    2.8192   28.9281 C.3     1  UNL1        0.2128
     38 C         -23.5667    0.5719   28.7937 C.2     1  UNL1        0.1383
     39 C         -27.1803    6.2707   32.1626 C.2     1  UNL1        0.0060
     40 C         -23.6471    1.9217   28.3132 C.2     1  UNL1        0.0529
     41 C         -27.7257    5.9752   30.8366 C.2     1  UNL1        0.0163
     42 C         -26.1213    5.4078   32.7123 C.2     1  UNL1        0.0583
     43 O         -24.3518    4.1475   31.7593 O.2     1  UNL1       -0.2696
@<TRIPOS>BOND
     1     1    33    1
     2     2     7    1
     3     2     1    1
     4     3     2    2
     5     4     3    1
     6     4     5    2
     7     5     6    1
     8     6     7    2
     9     8     1    1
    10     8     9    1
    11     8    12    1
    12     9    10    1
    13    10    11    1
    14    12    11    1
    15    14    13    1
    16    14    15    1
    17    15    18    1
    18    16    17    1
    19    16    15    2
    20    18    37    1
    21    19    14    2
    22    20    21    2
    23    20    19    1
    24    21    26    1
    25    22    21    1
    26    23    22    1
    27    24    23    1
    28    24    25    1
    29    26    27    1
    30    26    13    2
    31    29    34    2
    32    29    35    1
    33    30    31   am
    34    31    42    1
    35    32    30    1
    36    32    41    2
    37    34    40    1
    38    35    28    2
    39    36    30    1
    40    37    36    1
    41    38    28    1
    42    38    33    1
    43    39    42    2
    44    40    38    2
    45    40    37    1
    46    41    39    1
    47    43    31    2
