@<TRIPOS>MOLECULE
outputs/IAG933/test6/raw/output_6211_IAG933_linker_design_.xyz
 47 51 0 0 0
SMALL
GASTEIGER

@<TRIPOS>ATOM
      1 C         -24.8550   -1.0120   30.1430 C.3     1  UNL1        0.1116
      2 C         -24.9730   -2.5050   29.7880 C.2     1  UNL1       -0.0030
      3 C         -23.9060   -3.1730   29.1460 C.2     1  UNL1       -0.0026
      4 C         -23.9890   -4.5490   28.8530 C.2     1  UNL1       -0.0003
      5 C         -25.1370   -5.2800   29.2050 C.2     1  UNL1       -0.0000
      6 C         -26.2320   -4.6110   29.7840 C.2     1  UNL1       -0.0003
      7 C         -26.1550   -3.2320   30.0650 C.2     1  UNL1       -0.0026
      8 C         -25.3870   -0.6790   31.5710 C.3     1  UNL1        0.0950
      9 C         -25.1890    0.7730   32.0280 C.3     1  UNL1        0.0209
     10 C         -25.3360    0.6840   33.5440 C.3     1  UNL1        0.0203
     11 C         -24.8290   -0.7150   33.9050 C.3     1  UNL1        0.0888
     12 N         -24.7580   -1.4810   32.6460 N.3     1  UNL1       -0.2174
     13 C         -25.6880    1.6140   26.4610 C.3     1  UNL1        0.1622
     14 C         -26.2500    2.9200   26.3950 C.2     1  UNL1        0.0747
     15 C         -25.6420    4.0930   27.1230 C.2     1  UNL1        0.2641
     16 N         -25.6140    5.2520   26.4490 N.am    1  UNL1       -0.1999
     17 C         -25.0260    6.4790   26.9630 C.3     1  UNL1        0.1388
     18 O         -25.1430    3.9660   28.2430 O.2     1  UNL1       -0.2686
     19 C         -27.4380    3.0910   25.6450 C.2     1  UNL1        0.1038
     20 N         -28.0750    2.0890   25.0030 N.2     1  UNL1       -0.2118
     21 C         -27.5430    0.8490   25.0790 C.2     1  UNL1        0.2359
     22 O         -28.1930   -0.2080   24.4770 O.2     1  UNL1       -0.4585
     23 C         -29.4600    0.0050   23.8660 C.3     1  UNL1        0.2423
     24 C         -30.0650   -1.3770   23.5730 C.3     1  UNL1        0.2292
     25 O         -30.7290   -1.8780   24.7210 O.3     1  UNL1       -0.2162
     26 C         -26.3540    0.5760   25.7770 C.3     1  UNL1        0.2598
     27 F         -25.8600   -0.6810   25.7950 F       1  UNL1       -0.2250
     28 C         -21.0668    1.2092   27.4270 C.2     1  UNL1        0.0128
     29 C         -27.3803    1.2993   29.1982 C.2     1  UNL1        0.0364
     30 C         -22.3618   -0.0912   29.1158 C.2     1  UNL1        0.0159
     31 C         -29.7256    5.8567   27.5996 C.2     1  UNL1       -0.0056
     32 N         -24.8534   -0.0028   29.1361 N.pl3   1  UNL1       -0.2985
     33 C         -30.5137    4.6576   27.7403 C.2     1  UNL1       -0.0066
     34 C         -21.1400    0.3798   28.5813 C.2     1  UNL1        0.0022
     35 C         -23.6128    1.1989   27.5377 C.2     1  UNL1        0.0895
     36 O         -31.6420    3.1457   25.9630 O.3     1  UNL1       -0.2155
     37 C         -30.1898    3.6023   28.5623 C.3     1  UNL1        0.0586
     38 C         -28.1136    4.8609   29.1236 C.2     1  UNL1        0.0036
     39 C         -22.3772    1.5643   26.9172 C.2     1  UNL1        0.0737
     40 C         -28.1241    2.4229   29.1764 C.1     1  UNL1       -0.1081
     41 C         -28.5746    5.9844   28.4123 C.2     1  UNL1       -0.0003
     42 C         -26.1255    0.6643   28.9890 C.3     1  UNL1        0.1260
     43 N         -24.4798    1.4338   26.7956 N.pl3   1  UNL1       -0.2293
     44 CL        -22.4855    2.4585   25.4265 Cl      1  UNL1       -0.0809
     45 C         -31.8185    4.4236   26.7270 C.3     1  UNL1        0.2047
     46 C         -23.6027    0.2996   28.5731 C.2     1  UNL1        0.0642
     47 C         -28.8278    3.6097   28.9792 C.2     1  UNL1        0.0160
@<TRIPOS>BOND
     1     1    32    1
     2     2     7    1
     3     2     1    1
     4     3     2    2
     5     4     3    1
     6     4     5    2
     7     5     6    1
     8     6     7    2
     9     8     1    1
    10     8     9    1
    11     8    12    1
    12     9    10    1
    13    10    11    1
    14    12    11    1
    15    13    43    1
    16    14    13    1
    17    14    15    1
    18    15    18    2
    19    16    17    1
    20    16    15    1
    21    19    14    2
    22    20    21    2
    23    20    19    1
    24    21    26    1
    25    22    21    1
    26    23    22    1
    27    24    23    1
    28    24    25    1
    29    26    27    1
    30    26    13    1
    31    28    34    1
    32    31    33    2
    33    31    41    1
    34    33    37    1
    35    34    30    2
    36    35    46    2
    37    36    45    1
    38    37    47    1
    39    39    28    2
    40    39    35    1
    41    40    29    2
    42    41    38    2
    43    42    32    1
    44    42    29    1
    45    43    35    1
    46    44    39    1
    47    45    33    1
    48    46    30    1
    49    46    32    1
    50    47    38    1
    51    47    40    2
