@<TRIPOS>MOLECULE
outputs/IAG933/test6/raw/output_6222_IAG933_linker_design_.xyz
 43 46 0 0 0
SMALL
GASTEIGER

@<TRIPOS>ATOM
      1 C         -24.8550   -1.0120   30.1430 C.3     1  UNL1        0.0672
      2 C         -24.9730   -2.5050   29.7880 C.2     1  UNL1       -0.0190
      3 C         -23.9060   -3.1730   29.1460 C.2     1  UNL1       -0.0042
      4 C         -23.9890   -4.5490   28.8530 C.2     1  UNL1       -0.0003
      5 C         -25.1370   -5.2800   29.2050 C.2     1  UNL1       -0.0000
      6 C         -26.2320   -4.6110   29.7840 C.2     1  UNL1       -0.0003
      7 C         -26.1550   -3.2320   30.0650 C.2     1  UNL1       -0.0042
      8 C         -25.3870   -0.6790   31.5710 C.3     1  UNL1        0.0790
      9 C         -25.1890    0.7730   32.0280 C.3     1  UNL1        0.0193
     10 C         -25.3360    0.6840   33.5440 C.3     1  UNL1        0.0202
     11 C         -24.8290   -0.7150   33.9050 C.3     1  UNL1        0.0887
     12 N         -24.7580   -1.4810   32.6460 N.3     1  UNL1       -0.2191
     13 C         -25.6880    1.6140   26.4610 C.3     1  UNL1        0.0899
     14 C         -26.2500    2.9200   26.3950 C.2     1  UNL1        0.0565
     15 C         -25.6420    4.0930   27.1230 C.2     1  UNL1        0.2625
     16 N         -25.6140    5.2520   26.4490 N.am    1  UNL1       -0.2000
     17 C         -25.0260    6.4790   26.9630 C.3     1  UNL1        0.1388
     18 O         -25.1430    3.9660   28.2430 O.2     1  UNL1       -0.2687
     19 C         -27.4380    3.0910   25.6450 C.2     1  UNL1        0.1022
     20 N         -28.0750    2.0890   25.0030 N.2     1  UNL1       -0.2119
     21 C         -27.5430    0.8490   25.0790 C.2     1  UNL1        0.2341
     22 O         -28.1930   -0.2080   24.4770 O.2     1  UNL1       -0.4585
     23 C         -29.4600    0.0050   23.8660 C.3     1  UNL1        0.2423
     24 C         -30.0650   -1.3770   23.5730 C.3     1  UNL1        0.2292
     25 O         -30.7290   -1.8780   24.7210 O.3     1  UNL1       -0.2162
     26 C         -26.3540    0.5760   25.7770 C.3     1  UNL1        0.2417
     27 F         -25.8600   -0.6810   25.7950 F       1  UNL1       -0.2268
     28 C         -24.9826   -0.1428   28.9036 C.3     1  UNL1        0.1768
     29 O         -22.4802   -0.0338   29.0495 O.2     1  UNL1       -0.2730
     30 C         -28.3348    3.8197   31.2640 C.2     1  UNL1        0.1207
     31 C         -29.7519    5.1977   32.4328 C.3     1  UNL1        0.2520
     32 O         -28.8733    5.0425   31.3215 O.2     1  UNL1       -0.4753
     33 C         -27.2367    0.7974   29.4713 C.2     1  UNL1        0.2650
     34 C         -23.5744    0.4354   28.5893 C.2     1  UNL1        0.2459
     35 C         -21.9459    1.6856   27.2710 C.3     1  UNL1        0.1149
     36 N         -23.4096    1.4123   27.6648 N.am    1  UNL1       -0.2760
     37 C         -27.7551    3.2423   30.1536 C.2     1  UNL1        0.0370
     38 C         -28.2868    1.6489   31.6893 C.2     1  UNL1       -0.0135
     39 O         -27.9361   -0.2145   29.3083 O.2     1  UNL1       -0.2684
     40 N         -25.9316    0.9699   29.0691 N.am    1  UNL1       -0.1937
     41 C         -28.5119    2.8753   32.1928 C.3     1  UNL1        0.0900
     42 C         -24.1755    1.4429   26.4423 C.3     1  UNL1        0.1013
     43 C         -27.7612    1.8724   30.4167 C.2     1  UNL1        0.0539
@<TRIPOS>BOND
     1     1    28    1
     2     2     7    1
     3     2     1    1
     4     3     2    2
     5     4     3    1
     6     4     5    2
     7     5     6    1
     8     6     7    2
     9     8     1    1
    10     8     9    1
    11     8    12    1
    12     9    10    1
    13    10    11    1
    14    12    11    1
    15    13    42    1
    16    14    13    1
    17    14    15    1
    18    15    18    2
    19    16    17    1
    20    16    15    1
    21    19    14    2
    22    20    21    2
    23    20    19    1
    24    21    26    1
    25    22    21    1
    26    23    22    1
    27    24    23    1
    28    24    25    1
    29    26    27    1
    30    26    13    1
    31    28    34    1
    32    28    40    1
    33    30    32    1
    34    30    41    1
    35    32    31    1
    36    33    43    1
    37    34    29    2
    38    35    36    1
    39    36    34   am
    40    37    43    1
    41    37    30    2
    42    38    41    1
    43    39    33    2
    44    40    33    1
    45    42    36    1
    46    43    38    2
