@<TRIPOS>MOLECULE
outputs/IAG933/test6/raw/output_6223_IAG933_linker_design_.xyz
 45 49 0 0 0
SMALL
GASTEIGER

@<TRIPOS>ATOM
      1 C         -24.8550   -1.0120   30.1430 C.3     1  UNL1        0.1174
      2 C         -24.9730   -2.5050   29.7880 C.2     1  UNL1       -0.0028
      3 C         -23.9060   -3.1730   29.1460 C.2     1  UNL1       -0.0026
      4 C         -23.9890   -4.5490   28.8530 C.2     1  UNL1       -0.0003
      5 C         -25.1370   -5.2800   29.2050 C.2     1  UNL1       -0.0000
      6 C         -26.2320   -4.6110   29.7840 C.2     1  UNL1       -0.0003
      7 C         -26.1550   -3.2320   30.0650 C.2     1  UNL1       -0.0026
      8 C         -25.3870   -0.6790   31.5710 C.3     1  UNL1        0.0952
      9 C         -25.1890    0.7730   32.0280 C.3     1  UNL1        0.0209
     10 C         -25.3360    0.6840   33.5440 C.3     1  UNL1        0.0203
     11 C         -24.8290   -0.7150   33.9050 C.3     1  UNL1        0.0888
     12 N         -24.7580   -1.4810   32.6460 N.3     1  UNL1       -0.2174
     13 C         -25.6880    1.6140   26.4610 C.3     1  UNL1        0.0703
     14 C         -26.2500    2.9200   26.3950 C.2     1  UNL1        0.0548
     15 C         -25.6420    4.0930   27.1230 C.2     1  UNL1        0.2624
     16 N         -25.6140    5.2520   26.4490 N.am    1  UNL1       -0.2000
     17 C         -25.0260    6.4790   26.9630 C.3     1  UNL1        0.1388
     18 O         -25.1430    3.9660   28.2430 O.2     1  UNL1       -0.2687
     19 C         -27.4380    3.0910   25.6450 C.2     1  UNL1        0.1021
     20 N         -28.0750    2.0890   25.0030 N.2     1  UNL1       -0.2119
     21 C         -27.5430    0.8490   25.0790 C.2     1  UNL1        0.2341
     22 O         -28.1930   -0.2080   24.4770 O.2     1  UNL1       -0.4585
     23 C         -29.4600    0.0050   23.8660 C.3     1  UNL1        0.2423
     24 C         -30.0650   -1.3770   23.5730 C.3     1  UNL1        0.2292
     25 O         -30.7290   -1.8780   24.7210 O.3     1  UNL1       -0.2162
     26 C         -26.3540    0.5760   25.7770 C.3     1  UNL1        0.2400
     27 F         -25.8600   -0.6810   25.7950 F       1  UNL1       -0.2269
     28 C         -24.1109    0.6132   28.6589 C.3     1  UNL1        0.1954
     29 C         -24.1602    1.4224   26.5135 C.3     1  UNL1        0.0121
     30 C         -21.9720    1.5274   27.7813 C.3     1  UNL1        0.0363
     31 C         -26.8138    0.0613   28.8813 C.2     1  UNL1        0.3253
     32 N         -27.5282    1.1016   29.1907 N.am    1  UNL1       -0.1857
     33 C         -29.5124    5.0608   29.1590 C.2     1  UNL1       -0.0000
     34 N         -25.3177    0.0121   29.1760 N.am    1  UNL1       -0.2371
     35 C         -30.1890   -0.1164   28.5232 C.3     1  UNL1        0.0283
     36 O         -22.7627    0.1771   29.5626 O.3     1  UNL1       -0.3375
     37 C         -29.5009    2.2981   29.2921 C.2     1  UNL1       -0.0025
     38 C         -28.6254    4.4375   30.0573 C.2     1  UNL1       -0.0003
     39 C         -21.6028    0.5986   28.9592 C.3     1  UNL1        0.1442
     40 C         -30.5171    2.9440   28.5406 C.2     1  UNL1       -0.0026
     41 C         -30.5025    4.3484   28.4640 C.2     1  UNL1       -0.0003
     42 C         -23.4393    1.6397   27.8498 C.3     1  UNL1        0.0499
     43 C         -29.0490    0.9015   29.0160 C.3     1  UNL1        0.1191
     44 C         -28.7369    3.0448   30.2319 C.2     1  UNL1       -0.0026
     45 O         -27.4014   -0.9047   28.3686 O.2     1  UNL1       -0.2507
@<TRIPOS>BOND
     1     1    34    1
     2     2     7    1
     3     2     1    1
     4     3     2    2
     5     4     3    1
     6     4     5    2
     7     5     6    1
     8     6     7    2
     9     8     1    1
    10     8     9    1
    11     8    12    1
    12     9    10    1
    13    10    11    1
    14    12    11    1
    15    13    29    1
    16    14    13    1
    17    14    15    1
    18    15    18    2
    19    16    17    1
    20    16    15    1
    21    19    14    2
    22    20    21    2
    23    20    19    1
    24    21    26    1
    25    22    21    1
    26    23    22    1
    27    24    23    1
    28    24    25    1
    29    26    27    1
    30    26    13    1
    31    28    34    1
    32    28    36    1
    33    30    42    1
    34    30    39    1
    35    31    34   am
    36    31    32    1
    37    33    38    1
    38    37    44    1
    39    38    44    2
    40    39    36    1
    41    40    37    2
    42    41    40    1
    43    41    33    2
    44    42    29    1
    45    42    28    1
    46    43    35    1
    47    43    32    1
    48    43    37    1
    49    45    31    2
