@<TRIPOS>MOLECULE
outputs/IAG933/test6/raw/output_6225_IAG933_linker_design_.xyz
 46 50 0 0 0
SMALL
GASTEIGER

@<TRIPOS>ATOM
      1 C         -24.8550   -1.0120   30.1430 C.3     1  UNL1        0.0565
      2 C         -24.9730   -2.5050   29.7880 C.2     1  UNL1       -0.0195
      3 C         -23.9060   -3.1730   29.1460 C.2     1  UNL1       -0.0042
      4 C         -23.9890   -4.5490   28.8530 C.2     1  UNL1       -0.0003
      5 C         -25.1370   -5.2800   29.2050 C.2     1  UNL1       -0.0000
      6 C         -26.2320   -4.6110   29.7840 C.2     1  UNL1       -0.0003
      7 C         -26.1550   -3.2320   30.0650 C.2     1  UNL1       -0.0042
      8 C         -25.3870   -0.6790   31.5710 C.3     1  UNL1        0.0784
      9 C         -25.1890    0.7730   32.0280 C.3     1  UNL1        0.0192
     10 C         -25.3360    0.6840   33.5440 C.3     1  UNL1        0.0202
     11 C         -24.8290   -0.7150   33.9050 C.3     1  UNL1        0.0887
     12 N         -24.7580   -1.4810   32.6460 N.3     1  UNL1       -0.2191
     13 C         -25.6880    1.6140   26.4610 C.2     1  UNL1        0.0366
     14 C         -26.2500    2.9200   26.3950 C.2     1  UNL1        0.0742
     15 C         -25.6420    4.0930   27.1230 C.2     1  UNL1        0.2662
     16 N         -25.6140    5.2520   26.4490 N.am    1  UNL1       -0.1997
     17 C         -25.0260    6.4790   26.9630 C.3     1  UNL1        0.1388
     18 O         -25.1430    3.9660   28.2430 O.2     1  UNL1       -0.2683
     19 C         -27.4380    3.0910   25.6450 C.2     1  UNL1        0.1065
     20 N         -28.0750    2.0890   25.0030 N.2     1  UNL1       -0.2081
     21 C         -27.5430    0.8490   25.0790 C.2     1  UNL1        0.2530
     22 O         -28.1930   -0.2080   24.4770 O.2     1  UNL1       -0.4558
     23 C         -29.4600    0.0050   23.8660 C.3     1  UNL1        0.2426
     24 C         -30.0650   -1.3770   23.5730 C.3     1  UNL1        0.2292
     25 O         -30.7290   -1.8780   24.7210 O.3     1  UNL1       -0.2162
     26 C         -26.3540    0.5760   25.7770 C.2     1  UNL1        0.1907
     27 F         -25.8600   -0.6810   25.7950 F       1  UNL1       -0.1995
     28 C         -24.5122    1.3039   27.1963 C.3     1  UNL1        0.1361
     29 C         -27.2566    1.4043   29.4359 C.3     1  UNL1        0.0190
     30 C         -29.2366    3.6311   30.2931 C.3     1  UNL1        0.1053
     31 C         -30.1304    4.6162   29.5099 C.3     1  UNL1        0.1679
     32 O         -29.2948    5.4402   28.7084 O.3     1  UNL1       -0.2217
     33 N         -24.3070    0.5837   28.2802 N.am    1  UNL1       -0.2735
     34 C         -22.9302    0.7157   28.7143 C.2     1  UNL1        0.2615
     35 F         -22.8803    2.5797   25.7748 F       1  UNL1       -0.2316
     36 C         -23.3171    1.9185   26.8942 C.3     1  UNL1        0.2244
     37 C         -30.7274    2.8427   27.8667 C.3     1  UNL1        0.0200
     38 C         -31.2817    3.8516   28.8553 C.3     1  UNL1        0.0358
     39 C         -26.7858    0.0981   28.7429 C.3     1  UNL1        0.0216
     40 F         -21.0406    2.0938   27.7010 F       1  UNL1       -0.2243
     41 C         -30.2947    1.7145   28.7085 C.3     1  UNL1        0.0723
     42 C         -22.4030    1.7808   27.9387 C.3     1  UNL1        0.2706
     43 O         -22.2568    0.0245   29.5547 O.2     1  UNL1       -0.2718
     44 C         -25.3005   -0.2103   29.0121 C.3     1  UNL1        0.0811
     45 N         -29.4721    2.2703   29.8116 N.3     1  UNL1       -0.2706
     46 C         -28.5299    1.3362   30.2694 C.3     1  UNL1        0.0722
@<TRIPOS>BOND
     1     1    44    1
     2     2     7    1
     3     2     1    1
     4     3     2    2
     5     4     3    1
     6     4     5    2
     7     5     6    1
     8     6     7    2
     9     8     1    1
    10     8     9    1
    11     8    12    1
    12     9    10    1
    13    10    11    1
    14    12    11    1
    15    14    13    1
    16    14    15    1
    17    15    18    2
    18    16    17    1
    19    16    15    1
    20    19    14    2
    21    20    21    2
    22    20    19    1
    23    21    26    1
    24    22    21    1
    25    23    22    1
    26    24    23    1
    27    24    25    1
    28    26    27    1
    29    26    13    2
    30    28    13    1
    31    28    33    1
    32    29    46    1
    33    31    32    1
    34    31    30    1
    35    33    34   am
    36    33    44    1
    37    34    43    2
    38    36    35    1
    39    36    28    1
    40    36    42    1
    41    37    41    1
    42    37    38    1
    43    38    31    1
    44    39    29    1
    45    41    45    1
    46    42    40    1
    47    42    34    1
    48    44    39    1
    49    45    46    1
    50    45    30    1
