@<TRIPOS>MOLECULE
outputs/IAG933/test6/raw/output_6226_IAG933_linker_design_.xyz
 39 42 0 0 0
SMALL
GASTEIGER

@<TRIPOS>ATOM
      1 C         -24.8550   -1.0120   30.1430 C.3     1  UNL1        0.1334
      2 C         -24.9730   -2.5050   29.7880 C.2     1  UNL1       -0.0012
      3 C         -23.9060   -3.1730   29.1460 C.2     1  UNL1       -0.0026
      4 C         -23.9890   -4.5490   28.8530 C.2     1  UNL1       -0.0003
      5 C         -25.1370   -5.2800   29.2050 C.2     1  UNL1       -0.0000
      6 C         -26.2320   -4.6110   29.7840 C.2     1  UNL1       -0.0003
      7 C         -26.1550   -3.2320   30.0650 C.2     1  UNL1       -0.0026
      8 C         -25.3870   -0.6790   31.5710 C.3     1  UNL1        0.0969
      9 C         -25.1890    0.7730   32.0280 C.3     1  UNL1        0.0210
     10 C         -25.3360    0.6840   33.5440 C.3     1  UNL1        0.0203
     11 C         -24.8290   -0.7150   33.9050 C.3     1  UNL1        0.0888
     12 N         -24.7580   -1.4810   32.6460 N.3     1  UNL1       -0.2174
     13 C         -25.6880    1.6140   26.4610 C.3     1  UNL1        0.1728
     14 C         -26.2500    2.9200   26.3950 C.2     1  UNL1        0.0772
     15 C         -25.6420    4.0930   27.1230 C.2     1  UNL1        0.2643
     16 N         -25.6140    5.2520   26.4490 N.am    1  UNL1       -0.1999
     17 C         -25.0260    6.4790   26.9630 C.3     1  UNL1        0.1388
     18 O         -25.1430    3.9660   28.2430 O.2     1  UNL1       -0.2686
     19 C         -27.4380    3.0910   25.6450 C.2     1  UNL1        0.1040
     20 N         -28.0750    2.0890   25.0030 N.2     1  UNL1       -0.2117
     21 C         -27.5430    0.8490   25.0790 C.2     1  UNL1        0.2361
     22 O         -28.1930   -0.2080   24.4770 O.2     1  UNL1       -0.4585
     23 C         -29.4600    0.0050   23.8660 C.3     1  UNL1        0.2423
     24 C         -30.0650   -1.3770   23.5730 C.3     1  UNL1        0.2292
     25 O         -30.7290   -1.8780   24.7210 O.3     1  UNL1       -0.2162
     26 C         -26.3540    0.5760   25.7770 C.3     1  UNL1        0.2622
     27 F         -25.8600   -0.6810   25.7950 F       1  UNL1       -0.2247
     28 O         -22.1942   -0.4072   30.3630 O.2     1  UNL1       -0.2726
     29 C         -20.7099    1.7112   27.1758 C.3     1  UNL1        0.2320
     30 C         -22.9321    0.0664   29.5366 C.2     1  UNL1        0.2510
     31 O         -23.5170    2.6947   25.6280 O.2     1  UNL1       -0.2435
     32 N         -24.2624    0.1237   29.6556 N.am    1  UNL1       -0.2007
     33 C         -22.5448    0.6691   28.3384 C.3     1  UNL1        0.1460
     34 C         -21.1232    0.7576   28.1187 C.2     1  UNL1        0.0132
     35 C         -23.0502    1.8743   26.4875 C.2     1  UNL1        0.3557
     36 C         -20.2092   -0.0552   28.7053 C.2     1  UNL1       -0.0046
     37 N         -24.9016    1.2272   27.5027 N.2     1  UNL1       -0.2615
     38 C         -23.5673    1.2425   27.4584 C.2     1  UNL1        0.1417
     39 O         -21.5817    2.0454   26.3243 O.3     1  UNL1       -0.4399
@<TRIPOS>BOND
     1     1    32    1
     2     2     7    1
     3     2     1    1
     4     3     2    2
     5     4     3    1
     6     4     5    2
     7     5     6    1
     8     6     7    2
     9     8     1    1
    10     8     9    1
    11     8    12    1
    12     9    10    1
    13    10    11    1
    14    12    11    1
    15    13    37    1
    16    14    13    1
    17    14    15    1
    18    15    18    2
    19    16    17    1
    20    16    15    1
    21    19    14    2
    22    20    21    2
    23    20    19    1
    24    21    26    1
    25    22    21    1
    26    23    22    1
    27    24    23    1
    28    24    25    1
    29    26    27    1
    30    26    13    1
    31    29    34    1
    32    30    32    1
    33    30    28    2
    34    31    35    2
    35    33    30    1
    36    34    33    1
    37    34    36    2
    38    35    38    1
    39    38    37    2
    40    38    33    1
    41    39    35    1
    42    39    29    1
