@<TRIPOS>MOLECULE
outputs/IAG933/test6/raw/output_623_IAG933_linker_design_.xyz
 41 45 0 0 0
SMALL
GASTEIGER

@<TRIPOS>ATOM
      1 C         -24.8550   -1.0120   30.1430 C.3     1  UNL1        0.1542
      2 C         -24.9730   -2.5050   29.7880 C.2     1  UNL1        0.0059
      3 C         -23.9060   -3.1730   29.1460 C.2     1  UNL1       -0.0019
      4 C         -23.9890   -4.5490   28.8530 C.2     1  UNL1       -0.0002
      5 C         -25.1370   -5.2800   29.2050 C.2     1  UNL1       -0.0000
      6 C         -26.2320   -4.6110   29.7840 C.2     1  UNL1       -0.0002
      7 C         -26.1550   -3.2320   30.0650 C.2     1  UNL1       -0.0019
      8 C         -25.3870   -0.6790   31.5710 C.3     1  UNL1        0.1065
      9 C         -25.1890    0.7730   32.0280 C.3     1  UNL1        0.0512
     10 C         -25.3360    0.6840   33.5440 C.3     1  UNL1        0.0228
     11 C         -24.8290   -0.7150   33.9050 C.3     1  UNL1        0.0889
     12 N         -24.7580   -1.4810   32.6460 N.3     1  UNL1       -0.2166
     13 C         -25.6880    1.6140   26.4610 C.2     1  UNL1        0.0407
     14 C         -26.2500    2.9200   26.3950 C.2     1  UNL1        0.0745
     15 C         -25.6420    4.0930   27.1230 C.2     1  UNL1        0.2241
     16 N         -25.6140    5.2520   26.4490 N.2     1  UNL1       -0.2356
     17 C         -25.0260    6.4790   26.9630 C.3     1  UNL1        0.1550
     18 O         -25.1430    3.9660   28.2430 O.2     1  UNL1       -0.4340
     19 C         -27.4380    3.0910   25.6450 C.2     1  UNL1        0.1068
     20 N         -28.0750    2.0890   25.0030 N.2     1  UNL1       -0.2081
     21 C         -27.5430    0.8490   25.0790 C.2     1  UNL1        0.2533
     22 O         -28.1930   -0.2080   24.4770 O.2     1  UNL1       -0.4558
     23 C         -29.4600    0.0050   23.8660 C.3     1  UNL1        0.2426
     24 C         -30.0650   -1.3770   23.5730 C.3     1  UNL1        0.2292
     25 O         -30.7290   -1.8780   24.7210 O.3     1  UNL1       -0.2162
     26 C         -26.3540    0.5760   25.7770 C.2     1  UNL1        0.1931
     27 F         -25.8600   -0.6810   25.7950 F       1  UNL1       -0.1992
     28 C         -22.0526    1.7728   27.0129 C.2     1  UNL1        0.3451
     29 C         -21.9198    0.0284   28.6172 C.2     1  UNL1        0.1572
     30 O         -23.6574   -0.4730   29.9764 O.3     1  UNL1       -0.3412
     31 C         -25.4169    3.3062   29.3987 C.3     1  UNL1        0.3248
     32 C         -24.6831    2.0742   29.7143 C.3     1  UNL1        0.1244
     33 O         -23.8355    2.7972   31.8911 O.3     1  UNL1       -0.2225
     34 O         -21.4574    0.7303   27.5793 O.3     1  UNL1       -0.4227
     35 C         -23.0850    2.2649   27.7031 C.2     1  UNL1        0.0768
     36 O         -25.4839    4.2537   30.3838 O.3     1  UNL1       -0.1740
     37 C         -21.1219   -0.9201   29.1654 C.2     1  UNL1        0.0388
     38 C         -23.1115    0.3208   29.1098 C.3     1  UNL1        0.1911
     39 O         -21.6963    2.2136   25.8350 O.2     1  UNL1       -0.2445
     40 C         -24.8142    2.0124   31.2719 C.3     1  UNL1        0.1633
     41 C         -23.6529    1.5450   28.7702 C.2     1  UNL1        0.0044
@<TRIPOS>BOND
     1     1     2    1
     2     1     8    1
     3     2     7    1
     4     3     2    2
     5     4     3    1
     6     4     5    2
     7     5     6    1
     8     6     7    2
     9     8     9    1
    10     8    12    1
    11     9    10    1
    12    10    11    1
    13    12    11    1
    14    14    13    1
    15    14    15    1
    16    15    18    1
    17    16    17    1
    18    16    15    2
    19    18    31    1
    20    19    14    2
    21    20    21    2
    22    20    19    1
    23    21    26    1
    24    22    21    1
    25    23    22    1
    26    24    23    1
    27    24    25    1
    28    26    27    1
    29    26    13    2
    30    28    34    1
    31    28    35    1
    32    29    37    2
    33    30     1    1
    34    31    36    1
    35    32    31    1
    36    32    40    1
    37    34    29    1
    38    35    41    2
    39    38    29    1
    40    38    30    1
    41    39    28    2
    42    40    33    1
    43    40     9    1
    44    41    38    1
    45    41    32    1
