@<TRIPOS>MOLECULE
outputs/IAG933/test6/raw/output_6230_IAG933_linker_design_.xyz
 44 48 0 0 0
SMALL
GASTEIGER

@<TRIPOS>ATOM
      1 C         -24.8550   -1.0120   30.1430 C.3     1  UNL1        0.0698
      2 C         -24.9730   -2.5050   29.7880 C.2     1  UNL1       -0.0184
      3 C         -23.9060   -3.1730   29.1460 C.2     1  UNL1       -0.0041
      4 C         -23.9890   -4.5490   28.8530 C.2     1  UNL1       -0.0003
      5 C         -25.1370   -5.2800   29.2050 C.2     1  UNL1       -0.0000
      6 C         -26.2320   -4.6110   29.7840 C.2     1  UNL1       -0.0003
      7 C         -26.1550   -3.2320   30.0650 C.2     1  UNL1       -0.0041
      8 C         -25.3870   -0.6790   31.5710 C.3     1  UNL1        0.0795
      9 C         -25.1890    0.7730   32.0280 C.3     1  UNL1        0.0193
     10 C         -25.3360    0.6840   33.5440 C.3     1  UNL1        0.0202
     11 C         -24.8290   -0.7150   33.9050 C.3     1  UNL1        0.0887
     12 N         -24.7580   -1.4810   32.6460 N.3     1  UNL1       -0.2190
     13 C         -25.6880    1.6140   26.4610 C.2     1  UNL1        0.0417
     14 C         -26.2500    2.9200   26.3950 C.2     1  UNL1        0.0767
     15 C         -25.6420    4.0930   27.1230 C.2     1  UNL1        0.2664
     16 N         -25.6140    5.2520   26.4490 N.am    1  UNL1       -0.1997
     17 C         -25.0260    6.4790   26.9630 C.3     1  UNL1        0.1388
     18 O         -25.1430    3.9660   28.2430 O.2     1  UNL1       -0.2683
     19 C         -27.4380    3.0910   25.6450 C.2     1  UNL1        0.1067
     20 N         -28.0750    2.0890   25.0030 N.2     1  UNL1       -0.2081
     21 C         -27.5430    0.8490   25.0790 C.2     1  UNL1        0.2533
     22 O         -28.1930   -0.2080   24.4770 O.2     1  UNL1       -0.4558
     23 C         -29.4600    0.0050   23.8660 C.3     1  UNL1        0.2426
     24 C         -30.0650   -1.3770   23.5730 C.3     1  UNL1        0.2292
     25 O         -30.7290   -1.8780   24.7210 O.3     1  UNL1       -0.2162
     26 C         -26.3540    0.5760   25.7770 C.2     1  UNL1        0.1932
     27 F         -25.8600   -0.6810   25.7950 F       1  UNL1       -0.1992
     28 N         -28.0721    1.6659   30.1533 N.3     1  UNL1       -0.1302
     29 C         -29.0610    1.0549   29.2395 C.3     1  UNL1        0.1239
     30 C         -24.3656    1.3555   27.1506 C.2     1  UNL1        0.0509
     31 C         -27.6280   -0.7746   28.2662 C.3     1  UNL1        0.1733
     32 C         -30.5221    1.4292   29.2527 C.3     1  UNL1        0.0536
     33 C         -22.7749    0.3174   28.7100 C.2     1  UNL1        0.2838
     34 C         -28.9700   -0.3688   28.9152 C.3     1  UNL1        0.1622
     35 N         -20.3912    1.0423   28.4796 N.pl3   1  UNL1        0.2200
     36 C         -23.2790    1.9576   26.5325 C.2     1  UNL1        0.2359
     37 O         -22.4095   -0.5575   29.6764 O.2     1  UNL1       -0.2786
     38 C         -24.1631    0.4999   28.3132 C.2     1  UNL1        0.0555
     39 O         -30.1991   -0.6383   28.1213 O.3     1  UNL1       -0.3521
     40 N         -22.0067    1.8191   26.9829 N.2     1  UNL1       -0.0259
     41 C         -25.2198   -0.1478   28.9706 C.3     1  UNL1        0.1462
     42 C         -21.7115    1.0285   28.0743 C.2     1  UNL1        0.4540
     43 C         -31.2464    0.3512   28.3748 C.3     1  UNL1        0.1438
     44 O         -26.5410   -0.0548   28.5865 O.3     1  UNL1       -0.3487
@<TRIPOS>BOND
     1     1    41    1
     2     2     7    1
     3     2     1    1
     4     3     2    2
     5     4     3    1
     6     4     5    2
     7     5     6    1
     8     6     7    2
     9     8     1    1
    10     8     9    1
    11     8    12    1
    12     9    10    1
    13    10    11    1
    14    12    11    1
    15    13    30    1
    16    14    13    1
    17    14    15    1
    18    15    18    2
    19    16    17    1
    20    16    15    1
    21    19    14    2
    22    20    21    2
    23    20    19    1
    24    21    26    1
    25    22    21    1
    26    23    22    1
    27    24    23    1
    28    24    25    1
    29    26    27    1
    30    26    13    2
    31    29    32    1
    32    29    28    1
    33    30    38    1
    34    31    44    1
    35    33    37    1
    36    34    31    1
    37    34    29    1
    38    36    40    1
    39    36    30    2
    40    38    33    2
    41    38    41    1
    42    39    43    1
    43    39    34    1
    44    40    42    2
    45    41    44    1
    46    42    35    1
    47    42    33    1
    48    43    32    1
