@<TRIPOS>MOLECULE
outputs/IAG933/test6/raw/output_6237_IAG933_linker_design_.xyz
 42 45 0 0 0
SMALL
GASTEIGER

@<TRIPOS>ATOM
      1 C         -24.8550   -1.0120   30.1430 C.3     1  UNL1        0.1123
      2 C         -24.9730   -2.5050   29.7880 C.2     1  UNL1       -0.0051
      3 C         -23.9060   -3.1730   29.1460 C.2     1  UNL1       -0.0029
      4 C         -23.9890   -4.5490   28.8530 C.2     1  UNL1       -0.0003
      5 C         -25.1370   -5.2800   29.2050 C.2     1  UNL1       -0.0000
      6 C         -26.2320   -4.6110   29.7840 C.2     1  UNL1       -0.0003
      7 C         -26.1550   -3.2320   30.0650 C.2     1  UNL1       -0.0029
      8 C         -25.3870   -0.6790   31.5710 C.3     1  UNL1        0.0929
      9 C         -25.1890    0.7730   32.0280 C.3     1  UNL1        0.0206
     10 C         -25.3360    0.6840   33.5440 C.3     1  UNL1        0.0203
     11 C         -24.8290   -0.7150   33.9050 C.3     1  UNL1        0.0888
     12 N         -24.7580   -1.4810   32.6460 N.3     1  UNL1       -0.2177
     13 C         -25.6880    1.6140   26.4610 C.2     1  UNL1        0.0215
     14 C         -26.2500    2.9200   26.3950 C.2     1  UNL1        0.0729
     15 C         -25.6420    4.0930   27.1230 C.2     1  UNL1        0.2661
     16 N         -25.6140    5.2520   26.4490 N.am    1  UNL1       -0.1997
     17 C         -25.0260    6.4790   26.9630 C.3     1  UNL1        0.1388
     18 O         -25.1430    3.9660   28.2430 O.2     1  UNL1       -0.2683
     19 C         -27.4380    3.0910   25.6450 C.2     1  UNL1        0.1064
     20 N         -28.0750    2.0890   25.0030 N.2     1  UNL1       -0.2081
     21 C         -27.5430    0.8490   25.0790 C.2     1  UNL1        0.2530
     22 O         -28.1930   -0.2080   24.4770 O.2     1  UNL1       -0.4558
     23 C         -29.4600    0.0050   23.8660 C.3     1  UNL1        0.2426
     24 C         -30.0650   -1.3770   23.5730 C.3     1  UNL1        0.2292
     25 O         -30.7290   -1.8780   24.7210 O.3     1  UNL1       -0.2162
     26 C         -26.3540    0.5760   25.7770 C.2     1  UNL1        0.1895
     27 F         -25.8600   -0.6810   25.7950 F       1  UNL1       -0.1996
     28 S         -22.7602    0.8779   29.0445 S.3     1  UNL1       -0.0815
     29 N         -27.0467    4.5989   31.2571 N.3     1  UNL1       -0.2691
     30 F         -20.7591    1.7985   27.7260 F       1  UNL1       -0.1968
     31 C         -27.4673    3.1929   31.1572 C.3     1  UNL1        0.0912
     32 N         -25.7628   -0.5160   29.0871 N.3     1  UNL1       -0.1970
     33 C         -25.6560    0.8560   28.9736 C.3     1  UNL1        0.1564
     34 C         -24.3617    1.4637   27.1051 C.3     1  UNL1        0.0737
     35 C         -24.3005    1.1985   28.4334 C.3     1  UNL1        0.0956
     36 C         -27.7926    2.6286   29.7613 C.3     1  UNL1        0.1075
     37 C         -26.2007    4.9362   32.3901 C.3     1  UNL1        0.0897
     38 N         -26.7370    1.7040   29.2142 N.3     1  UNL1       -0.2000
     39 C         -27.5299    5.6614   30.3979 C.3     1  UNL1        0.0897
     40 C         -22.0838    1.5460   27.7410 C.2     1  UNL1        0.1726
     41 C         -22.9779    1.7415   26.7385 C.2     1  UNL1        0.0734
     42 CL        -22.3821    2.2124   25.1857 Cl      1  UNL1       -0.0837
@<TRIPOS>BOND
     1     1    32    1
     2     2     7    1
     3     2     1    1
     4     3     2    2
     5     4     3    1
     6     4     5    2
     7     5     6    1
     8     6     7    2
     9     8     1    1
    10     8     9    1
    11     8    12    1
    12     9    10    1
    13    10    11    1
    14    12    11    1
    15    14    13    1
    16    14    15    1
    17    15    18    2
    18    16    17    1
    19    16    15    1
    20    19    14    2
    21    20    21    2
    22    20    19    1
    23    21    26    1
    24    22    21    1
    25    23    22    1
    26    24    23    1
    27    24    25    1
    28    26    27    1
    29    26    13    2
    30    29    37    1
    31    30    40    1
    32    31    29    1
    33    33    32    1
    34    33    38    1
    35    34    13    1
    36    34    35    1
    37    35    33    1
    38    35    28    1
    39    36    31    1
    40    38    36    1
    41    39    29    1
    42    40    28    1
    43    41    34    1
    44    41    40    2
    45    42    41    1
