@<TRIPOS>MOLECULE
outputs/IAG933/test6/raw/output_6245_IAG933_linker_design_.xyz
 40 44 0 0 0
SMALL
GASTEIGER

@<TRIPOS>ATOM
      1 C         -24.8550   -1.0120   30.1430 C.3     1  UNL1        0.1149
      2 C         -24.9730   -2.5050   29.7880 C.2     1  UNL1       -0.0125
      3 C         -23.9060   -3.1730   29.1460 C.2     1  UNL1       -0.0038
      4 C         -23.9890   -4.5490   28.8530 C.2     1  UNL1       -0.0003
      5 C         -25.1370   -5.2800   29.2050 C.2     1  UNL1       -0.0000
      6 C         -26.2320   -4.6110   29.7840 C.2     1  UNL1       -0.0003
      7 C         -26.1550   -3.2320   30.0650 C.2     1  UNL1       -0.0038
      8 C         -25.3870   -0.6790   31.5710 C.3     1  UNL1        0.0855
      9 C         -25.1890    0.7730   32.0280 C.3     1  UNL1        0.0197
     10 C         -25.3360    0.6840   33.5440 C.3     1  UNL1        0.0203
     11 C         -24.8290   -0.7150   33.9050 C.3     1  UNL1        0.0887
     12 N         -24.7580   -1.4810   32.6460 N.3     1  UNL1       -0.2186
     13 C         -25.6880    1.6140   26.4610 C.2     1  UNL1        0.0344
     14 C         -26.2500    2.9200   26.3950 C.2     1  UNL1        0.0741
     15 C         -25.6420    4.0930   27.1230 C.2     1  UNL1        0.2662
     16 N         -25.6140    5.2520   26.4490 N.am    1  UNL1       -0.1997
     17 C         -25.0260    6.4790   26.9630 C.3     1  UNL1        0.1388
     18 O         -25.1430    3.9660   28.2430 O.2     1  UNL1       -0.2683
     19 C         -27.4380    3.0910   25.6450 C.2     1  UNL1        0.1065
     20 N         -28.0750    2.0890   25.0030 N.2     1  UNL1       -0.2081
     21 C         -27.5430    0.8490   25.0790 C.2     1  UNL1        0.2530
     22 O         -28.1930   -0.2080   24.4770 O.2     1  UNL1       -0.4558
     23 C         -29.4600    0.0050   23.8660 C.3     1  UNL1        0.2426
     24 C         -30.0650   -1.3770   23.5730 C.3     1  UNL1        0.2292
     25 O         -30.7290   -1.8780   24.7210 O.3     1  UNL1       -0.2162
     26 C         -26.3540    0.5760   25.7770 C.2     1  UNL1        0.1907
     27 F         -25.8600   -0.6810   25.7950 F       1  UNL1       -0.1995
     28 C         -22.6883    1.7539   28.1464 C.3     1  UNL1        0.0492
     29 C         -23.2912    1.5949   26.9897 C.3     1  UNL1        0.1288
     30 C         -22.8789    1.5171   25.6387 C.2     1  UNL1        0.3664
     31 O         -23.4674    0.7856   24.8140 O.co2   1  UNL1       -0.2456
     32 C         -24.5503    1.2798   27.4026 C.3     1  UNL1        0.1123
     33 C         -25.4540   -0.0437   29.1813 C.2     1  UNL1        0.2318
     34 C         -21.2441    0.4562   28.1286 C.3     1  UNL1        0.0906
     35 N         -22.1643   -0.2249   29.1052 N.3     1  UNL1       -0.2000
     36 O         -21.7240    1.9705   25.3408 O.co2   1  UNL1       -0.2456
     37 C         -23.1187    0.9013   29.1884 C.3     1  UNL1        0.1502
     38 N         -24.5849    0.6922   28.3873 N.am    1  UNL1       -0.2637
     39 O         -26.6821    0.1592   29.1328 O.2     1  UNL1       -0.2744
     40 C         -21.1585    1.5815   27.9479 C.3     1  UNL1        0.0226
@<TRIPOS>BOND
     1     1    33    1
     2     2     7    1
     3     2     1    1
     4     3     2    2
     5     4     3    1
     6     4     5    2
     7     5     6    1
     8     6     7    2
     9     8     1    1
    10     8     9    1
    11     8    12    1
    12     9    10    1
    13    10    11    1
    14    12    11    1
    15    14    13    1
    16    14    15    1
    17    15    18    2
    18    16    17    1
    19    16    15    1
    20    19    14    2
    21    20    21    2
    22    20    19    1
    23    21    26    1
    24    22    21    1
    25    23    22    1
    26    24    23    1
    27    24    25    1
    28    26    27    1
    29    26    13    2
    30    28    40    1
    31    28    37    1
    32    29    30    1
    33    29    32    1
    34    29    28    1
    35    31    30   ar
    36    32    13    1
    37    32    38    1
    38    34    35    1
    39    36    30   ar
    40    37    35    1
    41    38    33   am
    42    38    37    1
    43    39    33    2
    44    40    34    1
