@<TRIPOS>MOLECULE
outputs/IAG933/test6/raw/output_6247_IAG933_linker_design_.xyz
 43 46 0 0 0
SMALL
GASTEIGER

@<TRIPOS>ATOM
      1 C         -24.8550   -1.0120   30.1430 C.3     1  UNL1        0.0383
      2 C         -24.9730   -2.5050   29.7880 C.2     1  UNL1       -0.0212
      3 C         -23.9060   -3.1730   29.1460 C.2     1  UNL1       -0.0042
      4 C         -23.9890   -4.5490   28.8530 C.2     1  UNL1       -0.0003
      5 C         -25.1370   -5.2800   29.2050 C.2     1  UNL1       -0.0000
      6 C         -26.2320   -4.6110   29.7840 C.2     1  UNL1       -0.0003
      7 C         -26.1550   -3.2320   30.0650 C.2     1  UNL1       -0.0042
      8 C         -25.3870   -0.6790   31.5710 C.3     1  UNL1        0.0768
      9 C         -25.1890    0.7730   32.0280 C.3     1  UNL1        0.0192
     10 C         -25.3360    0.6840   33.5440 C.3     1  UNL1        0.0202
     11 C         -24.8290   -0.7150   33.9050 C.3     1  UNL1        0.0887
     12 N         -24.7580   -1.4810   32.6460 N.3     1  UNL1       -0.2191
     13 C         -25.6880    1.6140   26.4610 C.3     1  UNL1        0.0702
     14 C         -26.2500    2.9200   26.3950 C.2     1  UNL1        0.0548
     15 C         -25.6420    4.0930   27.1230 C.2     1  UNL1        0.2624
     16 N         -25.6140    5.2520   26.4490 N.am    1  UNL1       -0.2000
     17 C         -25.0260    6.4790   26.9630 C.3     1  UNL1        0.1388
     18 O         -25.1430    3.9660   28.2430 O.2     1  UNL1       -0.2687
     19 C         -27.4380    3.0910   25.6450 C.2     1  UNL1        0.1021
     20 N         -28.0750    2.0890   25.0030 N.2     1  UNL1       -0.2119
     21 C         -27.5430    0.8490   25.0790 C.2     1  UNL1        0.2341
     22 O         -28.1930   -0.2080   24.4770 O.2     1  UNL1       -0.4585
     23 C         -29.4600    0.0050   23.8660 C.3     1  UNL1        0.2423
     24 C         -30.0650   -1.3770   23.5730 C.3     1  UNL1        0.2292
     25 O         -30.7290   -1.8780   24.7210 O.3     1  UNL1       -0.2162
     26 C         -26.3540    0.5760   25.7770 C.3     1  UNL1        0.2400
     27 F         -25.8600   -0.6810   25.7950 F       1  UNL1       -0.2269
     28 O         -32.6153   -0.0133   27.7243 O.3     1  UNL1       -0.2231
     29 C         -22.9534    2.0136   25.5252 C.3     1  UNL1        0.0000
     30 C         -28.3532    0.5478   30.0500 C.3     1  UNL1        0.0026
     31 C         -22.3246    0.7091   28.1511 C.3     1  UNL1        0.0000
     32 C         -31.3453    0.0845   28.0083 C.3     1  UNL1        0.1545
     33 C         -29.8321    0.9957   30.1209 C.3     1  UNL1        0.0027
     34 C         -30.8383    1.0935   29.0039 C.3     1  UNL1        0.0330
     35 C         -23.3269    1.5638   27.3010 C.3     1  UNL1        0.0004
     36 C         -29.1996   -1.0944   28.3837 C.3     1  UNL1        0.1545
     37 C         -28.0752   -0.1011   28.6572 C.3     1  UNL1        0.0305
     38 C         -30.2714   -0.7567   27.4089 C.3     1  UNL1        0.0657
     39 C         -20.9160    1.3575   27.7787 C.3     1  UNL1        0.0000
     40 C         -25.1662    0.0982   28.9448 C.3     1  UNL1        0.0059
     41 O         -29.3705   -2.0394   29.3639 O.3     1  UNL1       -0.2231
     42 C         -26.5294   -0.5144   28.5186 C.3     1  UNL1        0.0029
     43 C         -24.7714    1.0946   27.6260 C.3     1  UNL1        0.0078
@<TRIPOS>BOND
     1     1    40    1
     2     2     7    1
     3     2     1    1
     4     3     2    2
     5     4     3    1
     6     4     5    2
     7     5     6    1
     8     6     7    2
     9     8     1    1
    10     8     9    1
    11     8    12    1
    12     9    10    1
    13    10    11    1
    14    12    11    1
    15    13    43    1
    16    14    13    1
    17    14    15    1
    18    15    18    2
    19    16    17    1
    20    16    15    1
    21    19    14    2
    22    20    21    2
    23    20    19    1
    24    21    26    1
    25    22    21    1
    26    23    22    1
    27    24    23    1
    28    24    25    1
    29    26    27    1
    30    26    13    1
    31    30    33    1
    32    32    28    1
    33    32    34    1
    34    34    33    1
    35    35    29    1
    36    35    31    1
    37    36    37    1
    38    36    41    1
    39    37    42    1
    40    37    30    1
    41    38    32    1
    42    38    36    1
    43    39    31    1
    44    40    42    1
    45    43    35    1
    46    43    40    1
