@<TRIPOS>MOLECULE
outputs/IAG933/test6/raw/output_625_IAG933_linker_design_.xyz
 42 46 0 0 0
SMALL
GASTEIGER

@<TRIPOS>ATOM
      1 C         -24.8550   -1.0120   30.1430 C.3     1  UNL1        0.0975
      2 C         -24.9730   -2.5050   29.7880 C.2     1  UNL1       -0.0064
      3 C         -23.9060   -3.1730   29.1460 C.2     1  UNL1       -0.0029
      4 C         -23.9890   -4.5490   28.8530 C.2     1  UNL1       -0.0003
      5 C         -25.1370   -5.2800   29.2050 C.2     1  UNL1       -0.0000
      6 C         -26.2320   -4.6110   29.7840 C.2     1  UNL1       -0.0003
      7 C         -26.1550   -3.2320   30.0650 C.2     1  UNL1       -0.0029
      8 C         -25.3870   -0.6790   31.5710 C.3     1  UNL1        0.0916
      9 C         -25.1890    0.7730   32.0280 C.3     1  UNL1        0.0206
     10 C         -25.3360    0.6840   33.5440 C.3     1  UNL1        0.0203
     11 C         -24.8290   -0.7150   33.9050 C.3     1  UNL1        0.0888
     12 N         -24.7580   -1.4810   32.6460 N.3     1  UNL1       -0.2178
     13 C         -25.6880    1.6140   26.4610 C.3     1  UNL1        0.1038
     14 C         -26.2500    2.9200   26.3950 C.2     1  UNL1        0.0578
     15 C         -25.6420    4.0930   27.1230 C.2     1  UNL1        0.2625
     16 N         -25.6140    5.2520   26.4490 N.am    1  UNL1       -0.2000
     17 C         -25.0260    6.4790   26.9630 C.3     1  UNL1        0.1388
     18 O         -25.1430    3.9660   28.2430 O.2     1  UNL1       -0.2687
     19 C         -27.4380    3.0910   25.6450 C.2     1  UNL1        0.1022
     20 N         -28.0750    2.0890   25.0030 N.2     1  UNL1       -0.2119
     21 C         -27.5430    0.8490   25.0790 C.2     1  UNL1        0.2342
     22 O         -28.1930   -0.2080   24.4770 O.2     1  UNL1       -0.4585
     23 C         -29.4600    0.0050   23.8660 C.3     1  UNL1        0.2423
     24 C         -30.0650   -1.3770   23.5730 C.3     1  UNL1        0.2292
     25 O         -30.7290   -1.8780   24.7210 O.3     1  UNL1       -0.2162
     26 C         -26.3540    0.5760   25.7770 C.3     1  UNL1        0.2430
     27 F         -25.8600   -0.6810   25.7950 F       1  UNL1       -0.2268
     28 O         -30.8822   -0.2788   30.4465 O.3     1  UNL1       -0.2177
     29 N         -23.6050    1.4845   27.5805 N.am    1  UNL1       -0.1917
     30 O         -22.5488   -0.3933   28.5274 O.2     1  UNL1       -0.2733
     31 C         -27.2553    0.9723   30.0099 C.3     1  UNL1        0.0521
     32 C         -31.4860    0.4488   29.7003 C.3     1  UNL1        0.2148
     33 O         -30.1129    0.0174   27.5535 O.3     1  UNL1       -0.2202
     34 C         -29.4576    1.8834   29.0082 C.3     1  UNL1        0.0685
     35 C         -25.0221    0.8836   27.7652 C.3     1  UNL1        0.1457
     36 N         -25.2186   -0.1194   29.0034 N.3     1  UNL1       -0.2526
     37 C         -25.9802    0.9770   28.9710 C.3     1  UNL1        0.0945
     38 C         -21.1377    1.4747   27.8555 C.3     1  UNL1        0.0965
     39 C         -28.8216    0.6940   29.7959 C.3     1  UNL1        0.1561
     40 O         -29.6499   -0.0403   30.8127 O.3     1  UNL1       -0.2229
     41 C         -30.6681    1.0643   28.4185 C.3     1  UNL1        0.1873
     42 C         -22.3998    0.6547   27.9529 C.2     1  UNL1        0.2430
@<TRIPOS>BOND
     1     1     2    1
     2     2     7    1
     3     3     2    2
     4     4     3    1
     5     4     5    2
     6     5     6    1
     7     6     7    2
     8     8     1    1
     9     8     9    1
    10     8    12    1
    11     9    10    1
    12    10    11    1
    13    12    11    1
    14    13    14    1
    15    13    35    1
    16    14    15    1
    17    15    18    2
    18    16    17    1
    19    16    15    1
    20    19    14    2
    21    20    21    2
    22    20    19    1
    23    21    26    1
    24    22    21    1
    25    23    22    1
    26    24    23    1
    27    24    25    1
    28    26    27    1
    29    26    13    1
    30    28    40    1
    31    29    42    1
    32    32    28    1
    33    34    39    1
    34    35    29    1
    35    35    37    1
    36    35    36    1
    37    36     1    1
    38    37    36    1
    39    37    31    1
    40    38    42    1
    41    39    31    1
    42    39    40    1
    43    41    33    1
    44    41    34    1
    45    41    32    1
    46    42    30    2
