@<TRIPOS>MOLECULE
outputs/IAG933/test6/raw/output_6252_IAG933_linker_design_.xyz
 42 46 0 0 0
SMALL
GASTEIGER

@<TRIPOS>ATOM
      1 C         -24.8550   -1.0120   30.1430 C.3     1  UNL1        0.1118
      2 C         -24.9730   -2.5050   29.7880 C.2     1  UNL1       -0.0030
      3 C         -23.9060   -3.1730   29.1460 C.2     1  UNL1       -0.0026
      4 C         -23.9890   -4.5490   28.8530 C.2     1  UNL1       -0.0003
      5 C         -25.1370   -5.2800   29.2050 C.2     1  UNL1       -0.0000
      6 C         -26.2320   -4.6110   29.7840 C.2     1  UNL1       -0.0003
      7 C         -26.1550   -3.2320   30.0650 C.2     1  UNL1       -0.0026
      8 C         -25.3870   -0.6790   31.5710 C.3     1  UNL1        0.0951
      9 C         -25.1890    0.7730   32.0280 C.3     1  UNL1        0.0209
     10 C         -25.3360    0.6840   33.5440 C.3     1  UNL1        0.0203
     11 C         -24.8290   -0.7150   33.9050 C.3     1  UNL1        0.0888
     12 N         -24.7580   -1.4810   32.6460 N.3     1  UNL1       -0.2174
     13 C         -25.6880    1.6140   26.4610 C.2     1  UNL1        0.0390
     14 C         -26.2500    2.9200   26.3950 C.2     1  UNL1        0.0764
     15 C         -25.6420    4.0930   27.1230 C.2     1  UNL1        0.2664
     16 N         -25.6140    5.2520   26.4490 N.am    1  UNL1       -0.1997
     17 C         -25.0260    6.4790   26.9630 C.3     1  UNL1        0.1388
     18 O         -25.1430    3.9660   28.2430 O.2     1  UNL1       -0.2683
     19 C         -27.4380    3.0910   25.6450 C.2     1  UNL1        0.1067
     20 N         -28.0750    2.0890   25.0030 N.2     1  UNL1       -0.2081
     21 C         -27.5430    0.8490   25.0790 C.2     1  UNL1        0.2533
     22 O         -28.1930   -0.2080   24.4770 O.2     1  UNL1       -0.4558
     23 C         -29.4600    0.0050   23.8660 C.3     1  UNL1        0.2426
     24 C         -30.0650   -1.3770   23.5730 C.3     1  UNL1        0.2292
     25 O         -30.7290   -1.8780   24.7210 O.3     1  UNL1       -0.2162
     26 C         -26.3540    0.5760   25.7770 C.2     1  UNL1        0.1929
     27 F         -25.8600   -0.6810   25.7950 F       1  UNL1       -0.1992
     28 C         -28.0667    1.7504   29.5055 C.2     1  UNL1        0.0294
     29 C         -25.0879    0.3878   28.3456 C.3     1  UNL1        0.1215
     30 F         -30.1670    1.7926   28.6832 F       1  UNL1       -0.2042
     31 C         -26.4765    0.2841   28.7031 C.2     1  UNL1        0.0001
     32 C         -24.6969    1.1518   27.2468 C.2     1  UNL1        0.0406
     33 C         -28.8526   -0.3029   28.6411 C.2     1  UNL1        0.0294
     34 C         -22.4819    1.0149   27.9710 C.2     1  UNL1        0.0568
     35 O         -23.0880    2.1882   25.8372 O.2     1  UNL1       -0.2922
     36 F         -21.7255    2.3842   25.7455 F       1  UNL1        0.0138
     37 C         -26.8187    1.4571   29.2432 C.2     1  UNL1       -0.0000
     38 C         -22.8916    0.1484   28.9578 C.2     1  UNL1        0.0653
     39 C         -27.5154   -0.7188   28.5308 C.2     1  UNL1       -0.0000
     40 C         -23.3963    1.4949   27.0490 C.2     1  UNL1        0.1881
     41 C         -29.0869    1.0644   28.9718 C.2     1  UNL1        0.1401
     42 N         -24.2375   -0.1477   29.1520 N.pl3   1  UNL1       -0.2971
@<TRIPOS>BOND
     1     1     2    1
     2     2     7    1
     3     3     2    2
     4     4     3    1
     5     4     5    2
     6     5     6    1
     7     6     7    2
     8     8     1    1
     9     8     9    1
    10     8    12    1
    11     9    10    1
    12    10    11    1
    13    12    11    1
    14    13    32    1
    15    14    13    1
    16    14    15    1
    17    15    18    2
    18    16    17    1
    19    16    15    1
    20    19    14    2
    21    20    21    2
    22    20    19    1
    23    21    26    1
    24    22    21    1
    25    23    22    1
    26    24    23    1
    27    24    25    1
    28    26    27    1
    29    26    13    2
    30    29    31    1
    31    29    42    1
    32    30    41    1
    33    31    37    2
    34    32    29    1
    35    33    41    1
    36    34    38    2
    37    35    40    1
    38    36    35    1
    39    37    28    1
    40    38    42    1
    41    39    33    2
    42    39    31    1
    43    40    32    2
    44    40    34    1
    45    41    28    2
    46    42     1    1
