@<TRIPOS>MOLECULE
outputs/IAG933/test6/raw/output_6259_IAG933_linker_design_.xyz
 41 44 0 0 0
SMALL
GASTEIGER

@<TRIPOS>ATOM
      1 C         -24.8550   -1.0120   30.1430 C.3     1  UNL1        0.0392
      2 C         -24.9730   -2.5050   29.7880 C.2     1  UNL1       -0.0211
      3 C         -23.9060   -3.1730   29.1460 C.2     1  UNL1       -0.0042
      4 C         -23.9890   -4.5490   28.8530 C.2     1  UNL1       -0.0003
      5 C         -25.1370   -5.2800   29.2050 C.2     1  UNL1       -0.0000
      6 C         -26.2320   -4.6110   29.7840 C.2     1  UNL1       -0.0003
      7 C         -26.1550   -3.2320   30.0650 C.2     1  UNL1       -0.0042
      8 C         -25.3870   -0.6790   31.5710 C.3     1  UNL1        0.0768
      9 C         -25.1890    0.7730   32.0280 C.3     1  UNL1        0.0192
     10 C         -25.3360    0.6840   33.5440 C.3     1  UNL1        0.0202
     11 C         -24.8290   -0.7150   33.9050 C.3     1  UNL1        0.0887
     12 N         -24.7580   -1.4810   32.6460 N.3     1  UNL1       -0.2191
     13 C         -25.6880    1.6140   26.4610 C.2     1  UNL1        0.0167
     14 C         -26.2500    2.9200   26.3950 C.2     1  UNL1        0.0726
     15 C         -25.6420    4.0930   27.1230 C.2     1  UNL1        0.2661
     16 N         -25.6140    5.2520   26.4490 N.am    1  UNL1       -0.1997
     17 C         -25.0260    6.4790   26.9630 C.3     1  UNL1        0.1388
     18 O         -25.1430    3.9660   28.2430 O.2     1  UNL1       -0.2683
     19 C         -27.4380    3.0910   25.6450 C.2     1  UNL1        0.1064
     20 N         -28.0750    2.0890   25.0030 N.2     1  UNL1       -0.2081
     21 C         -27.5430    0.8490   25.0790 C.2     1  UNL1        0.2530
     22 O         -28.1930   -0.2080   24.4770 O.2     1  UNL1       -0.4558
     23 C         -29.4600    0.0050   23.8660 C.3     1  UNL1        0.2426
     24 C         -30.0650   -1.3770   23.5730 C.3     1  UNL1        0.2292
     25 O         -30.7290   -1.8780   24.7210 O.3     1  UNL1       -0.2162
     26 C         -26.3540    0.5760   25.7770 C.2     1  UNL1        0.1891
     27 F         -25.8600   -0.6810   25.7950 F       1  UNL1       -0.1996
     28 C         -24.3639    1.3746   26.9032 C.3     1  UNL1        0.0398
     29 C         -29.4306   -0.5276   28.8296 C.3     1  UNL1        0.1260
     30 C         -31.1445    0.4150   27.3485 C.3     1  UNL1        0.1421
     31 C         -32.1718   -0.5993   27.7558 C.3     1  UNL1        0.0322
     32 S         -26.7692    0.7990   28.9128 S.3     1  UNL1       -0.1382
     33 C         -21.9748    1.0013   28.4692 C.3     1  UNL1        0.0000
     34 C         -24.3478    0.0116   29.1251 C.3     1  UNL1        0.0157
     35 C         -30.3483   -1.0418   29.7345 C.3     1  UNL1        0.0305
     36 O         -30.3303    0.7251   28.4278 O.3     1  UNL1       -0.3554
     37 C         -31.5688   -1.4397   28.8181 C.3     1  UNL1        0.0051
     38 C         -24.9848    0.7405   28.3832 C.3     1  UNL1        0.0525
     39 C         -21.3766    1.5244   27.1500 C.3     1  UNL1        0.0000
     40 C         -22.7418   -0.0124   28.9165 C.3     1  UNL1        0.0012
     41 C         -28.2374   -0.1278   29.4860 C.3     1  UNL1        0.0870
@<TRIPOS>BOND
     1     1    34    1
     2     2     7    1
     3     2     1    1
     4     3     2    2
     5     4     3    1
     6     4     5    2
     7     5     6    1
     8     6     7    2
     9     8     1    1
    10     8     9    1
    11     8    12    1
    12     9    10    1
    13    10    11    1
    14    12    11    1
    15    13    28    1
    16    14    13    1
    17    14    15    1
    18    15    18    2
    19    16    17    1
    20    16    15    1
    21    19    14    2
    22    20    21    2
    23    20    19    1
    24    21    26    1
    25    22    21    1
    26    23    22    1
    27    24    23    1
    28    24    25    1
    29    26    27    1
    30    26    13    2
    31    29    41    1
    32    29    35    1
    33    30    31    1
    34    30    36    1
    35    31    37    1
    36    32    41    1
    37    33    40    1
    38    34    40    1
    39    36    29    1
    40    37    35    1
    41    38    28    1
    42    38    32    1
    43    38    34    1
    44    39    33    1
