@<TRIPOS>MOLECULE
outputs/IAG933/test6/raw/output_626_IAG933_linker_design_.xyz
 43 47 0 0 0
SMALL
GASTEIGER

@<TRIPOS>ATOM
      1 C         -24.8550   -1.0120   30.1430 C.3     1  UNL1        0.0786
      2 C         -24.9730   -2.5050   29.7880 C.2     1  UNL1       -0.0155
      3 C         -23.9060   -3.1730   29.1460 C.2     1  UNL1       -0.0039
      4 C         -23.9890   -4.5490   28.8530 C.2     1  UNL1       -0.0003
      5 C         -25.1370   -5.2800   29.2050 C.2     1  UNL1       -0.0000
      6 C         -26.2320   -4.6110   29.7840 C.2     1  UNL1       -0.0003
      7 C         -26.1550   -3.2320   30.0650 C.2     1  UNL1       -0.0039
      8 C         -25.3870   -0.6790   31.5710 C.3     1  UNL1        0.0824
      9 C         -25.1890    0.7730   32.0280 C.3     1  UNL1        0.0196
     10 C         -25.3360    0.6840   33.5440 C.3     1  UNL1        0.0203
     11 C         -24.8290   -0.7150   33.9050 C.3     1  UNL1        0.0887
     12 N         -24.7580   -1.4810   32.6460 N.3     1  UNL1       -0.2187
     13 C         -25.6880    1.6140   26.4610 C.3     1  UNL1        0.0941
     14 C         -26.2500    2.9200   26.3950 C.2     1  UNL1        0.0589
     15 C         -25.6420    4.0930   27.1230 C.2     1  UNL1        0.2628
     16 N         -25.6140    5.2520   26.4490 N.am    1  UNL1       -0.2000
     17 C         -25.0260    6.4790   26.9630 C.3     1  UNL1        0.1388
     18 O         -25.1430    3.9660   28.2430 O.2     1  UNL1       -0.2686
     19 C         -27.4380    3.0910   25.6450 C.2     1  UNL1        0.1025
     20 N         -28.0750    2.0890   25.0030 N.2     1  UNL1       -0.2118
     21 C         -27.5430    0.8490   25.0790 C.2     1  UNL1        0.2344
     22 O         -28.1930   -0.2080   24.4770 O.2     1  UNL1       -0.4585
     23 C         -29.4600    0.0050   23.8660 C.3     1  UNL1        0.2423
     24 C         -30.0650   -1.3770   23.5730 C.3     1  UNL1        0.2292
     25 O         -30.7290   -1.8780   24.7210 O.3     1  UNL1       -0.2162
     26 C         -26.3540    0.5760   25.7770 C.3     1  UNL1        0.2441
     27 F         -25.8600   -0.6810   25.7950 F       1  UNL1       -0.2265
     28 C         -22.5719    0.8017   28.1209 C.ar    1  UNL1        0.1415
     29 O         -27.4478    0.0475   29.1680 O.2     1  UNL1       -0.2683
     30 C         -27.8331    2.8306   30.6606 C.3     1  UNL1        0.1170
     31 C         -21.3280    1.2247   27.7531 C.2     1  UNL1        0.2327
     32 N         -26.7633    4.2948   32.8672 N.3     1  UNL1       -0.1313
     33 C         -25.3015    0.7907   28.6122 C.ar    1  UNL1        0.0669
     34 C         -26.7378    1.0323   29.0711 C.2     1  UNL1        0.2657
     35 O         -21.4593    1.9429   26.6528 O.2     1  UNL1       -0.3485
     36 C         -24.4017   -0.0488   29.2823 C.ar    1  UNL1        0.0683
     37 N         -27.2799    2.3257   29.3826 N.am    1  UNL1       -0.2016
     38 C         -24.8342    1.3371   27.4780 C.ar    1  UNL1        0.0130
     39 N         -22.8306    2.1798   26.3896 N.2     1  UNL1       -0.0755
     40 C         -27.5761    5.1497   31.9980 C.3     1  UNL1        0.1111
     41 C         -27.9740    4.3644   30.7358 C.3     1  UNL1        0.0439
     42 C         -23.4972    1.4416   27.3498 C.ar    1  UNL1        0.1372
     43 N         -23.0748    0.0334   29.1269 N.ar    1  UNL1       -0.2443
@<TRIPOS>BOND
     1     1    36    1
     2     2     7    1
     3     2     1    1
     4     3     2    2
     5     4     3    1
     6     4     5    2
     7     5     6    1
     8     6     7    2
     9     8     1    1
    10     8     9    1
    11     8    12    1
    12     9    10    1
    13    10    11    1
    14    12    11    1
    15    13    38    1
    16    14    13    1
    17    14    15    1
    18    15    18    2
    19    16    17    1
    20    16    15    1
    21    19    14    2
    22    20    21    2
    23    20    19    1
    24    21    26    1
    25    22    21    1
    26    23    22    1
    27    24    23    1
    28    24    25    1
    29    26    27    1
    30    26    13    1
    31    28    43   ar
    32    30    41    1
    33    31    28    2
    34    33    34    1
    35    33    36   ar
    36    34    29    2
    37    34    37    1
    38    35    31    1
    39    37    30    1
    40    38    33   ar
    41    39    35    1
    42    39    42    2
    43    40    32    1
    44    41    40    1
    45    42    38   ar
    46    42    28   ar
    47    43    36   ar
