@<TRIPOS>MOLECULE
outputs/IAG933/test6/raw/output_6260_IAG933_linker_design_.xyz
 39 43 0 0 0
SMALL
GASTEIGER

@<TRIPOS>ATOM
      1 C         -24.8550   -1.0120   30.1430 C.3     1  UNL1        0.1136
      2 C         -24.9730   -2.5050   29.7880 C.2     1  UNL1       -0.0029
      3 C         -23.9060   -3.1730   29.1460 C.2     1  UNL1       -0.0026
      4 C         -23.9890   -4.5490   28.8530 C.2     1  UNL1       -0.0003
      5 C         -25.1370   -5.2800   29.2050 C.2     1  UNL1       -0.0000
      6 C         -26.2320   -4.6110   29.7840 C.2     1  UNL1       -0.0003
      7 C         -26.1550   -3.2320   30.0650 C.2     1  UNL1       -0.0026
      8 C         -25.3870   -0.6790   31.5710 C.3     1  UNL1        0.0951
      9 C         -25.1890    0.7730   32.0280 C.3     1  UNL1        0.0209
     10 C         -25.3360    0.6840   33.5440 C.3     1  UNL1        0.0203
     11 C         -24.8290   -0.7150   33.9050 C.3     1  UNL1        0.0888
     12 N         -24.7580   -1.4810   32.6460 N.3     1  UNL1       -0.2174
     13 C         -25.6880    1.6140   26.4610 C.3     1  UNL1        0.1453
     14 C         -26.2500    2.9200   26.3950 C.2     1  UNL1        0.0731
     15 C         -25.6420    4.0930   27.1230 C.2     1  UNL1        0.2640
     16 N         -25.6140    5.2520   26.4490 N.am    1  UNL1       -0.1999
     17 C         -25.0260    6.4790   26.9630 C.3     1  UNL1        0.1388
     18 O         -25.1430    3.9660   28.2430 O.2     1  UNL1       -0.2686
     19 C         -27.4380    3.0910   25.6450 C.2     1  UNL1        0.1038
     20 N         -28.0750    2.0890   25.0030 N.2     1  UNL1       -0.2118
     21 C         -27.5430    0.8490   25.0790 C.2     1  UNL1        0.2358
     22 O         -28.1930   -0.2080   24.4770 O.2     1  UNL1       -0.4585
     23 C         -29.4600    0.0050   23.8660 C.3     1  UNL1        0.2423
     24 C         -30.0650   -1.3770   23.5730 C.3     1  UNL1        0.2292
     25 O         -30.7290   -1.8780   24.7210 O.3     1  UNL1       -0.2162
     26 C         -26.3540    0.5760   25.7770 C.3     1  UNL1        0.2581
     27 F         -25.8600   -0.6810   25.7950 F       1  UNL1       -0.2251
     28 CL        -22.9860    2.7096   25.3648 Cl      1  UNL1       -0.0809
     29 C         -25.3125    0.4174   28.5643 C.3     1  UNL1        0.2456
     30 N         -24.4302   -0.1366   29.1152 N.pl3   1  UNL1       -0.2769
     31 C         -20.9522    0.6062   28.0432 C.2     1  UNL1        0.0022
     32 N         -27.8031    0.0437   28.5224 N.1     1  UNL1       -0.1923
     33 C         -26.7067    0.1605   28.5490 C.1     1  UNL1        0.1143
     34 N         -24.9405    1.1458   27.5049 N.pl3   1  UNL1       -0.2742
     35 C         -23.2961    0.2689   28.5292 C.2     1  UNL1        0.0643
     36 C         -21.2772    1.5777   27.1192 C.2     1  UNL1        0.0127
     37 C         -21.9349   -0.0644   28.7654 C.2     1  UNL1        0.0159
     38 C         -23.6072    1.1443   27.5909 C.2     1  UNL1        0.0742
     39 C         -22.6014    1.7681   26.8309 C.2     1  UNL1        0.0722
@<TRIPOS>BOND
     1     1     2    1
     2     2     7    1
     3     3     2    2
     4     4     3    1
     5     4     5    2
     6     5     6    1
     7     6     7    2
     8     8     1    1
     9     8     9    1
    10     8    12    1
    11     9    10    1
    12    10    11    1
    13    12    11    1
    14    13    34    1
    15    14    13    1
    16    14    15    1
    17    15    18    2
    18    16    17    1
    19    16    15    1
    20    19    14    2
    21    20    21    2
    22    20    19    1
    23    21    26    1
    24    22    21    1
    25    23    22    1
    26    24    23    1
    27    24    25    1
    28    26    27    1
    29    26    13    1
    30    28    39    1
    31    29    33    1
    32    29    30    1
    33    30     1    1
    34    31    37    1
    35    32    33    3
    36    34    38    1
    37    34    29    1
    38    35    37    2
    39    35    30    1
    40    36    31    2
    41    38    35    1
    42    39    36    1
    43    39    38    2
