@<TRIPOS>MOLECULE
outputs/IAG933/test6/raw/output_6261_IAG933_linker_design_.xyz
 46 50 0 0 0
SMALL
GASTEIGER

@<TRIPOS>ATOM
      1 C         -24.8550   -1.0120   30.1430 C.3     1  UNL1        0.0694
      2 C         -24.9730   -2.5050   29.7880 C.2     1  UNL1       -0.0185
      3 C         -23.9060   -3.1730   29.1460 C.2     1  UNL1       -0.0041
      4 C         -23.9890   -4.5490   28.8530 C.2     1  UNL1       -0.0003
      5 C         -25.1370   -5.2800   29.2050 C.2     1  UNL1       -0.0000
      6 C         -26.2320   -4.6110   29.7840 C.2     1  UNL1       -0.0003
      7 C         -26.1550   -3.2320   30.0650 C.2     1  UNL1       -0.0041
      8 C         -25.3870   -0.6790   31.5710 C.3     1  UNL1        0.0795
      9 C         -25.1890    0.7730   32.0280 C.3     1  UNL1        0.0193
     10 C         -25.3360    0.6840   33.5440 C.3     1  UNL1        0.0202
     11 C         -24.8290   -0.7150   33.9050 C.3     1  UNL1        0.0887
     12 N         -24.7580   -1.4810   32.6460 N.3     1  UNL1       -0.2190
     13 C         -25.6880    1.6140   26.4610 C.2     1  UNL1        0.0362
     14 C         -26.2500    2.9200   26.3950 C.2     1  UNL1        0.0763
     15 C         -25.6420    4.0930   27.1230 C.2     1  UNL1        0.2664
     16 N         -25.6140    5.2520   26.4490 N.am    1  UNL1       -0.1997
     17 C         -25.0260    6.4790   26.9630 C.3     1  UNL1        0.1388
     18 O         -25.1430    3.9660   28.2430 O.2     1  UNL1       -0.2683
     19 C         -27.4380    3.0910   25.6450 C.2     1  UNL1        0.1067
     20 N         -28.0750    2.0890   25.0030 N.2     1  UNL1       -0.2081
     21 C         -27.5430    0.8490   25.0790 C.2     1  UNL1        0.2533
     22 O         -28.1930   -0.2080   24.4770 O.2     1  UNL1       -0.4558
     23 C         -29.4600    0.0050   23.8660 C.3     1  UNL1        0.2426
     24 C         -30.0650   -1.3770   23.5730 C.3     1  UNL1        0.2292
     25 O         -30.7290   -1.8780   24.7210 O.3     1  UNL1       -0.2162
     26 C         -26.3540    0.5760   25.7770 C.2     1  UNL1        0.1928
     27 F         -25.8600   -0.6810   25.7950 F       1  UNL1       -0.1992
     28 C         -24.3000    0.5938   28.3039 C.2     1  UNL1       -0.0157
     29 C         -22.9345    0.7605   28.6638 C.3     1  UNL1        0.0626
     30 C         -29.2240    0.5184   29.4197 C.3     1  UNL1        0.0321
     31 C         -28.1197    2.8418   29.9639 C.3     1  UNL1        0.0002
     32 C         -22.2870    1.5027   27.5781 C.3     1  UNL1        0.2015
     33 C         -26.5752    5.4964   30.6217 C.3     1  UNL1        0.0329
     34 C         -29.4009    1.8787   30.0977 C.3     1  UNL1        0.0026
     35 C         -27.9717    0.3844   28.5834 C.3     1  UNL1        0.1425
     36 C         -27.8069    3.4297   31.2181 C.3     1  UNL1        0.0001
     37 C         -26.2778    5.5607   33.1676 C.3     1  UNL1        0.0355
     38 F         -22.9194    1.9897   25.2516 F       1  UNL1       -0.2295
     39 C         -24.4503    1.3089   27.0876 C.2     1  UNL1        0.0096
     40 C         -25.5401    5.5584   31.8103 C.3     1  UNL1        0.1521
     41 F         -21.0637    2.1494   27.4107 F       1  UNL1       -0.2336
     42 C         -23.2350    1.6495   26.5413 C.3     1  UNL1        0.2154
     43 O         -24.5469    4.4578   31.8683 O.3     1  UNL1       -0.2231
     44 O         -26.8319    0.2154   29.4556 O.3     1  UNL1       -0.3518
     45 C         -25.4951   -0.2384   28.9901 C.3     1  UNL1        0.1387
     46 C         -26.9436    3.9548   30.2100 C.3     1  UNL1        0.0025
@<TRIPOS>BOND
     1     1    45    1
     2     2     7    1
     3     2     1    1
     4     3     2    2
     5     4     3    1
     6     4     5    2
     7     5     6    1
     8     6     7    2
     9     8     1    1
    10     8     9    1
    11     8    12    1
    12     9    10    1
    13    10    11    1
    14    12    11    1
    15    13    39    1
    16    14    13    1
    17    14    15    1
    18    15    18    2
    19    16    17    1
    20    16    15    1
    21    19    14    2
    22    20    21    2
    23    20    19    1
    24    21    26    1
    25    22    21    1
    26    23    22    1
    27    24    23    1
    28    24    25    1
    29    26    27    1
    30    26    13    2
    31    28    29    1
    32    28    45    1
    33    30    34    1
    34    31    34    1
    35    31    46    1
    36    31    36    1
    37    32    41    1
    38    32    29    1
    39    33    40    1
    40    35    30    1
    41    35    44    1
    42    39    28    2
    43    40    43    1
    44    40    37    1
    45    42    38    1
    46    42    39    1
    47    42    32    1
    48    45    44    1
    49    46    33    1
    50    46    36    1
