@<TRIPOS>MOLECULE
outputs/IAG933/test6/raw/output_6262_IAG933_linker_design_.xyz
 39 42 0 0 0
SMALL
GASTEIGER

@<TRIPOS>ATOM
      1 C         -24.8550   -1.0120   30.1430 C.3     1  UNL1        0.1222
      2 C         -24.9730   -2.5050   29.7880 C.2     1  UNL1       -0.0042
      3 C         -23.9060   -3.1730   29.1460 C.2     1  UNL1       -0.0029
      4 C         -23.9890   -4.5490   28.8530 C.2     1  UNL1       -0.0003
      5 C         -25.1370   -5.2800   29.2050 C.2     1  UNL1       -0.0000
      6 C         -26.2320   -4.6110   29.7840 C.2     1  UNL1       -0.0003
      7 C         -26.1550   -3.2320   30.0650 C.2     1  UNL1       -0.0029
      8 C         -25.3870   -0.6790   31.5710 C.3     1  UNL1        0.0938
      9 C         -25.1890    0.7730   32.0280 C.3     1  UNL1        0.0207
     10 C         -25.3360    0.6840   33.5440 C.3     1  UNL1        0.0203
     11 C         -24.8290   -0.7150   33.9050 C.3     1  UNL1        0.0888
     12 N         -24.7580   -1.4810   32.6460 N.3     1  UNL1       -0.2177
     13 C         -25.6880    1.6140   26.4610 C.3     1  UNL1        0.0718
     14 C         -26.2500    2.9200   26.3950 C.2     1  UNL1        0.0548
     15 C         -25.6420    4.0930   27.1230 C.2     1  UNL1        0.2624
     16 N         -25.6140    5.2520   26.4490 N.am    1  UNL1       -0.2000
     17 C         -25.0260    6.4790   26.9630 C.3     1  UNL1        0.1388
     18 O         -25.1430    3.9660   28.2430 O.2     1  UNL1       -0.2687
     19 C         -27.4380    3.0910   25.6450 C.2     1  UNL1        0.1021
     20 N         -28.0750    2.0890   25.0030 N.2     1  UNL1       -0.2119
     21 C         -27.5430    0.8490   25.0790 C.2     1  UNL1        0.2341
     22 O         -28.1930   -0.2080   24.4770 O.2     1  UNL1       -0.4585
     23 C         -29.4600    0.0050   23.8660 C.3     1  UNL1        0.2423
     24 C         -30.0650   -1.3770   23.5730 C.3     1  UNL1        0.2292
     25 O         -30.7290   -1.8780   24.7210 O.3     1  UNL1       -0.2162
     26 C         -26.3540    0.5760   25.7770 C.3     1  UNL1        0.2400
     27 F         -25.8600   -0.6810   25.7950 F       1  UNL1       -0.2269
     28 C         -25.1350    1.2822   28.8156 C.3     1  UNL1        0.1019
     29 N         -21.2944    2.0424   27.0353 N.3     1  UNL1       -0.1135
     30 N         -25.4888   -0.1899   29.0402 N.3     1  UNL1       -0.1617
     31 F         -22.5231   -0.2945   29.3057 F       1  UNL1       -0.2162
     32 C         -23.3683    1.2142   27.5242 C.3     1  UNL1        0.0860
     33 C         -27.4026    1.2264   29.3237 C.3     1  UNL1        0.2007
     34 CL        -23.0359    2.5893   25.0155 Cl      1  UNL1       -0.0939
     35 O         -26.9198   -0.0821   28.9653 O.3     1  UNL1       -0.2792
     36 C         -22.5967    1.9705   26.6082 C.3     1  UNL1        0.1747
     37 C         -24.7205    1.3479   27.5250 C.3     1  UNL1        0.0326
     38 N         -21.1787    1.1376   28.0788 N.3     1  UNL1       -0.0956
     39 C         -22.3749    0.6106   28.3572 C.3     1  UNL1        0.2533
@<TRIPOS>BOND
     1     1    30    1
     2     2     7    1
     3     2     1    1
     4     3     2    2
     5     4     3    1
     6     4     5    2
     7     5     6    1
     8     6     7    2
     9     8     1    1
    10     8     9    1
    11     8    12    1
    12     9    10    1
    13    10    11    1
    14    12    11    1
    15    13    37    1
    16    14    13    1
    17    14    15    1
    18    15    18    2
    19    16    17    1
    20    16    15    1
    21    19    14    2
    22    20    21    2
    23    20    19    1
    24    21    26    1
    25    22    21    1
    26    23    22    1
    27    24    23    1
    28    24    25    1
    29    26    27    1
    30    26    13    1
    31    28    30    1
    32    29    38    1
    33    32    37    1
    34    32    39    1
    35    35    30    1
    36    35    33    1
    37    36    34    1
    38    36    29    1
    39    36    32    1
    40    37    28    1
    41    38    39    1
    42    39    31    1
