@<TRIPOS>MOLECULE
outputs/IAG933/test6/raw/output_6263_IAG933_linker_design_.xyz
 46 50 0 0 0
SMALL
GASTEIGER

@<TRIPOS>ATOM
      1 C         -24.8550   -1.0120   30.1430 C.3     1  UNL1        0.0632
      2 C         -24.9730   -2.5050   29.7880 C.2     1  UNL1       -0.0170
      3 C         -23.9060   -3.1730   29.1460 C.2     1  UNL1       -0.0039
      4 C         -23.9890   -4.5490   28.8530 C.2     1  UNL1       -0.0003
      5 C         -25.1370   -5.2800   29.2050 C.2     1  UNL1       -0.0000
      6 C         -26.2320   -4.6110   29.7840 C.2     1  UNL1       -0.0003
      7 C         -26.1550   -3.2320   30.0650 C.2     1  UNL1       -0.0039
      8 C         -25.3870   -0.6790   31.5710 C.3     1  UNL1        0.0809
      9 C         -25.1890    0.7730   32.0280 C.3     1  UNL1        0.0195
     10 C         -25.3360    0.6840   33.5440 C.3     1  UNL1        0.0203
     11 C         -24.8290   -0.7150   33.9050 C.3     1  UNL1        0.0887
     12 N         -24.7580   -1.4810   32.6460 N.3     1  UNL1       -0.2188
     13 C         -25.6880    1.6140   26.4610 C.2     1  UNL1        0.0401
     14 C         -26.2500    2.9200   26.3950 C.2     1  UNL1        0.0766
     15 C         -25.6420    4.0930   27.1230 C.2     1  UNL1        0.2664
     16 N         -25.6140    5.2520   26.4490 N.am    1  UNL1       -0.1997
     17 C         -25.0260    6.4790   26.9630 C.3     1  UNL1        0.1388
     18 O         -25.1430    3.9660   28.2430 O.2     1  UNL1       -0.2683
     19 C         -27.4380    3.0910   25.6450 C.2     1  UNL1        0.1067
     20 N         -28.0750    2.0890   25.0030 N.2     1  UNL1       -0.2081
     21 C         -27.5430    0.8490   25.0790 C.2     1  UNL1        0.2533
     22 O         -28.1930   -0.2080   24.4770 O.2     1  UNL1       -0.4558
     23 C         -29.4600    0.0050   23.8660 C.3     1  UNL1        0.2426
     24 C         -30.0650   -1.3770   23.5730 C.3     1  UNL1        0.2292
     25 O         -30.7290   -1.8780   24.7210 O.3     1  UNL1       -0.2162
     26 C         -26.3540    0.5760   25.7770 C.2     1  UNL1        0.1931
     27 F         -25.8600   -0.6810   25.7950 F       1  UNL1       -0.1992
     28 F         -21.0429    1.0216   27.8162 F       1  UNL1       -0.2020
     29 C         -28.6352    2.5541   31.8779 C.3     1  UNL1        0.0413
     30 C         -28.1208    4.0073   31.8046 C.3     1  UNL1        0.1427
     31 C         -27.7660    4.1512   29.6978 C.3     1  UNL1        0.1427
     32 C         -22.9264    0.2441   29.0177 C.ar    1  UNL1        0.1147
     33 C         -29.0819    3.3807   29.5235 C.3     1  UNL1        0.0413
     34 N         -26.4922    1.5754   29.4568 N.am    1  UNL1       -0.1795
     35 O         -27.0715    3.9206   30.9262 O.3     1  UNL1       -0.3538
     36 C         -28.0151    1.1562   29.6584 C.2     1  UNL1        0.2452
     37 N         -22.4246    2.2549   24.9187 N.1     1  UNL1       -0.1908
     38 C         -24.6787    1.4487   27.2968 C.ar    1  UNL1        0.0295
     39 N         -22.0785   -0.3075   30.0429 N.pl3   1  UNL1       -0.1260
     40 C         -25.2567    1.0129   28.6326 C.ar    1  UNL1        0.0718
     41 O         -28.4581    0.1740   29.1226 O.2     1  UNL1       -0.2730
     42 C         -22.8859    1.8750   25.8799 C.1     1  UNL1        0.1028
     43 C         -29.0256    2.1021   30.4025 C.3     1  UNL1        0.0835
     44 C         -23.3198    1.4206   26.9962 C.ar    1  UNL1        0.0984
     45 C         -22.3952    0.9054   27.9448 C.ar    1  UNL1        0.1660
     46 C         -24.3354    0.0985   29.2926 C.ar    1  UNL1        0.0173
@<TRIPOS>BOND
     1     1    46    1
     2     2     7    1
     3     2     1    1
     4     3     2    2
     5     4     3    1
     6     4     5    2
     7     5     6    1
     8     6     7    2
     9     8     1    1
    10     8     9    1
    11     8    12    1
    12     9    10    1
    13    10    11    1
    14    12    11    1
    15    13    38    1
    16    14    13    1
    17    14    15    1
    18    15    18    2
    19    16    17    1
    20    16    15    1
    21    19    14    2
    22    20    21    2
    23    20    19    1
    24    21    26    1
    25    22    21    1
    26    23    22    1
    27    24    23    1
    28    24    25    1
    29    26    27    1
    30    26    13    2
    31    28    45    1
    32    30    29    1
    33    31    35    1
    34    32    46   ar
    35    32    39    1
    36    33    31    1
    37    33    43    1
    38    34    36    1
    39    35    30    1
    40    36    43    1
    41    37    42    3
    42    38    40   ar
    43    40    46   ar
    44    40    34    1
    45    41    36    2
    46    42    44    1
    47    43    29    1
    48    44    38   ar
    49    44    45   ar
    50    45    32   ar
