@<TRIPOS>MOLECULE
outputs/IAG933/test6/raw/output_6266_IAG933_linker_design_.xyz
 48 54 0 0 0
SMALL
GASTEIGER

@<TRIPOS>ATOM
      1 C         -24.8550   -1.0120   30.1430 C.3     1  UNL1        0.0813
      2 C         -24.9730   -2.5050   29.7880 C.2     1  UNL1       -0.0174
      3 C         -23.9060   -3.1730   29.1460 C.2     1  UNL1       -0.0041
      4 C         -23.9890   -4.5490   28.8530 C.2     1  UNL1       -0.0003
      5 C         -25.1370   -5.2800   29.2050 C.2     1  UNL1       -0.0000
      6 C         -26.2320   -4.6110   29.7840 C.2     1  UNL1       -0.0003
      7 C         -26.1550   -3.2320   30.0650 C.2     1  UNL1       -0.0041
      8 C         -25.3870   -0.6790   31.5710 C.3     1  UNL1        0.0806
      9 C         -25.1890    0.7730   32.0280 C.3     1  UNL1        0.0193
     10 C         -25.3360    0.6840   33.5440 C.3     1  UNL1        0.0202
     11 C         -24.8290   -0.7150   33.9050 C.3     1  UNL1        0.0887
     12 N         -24.7580   -1.4810   32.6460 N.3     1  UNL1       -0.2190
     13 C         -25.6880    1.6140   26.4610 C.2     1  UNL1        0.0303
     14 C         -26.2500    2.9200   26.3950 C.2     1  UNL1        0.0738
     15 C         -25.6420    4.0930   27.1230 C.2     1  UNL1        0.2662
     16 N         -25.6140    5.2520   26.4490 N.am    1  UNL1       -0.1997
     17 C         -25.0260    6.4790   26.9630 C.3     1  UNL1        0.1388
     18 O         -25.1430    3.9660   28.2430 O.2     1  UNL1       -0.2683
     19 C         -27.4380    3.0910   25.6450 C.2     1  UNL1        0.1065
     20 N         -28.0750    2.0890   25.0030 N.2     1  UNL1       -0.2081
     21 C         -27.5430    0.8490   25.0790 C.2     1  UNL1        0.2530
     22 O         -28.1930   -0.2080   24.4770 O.2     1  UNL1       -0.4558
     23 C         -29.4600    0.0050   23.8660 C.3     1  UNL1        0.2426
     24 C         -30.0650   -1.3770   23.5730 C.3     1  UNL1        0.2292
     25 O         -30.7290   -1.8780   24.7210 O.3     1  UNL1       -0.2162
     26 C         -26.3540    0.5760   25.7770 C.2     1  UNL1        0.1904
     27 F         -25.8600   -0.6810   25.7950 F       1  UNL1       -0.1995
     28 C         -28.2365    0.6961   29.1614 C.3     1  UNL1        0.1637
     29 N         -30.3438   -3.0057   31.2989 N.2     1  UNL1       -0.2344
     30 N         -24.3914    0.7025   28.4604 N.3     1  UNL1       -0.2481
     31 C         -23.2271    1.8946   26.7864 C.3     1  UNL1        0.0220
     32 O         -29.9412   -0.6265   28.4663 O.3     1  UNL1       -0.3307
     33 C         -29.2766    0.8502   30.5102 C.3     1  UNL1        0.1238
     34 C         -30.2725   -1.0094   29.8102 C.3     1  UNL1        0.2553
     35 O         -28.7634   -3.1603   29.7442 O.2     1  UNL1       -0.4587
     36 C         -29.0528   -4.4799   30.1813 C.3     1  UNL1        0.2332
     37 C         -29.3778    0.4100   31.3274 C.3     1  UNL1        0.1704
     38 C         -20.8127    1.4170   27.4501 C.3     1  UNL1        0.0015
     39 C         -29.6638   -2.2970   30.2143 C.2     1  UNL1        0.2407
     40 C         -28.9256    0.2308   28.2453 C.3     1  UNL1        0.1751
     41 C         -25.5348   -0.1144   28.9584 C.3     1  UNL1        0.1817
     42 C         -29.6597   -4.3070   31.5627 C.3     1  UNL1        0.1757
     43 C         -24.5291    1.3187   27.3350 C.3     1  UNL1        0.0846
     44 C         -22.2964    1.4754   27.8524 C.3     1  UNL1        0.0177
     45 N         -29.5757    0.7674   32.8407 N.3     1  UNL1       -0.1134
     46 O         -26.7149    0.8392   29.0611 O.3     1  UNL1       -0.3389
     47 C         -22.9792    0.3615   28.6023 C.3     1  UNL1        0.0745
     48 N         -29.9679    0.3189   30.7526 N.3     1  UNL1       -0.2239
@<TRIPOS>BOND
     1     1    41    1
     2     2     7    1
     3     2     1    1
     4     3     2    2
     5     4     3    1
     6     4     5    2
     7     5     6    1
     8     6     7    2
     9     8     1    1
    10     8     9    1
    11     8    12    1
    12     9    10    1
    13    10    11    1
    14    12    11    1
    15    13    43    1
    16    14    13    1
    17    14    15    1
    18    15    18    2
    19    16    17    1
    20    16    15    1
    21    19    14    2
    22    20    21    2
    23    20    19    1
    24    21    26    1
    25    22    21    1
    26    23    22    1
    27    24    23    1
    28    24    25    1
    29    26    27    1
    30    26    13    2
    31    28    46    1
    32    28    33    1
    33    29    42    1
    34    30    47    1
    35    30    41    1
    36    31    43    1
    37    31    44    1
    38    32    34    1
    39    33    48    1
    40    33    37    1
    41    34    39    1
    42    34    48    1
    43    35    36    1
    44    35    39    1
    45    36    42    1
    46    37    45    1
    47    38    44    1
    48    39    29    2
    49    40    32    1
    50    40    28    1
    51    41    46    1
    52    43    30    1
    53    44    47    1
    54    48    37    1
