@<TRIPOS>MOLECULE
outputs/IAG933/test6/raw/output_627_IAG933_linker_design_.xyz
 45 48 0 0 0
SMALL
GASTEIGER

@<TRIPOS>ATOM
      1 C         -24.8550   -1.0120   30.1430 C.3     1  UNL1        0.0511
      2 C         -24.9730   -2.5050   29.7880 C.2     1  UNL1       -0.0204
      3 C         -23.9060   -3.1730   29.1460 C.2     1  UNL1       -0.0042
      4 C         -23.9890   -4.5490   28.8530 C.2     1  UNL1       -0.0003
      5 C         -25.1370   -5.2800   29.2050 C.2     1  UNL1       -0.0000
      6 C         -26.2320   -4.6110   29.7840 C.2     1  UNL1       -0.0003
      7 C         -26.1550   -3.2320   30.0650 C.2     1  UNL1       -0.0042
      8 C         -25.3870   -0.6790   31.5710 C.3     1  UNL1        0.0776
      9 C         -25.1890    0.7730   32.0280 C.3     1  UNL1        0.0192
     10 C         -25.3360    0.6840   33.5440 C.3     1  UNL1        0.0202
     11 C         -24.8290   -0.7150   33.9050 C.3     1  UNL1        0.0887
     12 N         -24.7580   -1.4810   32.6460 N.3     1  UNL1       -0.2191
     13 C         -25.6880    1.6140   26.4610 C.2     1  UNL1        0.0378
     14 C         -26.2500    2.9200   26.3950 C.2     1  UNL1        0.0765
     15 C         -25.6420    4.0930   27.1230 C.2     1  UNL1        0.2664
     16 N         -25.6140    5.2520   26.4490 N.am    1  UNL1       -0.1997
     17 C         -25.0260    6.4790   26.9630 C.3     1  UNL1        0.1388
     18 O         -25.1430    3.9660   28.2430 O.2     1  UNL1       -0.2683
     19 C         -27.4380    3.0910   25.6450 C.2     1  UNL1        0.1067
     20 N         -28.0750    2.0890   25.0030 N.2     1  UNL1       -0.2081
     21 C         -27.5430    0.8490   25.0790 C.2     1  UNL1        0.2533
     22 O         -28.1930   -0.2080   24.4770 O.2     1  UNL1       -0.4558
     23 C         -29.4600    0.0050   23.8660 C.3     1  UNL1        0.2426
     24 C         -30.0650   -1.3770   23.5730 C.3     1  UNL1        0.2292
     25 O         -30.7290   -1.8780   24.7210 O.3     1  UNL1       -0.2162
     26 C         -26.3540    0.5760   25.7770 C.2     1  UNL1        0.1930
     27 F         -25.8600   -0.6810   25.7950 F       1  UNL1       -0.1992
     28 C         -30.1999   -2.0648   30.8681 C.3     1  UNL1        0.2138
     29 O         -26.9405    1.5860   29.1557 O.2     1  UNL1       -0.2730
     30 C         -31.3815   -3.7932   30.1440 C.2     1  UNL1        0.5519
     31 O         -31.5434   -2.5933   30.7423 O.3     1  UNL1       -0.4157
     32 C         -30.0827   -0.8918   29.7843 C.3     1  UNL1        0.0656
     33 C         -25.2606   -0.0553   29.0386 C.3     1  UNL1        0.1057
     34 O         -30.8219   -4.0023   29.0536 O.co2   1  UNL1       -0.1999
     35 C         -29.8373   -0.5936   28.1707 C.3     1  UNL1        0.0057
     36 N         -27.6344   -0.6007   29.6564 N.am    1  UNL1       -0.2050
     37 C         -21.8860    0.8739   27.7336 C.2     1  UNL1       -0.0003
     38 C         -24.4338    1.2179   26.8358 C.2     1  UNL1       -0.0010
     39 C         -24.2191    0.5048   28.0593 C.2     1  UNL1       -0.0134
     40 C         -22.1046    1.4892   26.5022 C.2     1  UNL1       -0.0000
     41 C         -28.8511   -0.3129   30.4217 C.3     1  UNL1        0.1188
     42 C         -23.3713    1.6065   26.0086 C.2     1  UNL1       -0.0002
     43 O         -31.8209   -4.7664   30.8656 O.co2   1  UNL1       -0.1999
     44 C         -22.9211    0.3734   28.5040 C.2     1  UNL1       -0.0038
     45 C         -26.7205    0.4247   29.3175 C.2     1  UNL1        0.2454
@<TRIPOS>BOND
     1     1    33    1
     2     2     7    1
     3     2     1    1
     4     3     2    2
     5     4     3    1
     6     4     5    2
     7     5     6    1
     8     6     7    2
     9     8     1    1
    10     8     9    1
    11     8    12    1
    12     9    10    1
    13    10    11    1
    14    12    11    1
    15    13    38    1
    16    14    13    1
    17    14    15    1
    18    15    18    2
    19    16    17    1
    20    16    15    1
    21    19    14    2
    22    20    21    2
    23    20    19    1
    24    21    26    1
    25    22    21    1
    26    23    22    1
    27    24    23    1
    28    24    25    1
    29    26    27    1
    30    26    13    2
    31    29    45    2
    32    30    31    1
    33    30    43   ar
    34    31    28    1
    35    32    35    1
    36    32    41    1
    37    32    28    1
    38    33    45    1
    39    34    30   ar
    40    36    41    1
    41    37    44    1
    42    38    39    1
    43    39    44    2
    44    39    33    1
    45    40    37    2
    46    42    40    1
    47    42    38    2
    48    45    36    1
