@<TRIPOS>MOLECULE
outputs/IAG933/test6/raw/output_6274_IAG933_linker_design_.xyz
 42 45 0 0 0
SMALL
GASTEIGER

@<TRIPOS>ATOM
      1 C         -24.8550   -1.0120   30.1430 C.3     1  UNL1        0.0609
      2 C         -24.9730   -2.5050   29.7880 C.2     1  UNL1       -0.0194
      3 C         -23.9060   -3.1730   29.1460 C.2     1  UNL1       -0.0042
      4 C         -23.9890   -4.5490   28.8530 C.2     1  UNL1       -0.0003
      5 C         -25.1370   -5.2800   29.2050 C.2     1  UNL1       -0.0000
      6 C         -26.2320   -4.6110   29.7840 C.2     1  UNL1       -0.0003
      7 C         -26.1550   -3.2320   30.0650 C.2     1  UNL1       -0.0042
      8 C         -25.3870   -0.6790   31.5710 C.3     1  UNL1        0.0786
      9 C         -25.1890    0.7730   32.0280 C.3     1  UNL1        0.0192
     10 C         -25.3360    0.6840   33.5440 C.3     1  UNL1        0.0202
     11 C         -24.8290   -0.7150   33.9050 C.3     1  UNL1        0.0887
     12 N         -24.7580   -1.4810   32.6460 N.3     1  UNL1       -0.2191
     13 C         -25.6880    1.6140   26.4610 C.2     1  UNL1        0.0222
     14 C         -26.2500    2.9200   26.3950 C.2     1  UNL1        0.0730
     15 C         -25.6420    4.0930   27.1230 C.2     1  UNL1        0.2661
     16 N         -25.6140    5.2520   26.4490 N.am    1  UNL1       -0.1997
     17 C         -25.0260    6.4790   26.9630 C.3     1  UNL1        0.1388
     18 O         -25.1430    3.9660   28.2430 O.2     1  UNL1       -0.2683
     19 C         -27.4380    3.0910   25.6450 C.2     1  UNL1        0.1064
     20 N         -28.0750    2.0890   25.0030 N.2     1  UNL1       -0.2081
     21 C         -27.5430    0.8490   25.0790 C.2     1  UNL1        0.2530
     22 O         -28.1930   -0.2080   24.4770 O.2     1  UNL1       -0.4558
     23 C         -29.4600    0.0050   23.8660 C.3     1  UNL1        0.2426
     24 C         -30.0650   -1.3770   23.5730 C.3     1  UNL1        0.2292
     25 O         -30.7290   -1.8780   24.7210 O.3     1  UNL1       -0.2162
     26 C         -26.3540    0.5760   25.7770 C.2     1  UNL1        0.1895
     27 F         -25.8600   -0.6810   25.7950 F       1  UNL1       -0.1996
     28 C         -24.2415    0.8971   28.7418 C.3     1  UNL1        0.1568
     29 C         -24.4426    1.2997   27.3276 C.3     1  UNL1        0.0800
     30 O         -28.5907    0.7064   29.8323 O.co2   1  UNL1       -0.2207
     31 C         -22.8623    0.4428   28.9624 C.3     1  UNL1        0.0589
     32 O         -27.9299   -1.1392   28.8783 O.co2   1  UNL1       -0.2207
     33 O         -22.8010    3.1386   24.8701 O.3     1  UNL1        0.0284
     34 C         -21.2984    1.8177   27.7063 C.2     1  UNL1        0.0362
     35 O         -24.3359    2.0221   29.5872 O.3     1  UNL1       -0.2229
     36 C         -21.6372    1.0569   28.7766 C.2     1  UNL1       -0.0203
     37 C         -27.7275    0.0502   29.2558 C.2     1  UNL1        0.4630
     38 O         -21.7371    2.2102   25.3674 O.2     1  UNL1       -0.3033
     39 N         -26.5438    0.6551   29.0684 N.am    1  UNL1       -0.1646
     40 C         -25.3334   -0.2113   29.0125 C.3     1  UNL1        0.1329
     41 C         -23.3088    1.5451   26.6520 C.2     1  UNL1        0.0215
     42 C         -22.1776    1.7618   26.6279 C.2     1  UNL1        0.1817
@<TRIPOS>BOND
     1     1    40    1
     2     2     7    1
     3     2     1    1
     4     3     2    2
     5     4     3    1
     6     4     5    2
     7     5     6    1
     8     6     7    2
     9     8     1    1
    10     8     9    1
    11     8    12    1
    12     9    10    1
    13    10    11    1
    14    12    11    1
    15    14    13    1
    16    14    15    1
    17    15    18    2
    18    16    17    1
    19    16    15    1
    20    19    14    2
    21    20    21    2
    22    20    19    1
    23    21    26    1
    24    22    21    1
    25    23    22    1
    26    24    23    1
    27    24    25    1
    28    26    27    1
    29    26    13    2
    30    28    31    1
    31    28    40    1
    32    28    35    1
    33    29    13    1
    34    29    28    1
    35    32    37   ar
    36    33    38    1
    37    34    36    2
    38    36    31    1
    39    37    30   ar
    40    38    42    1
    41    39    37    1
    42    40    39    1
    43    41    29    1
    44    42    41    2
    45    42    34    1
