@<TRIPOS>MOLECULE
No_628-gen_results/8p0m/2024-11-27-11-27-31/
 19 21 0 0 0
SMALL
GASTEIGER

@<TRIPOS>ATOM
      1 C         -28.0162   -0.8135   28.8779 C.ar    1  UNL1       -0.0036
      2 C         -27.0636   -0.1190   28.6079 C.ar    1  UNL1       -0.0143
      3 C         -25.7923   -0.4302   29.0761 C.ar    1  UNL1       -0.0036
      4 C         -25.5756   -1.5654   29.9363 C.ar    1  UNL1       -0.0003
      5 C         -26.7354   -2.3004   30.2173 C.ar    1  UNL1       -0.0000
      6 C         -27.9184   -1.9537   29.7629 C.ar    1  UNL1       -0.0003
      7 C         -27.1057    1.1023   27.7593 C.3     1  UNL1        0.0667
      8 C         -26.7157    2.2350   27.9945 C.ar    1  UNL1       -0.0143
      9 C         -26.0688    2.4770   29.3567 C.ar    1  UNL1       -0.0036
     10 C         -25.4405    3.7637   29.5605 C.ar    1  UNL1       -0.0003
     11 C         -25.5223    4.7219   28.6224 C.ar    1  UNL1       -0.0000
     12 C         -26.0122    4.4992   27.3532 C.ar    1  UNL1       -0.0003
     13 C         -26.5923    3.2654   27.0520 C.ar    1  UNL1       -0.0036
     14 C         -27.7989    0.8276   26.4673 C.ar    1  UNL1       -0.0143
     15 C         -27.1118    0.5846   25.3856 C.ar    1  UNL1       -0.0036
     16 C         -29.1042    1.3359   26.3413 C.ar    1  UNL1       -0.0036
     17 C         -29.8201    1.0543   25.2457 C.ar    1  UNL1       -0.0003
     18 C         -27.7823    0.2757   24.1891 C.ar    1  UNL1       -0.0003
     19 C         -29.1284    0.5786   24.0923 C.ar    1  UNL1       -0.0000
@<TRIPOS>BOND
     1     2     7    1
     2     7    14    1
     3     7     8    1
     4     1     2   ar
     5     2     3   ar
     6     3     4   ar
     7     4     5   ar
     8     5     6   ar
     9     6     1   ar
    10    14    15   ar
    11    15    18   ar
    12    18    19   ar
    13    19    17   ar
    14    17    16   ar
    15    16    14   ar
    16     8     9   ar
    17     9    10   ar
    18    10    11   ar
    19    11    12   ar
    20    12    13   ar
    21    13     8   ar
