@<TRIPOS>MOLECULE
outputs/IAG933/test6/raw/output_6288_IAG933_linker_design_.xyz
 45 49 0 0 0
SMALL
GASTEIGER

@<TRIPOS>ATOM
      1 C         -24.8550   -1.0120   30.1430 C.3     1  UNL1        0.0438
      2 C         -24.9730   -2.5050   29.7880 C.2     1  UNL1       -0.0208
      3 C         -23.9060   -3.1730   29.1460 C.2     1  UNL1       -0.0042
      4 C         -23.9890   -4.5490   28.8530 C.2     1  UNL1       -0.0003
      5 C         -25.1370   -5.2800   29.2050 C.2     1  UNL1       -0.0000
      6 C         -26.2320   -4.6110   29.7840 C.2     1  UNL1       -0.0003
      7 C         -26.1550   -3.2320   30.0650 C.2     1  UNL1       -0.0042
      8 C         -25.3870   -0.6790   31.5710 C.3     1  UNL1        0.0799
      9 C         -25.1890    0.7730   32.0280 C.3     1  UNL1        0.0504
     10 C         -25.3360    0.6840   33.5440 C.3     1  UNL1        0.0230
     11 C         -24.8290   -0.7150   33.9050 C.3     1  UNL1        0.0888
     12 N         -24.7580   -1.4810   32.6460 N.3     1  UNL1       -0.2190
     13 C         -25.6880    1.6140   26.4610 C.2     1  UNL1        0.0318
     14 C         -26.2500    2.9200   26.3950 C.2     1  UNL1        0.0739
     15 C         -25.6420    4.0930   27.1230 C.2     1  UNL1        0.2662
     16 N         -25.6140    5.2520   26.4490 N.am    1  UNL1       -0.1997
     17 C         -25.0260    6.4790   26.9630 C.3     1  UNL1        0.1388
     18 O         -25.1430    3.9660   28.2430 O.2     1  UNL1       -0.2683
     19 C         -27.4380    3.0910   25.6450 C.2     1  UNL1        0.1065
     20 N         -28.0750    2.0890   25.0030 N.2     1  UNL1       -0.2081
     21 C         -27.5430    0.8490   25.0790 C.2     1  UNL1        0.2530
     22 O         -28.1930   -0.2080   24.4770 O.2     1  UNL1       -0.4558
     23 C         -29.4600    0.0050   23.8660 C.3     1  UNL1        0.2426
     24 C         -30.0650   -1.3770   23.5730 C.3     1  UNL1        0.2292
     25 O         -30.7290   -1.8780   24.7210 O.3     1  UNL1       -0.2162
     26 C         -26.3540    0.5760   25.7770 C.2     1  UNL1        0.1904
     27 F         -25.8600   -0.6810   25.7950 F       1  UNL1       -0.1995
     28 C         -27.2751    6.5820   34.3273 C.2     1  UNL1       -0.0003
     29 C         -25.6042    4.9783   33.6351 C.2     1  UNL1       -0.0048
     30 C         -22.8455    0.6633   28.4220 C.3     1  UNL1        0.1493
     31 C         -24.8236    2.0679   31.3510 C.3     1  UNL1        0.1467
     32 F         -21.3961    2.4715   27.8603 F       1  UNL1       -0.2051
     33 O         -21.0587    1.4360   26.9843 O.3     1  UNL1       -0.1883
     34 C         -24.5185    1.4434   26.9889 C.3     1  UNL1        0.1029
     35 N         -24.1924    0.4279   27.9154 N.3     1  UNL1       -0.2094
     36 C         -24.7376    4.5127   32.5181 C.3     1  UNL1        0.1165
     37 C         -22.2479    1.5134   27.5211 C.3     1  UNL1        0.2742
     38 C         -26.3205    5.1181   35.9742 C.2     1  UNL1       -0.0003
     39 C         -25.6093    4.4755   34.9583 C.2     1  UNL1       -0.0029
     40 C         -22.9795    1.1886   29.9262 C.3     1  UNL1        0.1129
     41 C         -27.1422    6.1736   35.6446 C.2     1  UNL1       -0.0000
     42 C         -26.5042    5.9886   33.3290 C.2     1  UNL1       -0.0029
     43 N         -24.0717    2.0964   30.2667 N.3     1  UNL1       -0.2005
     44 N         -25.3679    3.3342   31.8635 N.3     1  UNL1       -0.1974
     45 C         -23.3486    2.0957   26.5939 C.3     1  UNL1        0.0877
@<TRIPOS>BOND
     1     2     7    1
     2     2     1    1
     3     3     2    2
     4     4     3    1
     5     4     5    2
     6     5     6    1
     7     6     7    2
     8     8     1    1
     9     8     9    1
    10     8    12    1
    11     9    31    1
    12     9    10    1
    13    10    11    1
    14    12    11    1
    15    14    13    1
    16    14    15    1
    17    15    18    2
    18    16    17    1
    19    16    15    1
    20    19    14    2
    21    20    21    2
    22    20    19    1
    23    21    26    1
    24    22    21    1
    25    23    22    1
    26    24    23    1
    27    24    25    1
    28    26    27    1
    29    26    13    2
    30    28    41    1
    31    29    39    2
    32    30    40    1
    33    31    43    1
    34    31    44    1
    35    34    13    1
    36    34    35    1
    37    35    30    1
    38    36    29    1
    39    37    33    1
    40    37    32    1
    41    37    30    1
    42    39    38    1
    43    40    43    1
    44    41    38    2
    45    42    29    1
    46    42    28    2
    47    44    36    1
    48    45    34    1
    49    45    37    1
