@<TRIPOS>MOLECULE
No_629-gen_results/8p0m/2024-11-27-11-27-31/
 15 16 0 0 0
SMALL
GASTEIGER

@<TRIPOS>ATOM
      1 C         -28.0162   -0.8135   28.8779 C.3     1  UNL1        0.0310
      2 C         -27.0636   -0.1189   28.6079 C.ar    1  UNL1       -0.0218
      3 C         -25.7647   -0.3897   29.0360 C.ar    1  UNL1       -0.0043
      4 C         -24.5516    0.4058   28.7646 C.ar    1  UNL1       -0.0003
      5 C         -24.6957    1.4480   27.7988 C.ar    1  UNL1       -0.0000
      6 C         -25.9755    1.7250   27.3077 C.ar    1  UNL1       -0.0003
      7 C         -27.0718    1.0134   27.6535 C.ar    1  UNL1       -0.0043
      8 C         -28.6178   -0.4695   30.2207 C.3     1  UNL1        0.0310
      9 C         -28.3113    0.5057   30.7868 C.ar    1  UNL1       -0.0222
     10 C         -28.6123    1.0972   31.8145 C.ar    1  UNL1       -0.0043
     11 C         -28.1230    2.3657   32.4208 C.ar    1  UNL1       -0.0006
     12 C         -27.0659    2.9827   31.6595 C.ar    1  UNL1       -0.0043
     13 C         -26.5688    2.3305   30.5662 C.ar    1  UNL1       -0.0222
     14 C         -25.4316    3.0419   30.0172 C.3     1  UNL1        0.0310
     15 C         -27.1096    1.2427   30.2109 C.ar    1  UNL1       -0.0085
@<TRIPOS>BOND
     1     1     8    1
     2    13    14    1
     3     8     9    1
     4     1     2    1
     5     2     3   ar
     6     3     4   ar
     7     4     5   ar
     8     5     6   ar
     9     6     7   ar
    10     7     2   ar
    11     9    10   ar
    12    10    11   ar
    13    11    12   ar
    14    12    13   ar
    15    13    15   ar
    16    15     9   ar
