@<TRIPOS>MOLECULE
outputs/IAG933/test6/raw/output_6291_IAG933_linker_design_.xyz
 42 46 0 0 0
SMALL
GASTEIGER

@<TRIPOS>ATOM
      1 C         -24.8550   -1.0120   30.1430 C.3     1  UNL1        0.1250
      2 C         -24.9730   -2.5050   29.7880 C.2     1  UNL1       -0.0004
      3 C         -23.9060   -3.1730   29.1460 C.2     1  UNL1       -0.0024
      4 C         -23.9890   -4.5490   28.8530 C.2     1  UNL1       -0.0003
      5 C         -25.1370   -5.2800   29.2050 C.2     1  UNL1       -0.0000
      6 C         -26.2320   -4.6110   29.7840 C.2     1  UNL1       -0.0003
      7 C         -26.1550   -3.2320   30.0650 C.2     1  UNL1       -0.0024
      8 C         -25.3870   -0.6790   31.5710 C.3     1  UNL1        0.0977
      9 C         -25.1890    0.7730   32.0280 C.3     1  UNL1        0.0211
     10 C         -25.3360    0.6840   33.5440 C.3     1  UNL1        0.0203
     11 C         -24.8290   -0.7150   33.9050 C.3     1  UNL1        0.0888
     12 N         -24.7580   -1.4810   32.6460 N.3     1  UNL1       -0.2172
     13 C         -25.6880    1.6140   26.4610 C.3     1  UNL1        0.0952
     14 C         -26.2500    2.9200   26.3950 C.2     1  UNL1        0.0590
     15 C         -25.6420    4.0930   27.1230 C.2     1  UNL1        0.2628
     16 N         -25.6140    5.2520   26.4490 N.am    1  UNL1       -0.2000
     17 C         -25.0260    6.4790   26.9630 C.3     1  UNL1        0.1388
     18 O         -25.1430    3.9660   28.2430 O.2     1  UNL1       -0.2686
     19 C         -27.4380    3.0910   25.6450 C.2     1  UNL1        0.1025
     20 N         -28.0750    2.0890   25.0030 N.2     1  UNL1       -0.2118
     21 C         -27.5430    0.8490   25.0790 C.2     1  UNL1        0.2344
     22 O         -28.1930   -0.2080   24.4770 O.2     1  UNL1       -0.4585
     23 C         -29.4600    0.0050   23.8660 C.3     1  UNL1        0.2423
     24 C         -30.0650   -1.3770   23.5730 C.3     1  UNL1        0.2292
     25 O         -30.7290   -1.8780   24.7210 O.3     1  UNL1       -0.2162
     26 C         -26.3540    0.5760   25.7770 C.3     1  UNL1        0.2441
     27 F         -25.8600   -0.6810   25.7950 F       1  UNL1       -0.2265
     28 N         -27.3297    1.1276   28.9837 N.pl3   1  UNL1       -0.0832
     29 S         -28.7675    0.1651   28.8325 S.O2    1  UNL1        0.0763
     30 CL        -22.7073    2.3252   25.5014 Cl      1  UNL1       -0.0822
     31 C         -21.3517    1.2206   27.5681 C.2     1  UNL1        0.0115
     32 C         -22.2792    0.0046   29.4607 C.2     1  UNL1        0.0173
     33 C         -23.6855    1.0716   27.8065 C.ar    1  UNL1        0.0256
     34 C         -25.0755    1.0639   27.7312 C.ar    1  UNL1        0.0203
     35 C         -29.7758    1.1665   29.8848 C.3     1  UNL1        0.2017
     36 C         -21.2579    0.4841   28.7665 C.2     1  UNL1        0.0023
     37 O         -28.4015   -1.2681   29.1301 O.2     1  UNL1       -0.1528
     38 C         -25.9712    0.9215   28.7532 C.ar    1  UNL1        0.1494
     39 O         -29.6464    0.0956   27.6171 O.2     1  UNL1       -0.1528
     40 N         -24.6206   -0.0344   29.2822 N.ar    1  UNL1       -0.3104
     41 C         -23.4308    0.3818   28.9387 C.ar    1  UNL1        0.0617
     42 C         -22.5906    1.5267   27.0067 C.2     1  UNL1        0.0588
@<TRIPOS>BOND
     1     1     2    1
     2     2     7    1
     3     3     2    2
     4     4     3    1
     5     4     5    2
     6     5     6    1
     7     6     7    2
     8     8     1    1
     9     8     9    1
    10     8    12    1
    11     9    10    1
    12    10    11    1
    13    12    11    1
    14    13    34    1
    15    14    13    1
    16    14    15    1
    17    15    18    2
    18    16    17    1
    19    16    15    1
    20    19    14    2
    21    20    21    2
    22    20    19    1
    23    21    26    1
    24    22    21    1
    25    23    22    1
    26    24    23    1
    27    24    25    1
    28    26    27    1
    29    26    13    1
    30    29    28    1
    31    29    37    2
    32    29    35    1
    33    30    42    1
    34    31    36    1
    35    33    41   ar
    36    34    33   ar
    37    34    38   ar
    38    36    32    2
    39    38    28    1
    40    38    40   ar
    41    39    29    2
    42    40     1    1
    43    41    40   ar
    44    41    32    1
    45    42    31    2
    46    42    33    1
