@<TRIPOS>MOLECULE
outputs/IAG933/test6/raw/output_6292_IAG933_linker_design_.xyz
 45 49 0 0 0
SMALL
GASTEIGER

@<TRIPOS>ATOM
      1 C         -24.8550   -1.0120   30.1430 C.3     1  UNL1        0.0625
      2 C         -24.9730   -2.5050   29.7880 C.2     1  UNL1       -0.0191
      3 C         -23.9060   -3.1730   29.1460 C.2     1  UNL1       -0.0042
      4 C         -23.9890   -4.5490   28.8530 C.2     1  UNL1       -0.0003
      5 C         -25.1370   -5.2800   29.2050 C.2     1  UNL1       -0.0000
      6 C         -26.2320   -4.6110   29.7840 C.2     1  UNL1       -0.0003
      7 C         -26.1550   -3.2320   30.0650 C.2     1  UNL1       -0.0042
      8 C         -25.3870   -0.6790   31.5710 C.3     1  UNL1        0.0788
      9 C         -25.1890    0.7730   32.0280 C.3     1  UNL1        0.0193
     10 C         -25.3360    0.6840   33.5440 C.3     1  UNL1        0.0202
     11 C         -24.8290   -0.7150   33.9050 C.3     1  UNL1        0.0887
     12 N         -24.7580   -1.4810   32.6460 N.3     1  UNL1       -0.2191
     13 C         -25.6880    1.6140   26.4610 C.2     1  UNL1        0.0378
     14 C         -26.2500    2.9200   26.3950 C.2     1  UNL1        0.0765
     15 C         -25.6420    4.0930   27.1230 C.2     1  UNL1        0.2664
     16 N         -25.6140    5.2520   26.4490 N.am    1  UNL1       -0.1997
     17 C         -25.0260    6.4790   26.9630 C.3     1  UNL1        0.1388
     18 O         -25.1430    3.9660   28.2430 O.2     1  UNL1       -0.2683
     19 C         -27.4380    3.0910   25.6450 C.2     1  UNL1        0.1067
     20 N         -28.0750    2.0890   25.0030 N.2     1  UNL1       -0.2081
     21 C         -27.5430    0.8490   25.0790 C.2     1  UNL1        0.2533
     22 O         -28.1930   -0.2080   24.4770 O.2     1  UNL1       -0.4558
     23 C         -29.4600    0.0050   23.8660 C.3     1  UNL1        0.2426
     24 C         -30.0650   -1.3770   23.5730 C.3     1  UNL1        0.2292
     25 O         -30.7290   -1.8780   24.7210 O.3     1  UNL1       -0.2162
     26 C         -26.3540    0.5760   25.7770 C.2     1  UNL1        0.1930
     27 F         -25.8600   -0.6810   25.7950 F       1  UNL1       -0.1992
     28 C         -22.0646    1.8125   26.9529 C.2     1  UNL1       -0.0000
     29 C         -24.2616    0.7720   28.3798 C.2     1  UNL1       -0.0021
     30 C         -29.2451   -0.4384   29.2741 C.3     1  UNL1        0.0784
     31 C         -24.4106    1.3840   27.1592 C.2     1  UNL1        0.0002
     32 C         -21.9046    1.2574   28.2270 C.2     1  UNL1       -0.0003
     33 C         -31.2879   -1.8244   28.1457 C.3     1  UNL1        0.0300
     34 C         -30.3012   -2.3797   30.5389 C.3     1  UNL1        0.0300
     35 C         -32.6566   -4.1086   28.1865 C.3     1  UNL1        0.1740
     36 C         -27.8775    0.2765   29.5284 C.2     1  UNL1        0.2411
     37 C         -31.4428   -2.3968   29.5052 C.3     1  UNL1        0.1154
     38 C         -23.3214    1.8791   26.3557 C.2     1  UNL1       -0.0002
     39 O         -32.0338   -3.7492   29.4083 O.3     1  UNL1       -0.3536
     40 N         -26.8126   -0.0376   28.5938 N.am    1  UNL1       -0.2023
     41 C         -29.4848   -1.0870   30.6265 C.3     1  UNL1        0.0116
     42 O         -27.7139    1.0575   30.4771 O.2     1  UNL1       -0.2733
     43 C         -23.0005    0.7737   28.9361 C.2     1  UNL1       -0.0026
     44 C         -25.3925    0.0262   29.0916 C.3     1  UNL1        0.1228
     45 C         -30.3713   -0.6060   28.1608 C.3     1  UNL1        0.0116
@<TRIPOS>BOND
     1     1    44    1
     2     2     7    1
     3     2     1    1
     4     3     2    2
     5     4     3    1
     6     4     5    2
     7     5     6    1
     8     6     7    2
     9     8     1    1
    10     8     9    1
    11     8    12    1
    12     9    10    1
    13    10    11    1
    14    12    11    1
    15    13    31    1
    16    14    13    1
    17    14    15    1
    18    15    18    2
    19    16    17    1
    20    16    15    1
    21    19    14    2
    22    20    21    2
    23    20    19    1
    24    21    26    1
    25    22    21    1
    26    23    22    1
    27    24    23    1
    28    24    25    1
    29    26    27    1
    30    26    13    2
    31    28    32    1
    32    29    43    1
    33    29    44    1
    34    30    36    1
    35    30    41    1
    36    31    29    2
    37    32    43    2
    38    33    45    1
    39    33    37    1
    40    34    41    1
    41    35    39    1
    42    36    42    2
    43    37    39    1
    44    37    34    1
    45    38    28    2
    46    38    31    1
    47    40    36    1
    48    44    40    1
    49    45    30    1
