@<TRIPOS>MOLECULE
No_630-gen_results/8p0m/2024-11-27-11-27-31/
 28 31 0 0 0
SMALL
GASTEIGER

@<TRIPOS>ATOM
      1 C         -28.0162   -0.8135   28.8779 C.ar    1  UNL1        0.0145
      2 C         -28.4690   -0.7850   29.8287 C.ar    1  UNL1        0.0013
      3 C         -28.1816    0.4277   28.1134 C.ar    1  UNL1        0.0487
      4 C         -28.9841    1.4155   28.5154 C.ar    1  UNL1        0.0145
      5 C         -29.3802    0.1384   30.4612 C.ar    1  UNL1        0.0001
      6 C         -29.9932   -0.0234   31.7370 C.ar    1  UNL1        0.0000
      7 C         -29.5370    1.2619   29.7119 C.ar    1  UNL1        0.0013
      8 N         -27.4649    0.4160   26.8316 N.pl3   1  UNL1       -0.2962
      9 C         -26.0752    0.3720   26.7239 C.3     1  UNL1        0.0920
     10 C         -25.4854    0.6395   25.4827 C.3     1  UNL1        0.0216
     11 C         -28.1454    0.4851   25.6614 C.3     1  UNL1        0.1341
     12 C         -27.5665    0.5616   24.3910 C.3     1  UNL1        0.0368
     13 C         -26.1828    0.5960   24.3029 C.3     1  UNL1        0.0049
     14 C         -30.0116   -1.0711   32.3564 C.ar    1  UNL1        0.0000
     15 C         -30.6438   -1.2454   33.6257 C.ar    1  UNL1        0.0000
     16 C         -31.2920   -0.1443   34.1916 C.ar    1  UNL1        0.0012
     17 C         -31.2815    1.0187   33.5132 C.ar    1  UNL1        0.0153
     18 C         -30.6470    1.1487   32.3239 C.ar    1  UNL1        0.0012
     19 N         -29.5057    0.4017   25.6481 N.3     1  UNL1       -0.2584
     20 C         -30.2722    0.8349   26.1746 C.3     1  UNL1        0.0735
     21 C         -31.7204    0.4735   25.9856 C.3     1  UNL1        0.0174
     22 C         -29.9887   -0.3971   24.4120 C.3     1  UNL1        0.0735
     23 C         -31.2355   -0.8362   24.3361 C.3     1  UNL1        0.0174
     24 C         -32.1543   -0.3442   25.0829 C.3     1  UNL1        0.0029
     25 C         -31.9637    2.2237   34.0983 C.2     1  UNL1        0.0805
     26 N         -32.1455    2.4697   35.1935 N.2     1  UNL1       -0.1527
     27 C         -32.4585    3.1860   33.0423 C.3     1  UNL1        0.0477
     28 C         -33.2043    4.3092   33.4870 C.3     1  UNL1        0.0068
@<TRIPOS>BOND
     1     5     6    1
     2     3     8    1
     3     8     9    1
     4     8    11    1
     5    10    13    1
     6    12    13    1
     7    11    19    1
     8    19    20    1
     9    19    22    1
    10    21    24    1
    11    23    24    1
    12    17    25    1
    13    25    26    2
    14    25    27    1
    15    27    28    1
    16     9    10    1
    17    12    11    1
    18    20    21    1
    19    23    22    1
    20     6    14   ar
    21    14    15   ar
    22    15    16   ar
    23    16    17   ar
    24    17    18   ar
    25    18     6   ar
    26     1     2   ar
    27     2     5   ar
    28     5     7   ar
    29     7     4   ar
    30     4     3   ar
    31     3     1   ar
