@<TRIPOS>MOLECULE
outputs/IAG933/test6/raw/output_6300_IAG933_linker_design_.xyz
 46 50 0 0 0
SMALL
GASTEIGER

@<TRIPOS>ATOM
      1 C         -24.8550   -1.0120   30.1430 C.3     1  UNL1        0.0406
      2 C         -24.9730   -2.5050   29.7880 C.2     1  UNL1       -0.0211
      3 C         -23.9060   -3.1730   29.1460 C.2     1  UNL1       -0.0042
      4 C         -23.9890   -4.5490   28.8530 C.2     1  UNL1       -0.0003
      5 C         -25.1370   -5.2800   29.2050 C.2     1  UNL1       -0.0000
      6 C         -26.2320   -4.6110   29.7840 C.2     1  UNL1       -0.0003
      7 C         -26.1550   -3.2320   30.0650 C.2     1  UNL1       -0.0042
      8 C         -25.3870   -0.6790   31.5710 C.3     1  UNL1        0.0769
      9 C         -25.1890    0.7730   32.0280 C.3     1  UNL1        0.0192
     10 C         -25.3360    0.6840   33.5440 C.3     1  UNL1        0.0202
     11 C         -24.8290   -0.7150   33.9050 C.3     1  UNL1        0.0887
     12 N         -24.7580   -1.4810   32.6460 N.3     1  UNL1       -0.2191
     13 C         -25.6880    1.6140   26.4610 C.3     1  UNL1        0.1045
     14 C         -26.2500    2.9200   26.3950 C.2     1  UNL1        0.0576
     15 C         -25.6420    4.0930   27.1230 C.2     1  UNL1        0.2625
     16 N         -25.6140    5.2520   26.4490 N.am    1  UNL1       -0.2000
     17 C         -25.0260    6.4790   26.9630 C.3     1  UNL1        0.1388
     18 O         -25.1430    3.9660   28.2430 O.2     1  UNL1       -0.2687
     19 C         -27.4380    3.0910   25.6450 C.2     1  UNL1        0.1022
     20 N         -28.0750    2.0890   25.0030 N.2     1  UNL1       -0.2119
     21 C         -27.5430    0.8490   25.0790 C.2     1  UNL1        0.2342
     22 O         -28.1930   -0.2080   24.4770 O.2     1  UNL1       -0.4585
     23 C         -29.4600    0.0050   23.8660 C.3     1  UNL1        0.2423
     24 C         -30.0650   -1.3770   23.5730 C.3     1  UNL1        0.2292
     25 O         -30.7290   -1.8780   24.7210 O.3     1  UNL1       -0.2162
     26 C         -26.3540    0.5760   25.7770 C.3     1  UNL1        0.2428
     27 F         -25.8600   -0.6810   25.7950 F       1  UNL1       -0.2268
     28 C         -23.2631    1.2729   27.3806 C.2     1  UNL1       -0.0101
     29 C         -29.3830    1.6727   28.8421 C.3     1  UNL1        0.0113
     30 C         -23.5331    0.3669   28.5062 C.3     1  UNL1        0.0446
     31 N         -26.9494    1.2837   29.3894 N.am    1  UNL1       -0.2795
     32 O         -23.0267    2.4934   24.8902 O.3     1  UNL1       -0.0344
     33 C         -24.8290    0.0897   29.0916 C.3     1  UNL1        0.0331
     34 C         -29.0009    2.3481   30.1592 C.3     1  UNL1        0.0220
     35 C         -22.0006    1.8216   27.1391 C.2     1  UNL1       -0.0058
     36 C         -27.5620    2.0148   30.5363 C.3     1  UNL1        0.0934
     37 O         -23.6640    1.5230   25.0935 O.3     1  UNL1       -0.1871
     38 C         -24.2096    1.5841   26.4759 C.3     1  UNL1        0.1810
     39 C         -29.1654    0.1800   29.0803 C.3     1  UNL1        0.0853
     40 C         -25.4482    1.4439   29.5208 C.3     1  UNL1        0.0944
     41 O         -27.2031   -1.0934   28.6245 O.2     1  UNL1       -0.2749
     42 C         -20.4493    0.2817   28.2694 C.2     1  UNL1       -0.0003
     43 C         -27.6746    0.0674   29.0418 C.2     1  UNL1        0.2256
     44 C         -21.2335   -0.4197   28.8798 C.2     1  UNL1       -0.0043
     45 C         -20.7826    1.4057   27.4831 C.2     1  UNL1       -0.0006
     46 C         -22.5306   -0.3758   29.1062 C.2     1  UNL1       -0.0223
@<TRIPOS>BOND
     1     1    33    1
     2     2     7    1
     3     2     1    1
     4     3     2    2
     5     4     3    1
     6     4     5    2
     7     5     6    1
     8     6     7    2
     9     8     1    1
    10     8     9    1
    11     8    12    1
    12     9    10    1
    13    10    11    1
    14    12    11    1
    15    13    38    1
    16    14    13    1
    17    14    15    1
    18    15    18    2
    19    16    17    1
    20    16    15    1
    21    19    14    2
    22    20    21    2
    23    20    19    1
    24    21    26    1
    25    22    21    1
    26    23    22    1
    27    24    23    1
    28    24    25    1
    29    26    27    1
    30    26    13    1
    31    28    30    1
    32    29    39    1
    33    29    34    1
    34    30    33    1
    35    30    46    1
    36    31    40    1
    37    31    36    1
    38    32    37    1
    39    33    40    1
    40    34    36    1
    41    35    28    2
    42    35    45    1
    43    38    37    1
    44    38    28    1
    45    41    43    2
    46    42    44    1
    47    43    39    1
    48    43    31   am
    49    44    46    2
    50    45    42    2
