@<TRIPOS>MOLECULE
outputs/IAG933/test6/raw/output_6302_IAG933_linker_design_.xyz
 43 47 0 0 0
SMALL
GASTEIGER

@<TRIPOS>ATOM
      1 C         -24.8550   -1.0120   30.1430 C.3     1  UNL1        0.0622
      2 C         -24.9730   -2.5050   29.7880 C.2     1  UNL1       -0.0192
      3 C         -23.9060   -3.1730   29.1460 C.2     1  UNL1       -0.0042
      4 C         -23.9890   -4.5490   28.8530 C.2     1  UNL1       -0.0003
      5 C         -25.1370   -5.2800   29.2050 C.2     1  UNL1       -0.0000
      6 C         -26.2320   -4.6110   29.7840 C.2     1  UNL1       -0.0003
      7 C         -26.1550   -3.2320   30.0650 C.2     1  UNL1       -0.0042
      8 C         -25.3870   -0.6790   31.5710 C.3     1  UNL1        0.0788
      9 C         -25.1890    0.7730   32.0280 C.3     1  UNL1        0.0193
     10 C         -25.3360    0.6840   33.5440 C.3     1  UNL1        0.0202
     11 C         -24.8290   -0.7150   33.9050 C.3     1  UNL1        0.0887
     12 N         -24.7580   -1.4810   32.6460 N.3     1  UNL1       -0.2191
     13 C         -25.6880    1.6140   26.4610 C.2     1  UNL1        0.0295
     14 C         -26.2500    2.9200   26.3950 C.2     1  UNL1        0.0737
     15 C         -25.6420    4.0930   27.1230 C.2     1  UNL1        0.2662
     16 N         -25.6140    5.2520   26.4490 N.am    1  UNL1       -0.1997
     17 C         -25.0260    6.4790   26.9630 C.3     1  UNL1        0.1388
     18 O         -25.1430    3.9660   28.2430 O.2     1  UNL1       -0.2683
     19 C         -27.4380    3.0910   25.6450 C.2     1  UNL1        0.1064
     20 N         -28.0750    2.0890   25.0030 N.2     1  UNL1       -0.2081
     21 C         -27.5430    0.8490   25.0790 C.2     1  UNL1        0.2530
     22 O         -28.1930   -0.2080   24.4770 O.2     1  UNL1       -0.4558
     23 C         -29.4600    0.0050   23.8660 C.3     1  UNL1        0.2426
     24 C         -30.0650   -1.3770   23.5730 C.3     1  UNL1        0.2292
     25 O         -30.7290   -1.8780   24.7210 O.3     1  UNL1       -0.2162
     26 C         -26.3540    0.5760   25.7770 C.2     1  UNL1        0.1902
     27 F         -25.8600   -0.6810   25.7950 F       1  UNL1       -0.1995
     28 N         -30.7133    2.8635   30.1234 N.3     1  UNL1       -0.1329
     29 C         -27.7571    2.5160   29.6800 C.3     1  UNL1        0.0107
     30 C         -29.5435    2.0205   28.2866 C.3     1  UNL1        0.0281
     31 N         -22.1159   -0.0610   29.5540 N.pl3   1  UNL1       -0.1324
     32 C         -24.2002    0.6079   28.2831 C.2     1  UNL1        0.0030
     33 C         -22.0569    1.4286   27.6961 C.3     1  UNL1        0.1021
     34 S         -23.0078    1.9103   26.2885 S.3     1  UNL1       -0.1260
     35 C         -28.6251    1.4029   29.3708 C.3     1  UNL1        0.0797
     36 C         -28.4430    3.7913   29.3538 C.3     1  UNL1        0.0195
     37 C         -22.7797    0.6505   28.4972 C.2     1  UNL1        0.0724
     38 C         -24.4197    1.2896   27.0854 C.3     1  UNL1        0.0935
     39 N         -26.4555    0.5718   29.1817 N.am    1  UNL1       -0.2026
     40 C         -29.8361    3.3459   29.1308 C.3     1  UNL1        0.0923
     41 C         -27.7377    0.2561   28.8727 C.2     1  UNL1        0.2412
     42 C         -25.2137    0.0440   29.1538 C.3     1  UNL1        0.1210
     43 O         -28.1548   -0.6930   28.2414 O.2     1  UNL1       -0.2733
@<TRIPOS>BOND
     1     1    42    1
     2     2     7    1
     3     2     1    1
     4     3     2    2
     5     4     3    1
     6     4     5    2
     7     5     6    1
     8     6     7    2
     9     8     1    1
    10     8     9    1
    11     8    12    1
    12     9    10    1
    13    10    11    1
    14    12    11    1
    15    14    13    1
    16    14    15    1
    17    15    18    2
    18    16    17    1
    19    16    15    1
    20    19    14    2
    21    20    21    2
    22    20    19    1
    23    21    26    1
    24    22    21    1
    25    23    22    1
    26    24    23    1
    27    24    25    1
    28    26    27    1
    29    26    13    2
    30    30    40    1
    31    30    35    1
    32    32    37    2
    33    32    42    1
    34    33    37    1
    35    34    38    1
    36    34    33    1
    37    35    41    1
    38    35    29    1
    39    36    29    1
    40    37    31    1
    41    38    13    1
    42    38    32    1
    43    40    36    1
    44    40    28    1
    45    41    39    1
    46    42    39    1
    47    43    41    2
