@<TRIPOS>MOLECULE
outputs/IAG933/test6/raw/output_6306_IAG933_linker_design_.xyz
 43 47 0 0 0
SMALL
GASTEIGER

@<TRIPOS>ATOM
      1 C         -24.8550   -1.0120   30.1430 C.3     1  UNL1        0.0963
      2 C         -24.9730   -2.5050   29.7880 C.2     1  UNL1       -0.0064
      3 C         -23.9060   -3.1730   29.1460 C.2     1  UNL1       -0.0029
      4 C         -23.9890   -4.5490   28.8530 C.2     1  UNL1       -0.0003
      5 C         -25.1370   -5.2800   29.2050 C.2     1  UNL1       -0.0000
      6 C         -26.2320   -4.6110   29.7840 C.2     1  UNL1       -0.0003
      7 C         -26.1550   -3.2320   30.0650 C.2     1  UNL1       -0.0029
      8 C         -25.3870   -0.6790   31.5710 C.3     1  UNL1        0.0916
      9 C         -25.1890    0.7730   32.0280 C.3     1  UNL1        0.0206
     10 C         -25.3360    0.6840   33.5440 C.3     1  UNL1        0.0203
     11 C         -24.8290   -0.7150   33.9050 C.3     1  UNL1        0.0888
     12 N         -24.7580   -1.4810   32.6460 N.3     1  UNL1       -0.2178
     13 C         -25.6880    1.6140   26.4610 C.2     1  UNL1        0.0169
     14 C         -26.2500    2.9200   26.3950 C.2     1  UNL1        0.0726
     15 C         -25.6420    4.0930   27.1230 C.2     1  UNL1        0.2661
     16 N         -25.6140    5.2520   26.4490 N.am    1  UNL1       -0.1997
     17 C         -25.0260    6.4790   26.9630 C.3     1  UNL1        0.1388
     18 O         -25.1430    3.9660   28.2430 O.2     1  UNL1       -0.2683
     19 C         -27.4380    3.0910   25.6450 C.2     1  UNL1        0.1064
     20 N         -28.0750    2.0890   25.0030 N.2     1  UNL1       -0.2081
     21 C         -27.5430    0.8490   25.0790 C.2     1  UNL1        0.2530
     22 O         -28.1930   -0.2080   24.4770 O.2     1  UNL1       -0.4558
     23 C         -29.4600    0.0050   23.8660 C.3     1  UNL1        0.2426
     24 C         -30.0650   -1.3770   23.5730 C.3     1  UNL1        0.2292
     25 O         -30.7290   -1.8780   24.7210 O.3     1  UNL1       -0.2162
     26 C         -26.3540    0.5760   25.7770 C.2     1  UNL1        0.1891
     27 F         -25.8600   -0.6810   25.7950 F       1  UNL1       -0.1996
     28 C         -29.2442    0.3372   29.2529 C.3     1  UNL1        0.0837
     29 C         -24.5357    1.2382   27.3120 C.3     1  UNL1        0.0408
     30 N         -25.2762   -0.1204   29.2438 N.3     1  UNL1       -0.2689
     31 C         -26.5447   -0.0870   28.8523 C.3     1  UNL1        0.0732
     32 O         -30.5301   -0.7092   27.6780 O.2     1  UNL1       -0.2717
     33 C         -29.1047    1.6179   30.1207 C.3     1  UNL1        0.0417
     34 C         -22.3893    0.2700   28.6282 C.3     1  UNL1        0.0004
     35 C         -27.9803    2.5811   29.8911 C.3     1  UNL1        0.1526
     36 C         -25.4524    0.8861   28.7213 C.3     1  UNL1        0.0765
     37 N         -31.7137    0.2292   29.3422 N.am    1  UNL1       -0.0878
     38 C         -30.5324   -0.0958   28.7640 C.2     1  UNL1        0.2604
     39 C         -29.4851    3.0458   29.6205 C.3     1  UNL1        0.0359
     40 C         -28.1060   -0.5549   28.8404 C.3     1  UNL1        0.0266
     41 C         -23.0921    1.4070   27.8773 C.3     1  UNL1        0.0055
     42 O         -27.4370    3.2605   31.0279 O.3     1  UNL1       -0.2231
     43 C         -22.1679    1.8532   26.7782 C.3     1  UNL1        0.0004
@<TRIPOS>BOND
     1     1     2    1
     2     2     7    1
     3     3     2    2
     4     4     3    1
     5     4     5    2
     6     5     6    1
     7     6     7    2
     8     8     1    1
     9     8     9    1
    10     8    12    1
    11     9    10    1
    12    10    11    1
    13    12    11    1
    14    13    29    1
    15    14    13    1
    16    14    15    1
    17    15    18    2
    18    16    17    1
    19    16    15    1
    20    19    14    2
    21    20    21    2
    22    20    19    1
    23    21    26    1
    24    22    21    1
    25    23    22    1
    26    24    23    1
    27    24    25    1
    28    26    27    1
    29    26    13    2
    30    28    40    1
    31    29    41    1
    32    30     1    1
    33    31    40    1
    34    31    30    1
    35    32    38    2
    36    33    28    1
    37    35    33    1
    38    35    42    1
    39    36    29    1
    40    36    31    1
    41    36    30    1
    42    38    28    1
    43    38    37    1
    44    39    35    1
    45    39    33    1
    46    41    34    1
    47    43    41    1
