@<TRIPOS>MOLECULE
outputs/IAG933/test6/raw/output_6309_IAG933_linker_design_.xyz
 45 50 0 0 0
SMALL
GASTEIGER

@<TRIPOS>ATOM
      1 C         -24.8550   -1.0120   30.1430 C.3     1  UNL1        0.0543
      2 C         -24.9730   -2.5050   29.7880 C.2     1  UNL1       -0.0198
      3 C         -23.9060   -3.1730   29.1460 C.2     1  UNL1       -0.0042
      4 C         -23.9890   -4.5490   28.8530 C.2     1  UNL1       -0.0003
      5 C         -25.1370   -5.2800   29.2050 C.2     1  UNL1       -0.0000
      6 C         -26.2320   -4.6110   29.7840 C.2     1  UNL1       -0.0003
      7 C         -26.1550   -3.2320   30.0650 C.2     1  UNL1       -0.0042
      8 C         -25.3870   -0.6790   31.5710 C.3     1  UNL1        0.0781
      9 C         -25.1890    0.7730   32.0280 C.3     1  UNL1        0.0192
     10 C         -25.3360    0.6840   33.5440 C.3     1  UNL1        0.0202
     11 C         -24.8290   -0.7150   33.9050 C.3     1  UNL1        0.0887
     12 N         -24.7580   -1.4810   32.6460 N.3     1  UNL1       -0.2191
     13 C         -25.6880    1.6140   26.4610 C.3     1  UNL1        0.0740
     14 C         -26.2500    2.9200   26.3950 C.2     1  UNL1        0.0549
     15 C         -25.6420    4.0930   27.1230 C.2     1  UNL1        0.2624
     16 N         -25.6140    5.2520   26.4490 N.am    1  UNL1       -0.2000
     17 C         -25.0260    6.4790   26.9630 C.3     1  UNL1        0.1388
     18 O         -25.1430    3.9660   28.2430 O.2     1  UNL1       -0.2687
     19 C         -27.4380    3.0910   25.6450 C.2     1  UNL1        0.1021
     20 N         -28.0750    2.0890   25.0030 N.2     1  UNL1       -0.2119
     21 C         -27.5430    0.8490   25.0790 C.2     1  UNL1        0.2341
     22 O         -28.1930   -0.2080   24.4770 O.2     1  UNL1       -0.4585
     23 C         -29.4600    0.0050   23.8660 C.3     1  UNL1        0.2423
     24 C         -30.0650   -1.3770   23.5730 C.3     1  UNL1        0.2292
     25 O         -30.7290   -1.8780   24.7210 O.3     1  UNL1       -0.2162
     26 C         -26.3540    0.5760   25.7770 C.3     1  UNL1        0.2401
     27 F         -25.8600   -0.6810   25.7950 F       1  UNL1       -0.2269
     28 N         -29.2042    2.2210   31.4214 N.3     1  UNL1       -0.1605
     29 C         -30.8124    3.6244   32.4231 C.3     1  UNL1        0.1648
     30 O         -21.2061    1.4178   27.3895 O.3     1  UNL1       -0.1885
     31 O         -30.6780    2.6852   33.4180 O.3     1  UNL1       -0.3240
     32 O         -28.4171    2.2650   32.6403 O.3     1  UNL1       -0.2488
     33 C         -24.9380    1.4027   27.2828 C.3     1  UNL1        0.0566
     34 N         -26.4149    0.1276   28.7880 N.3     1  UNL1       -0.2722
     35 C         -22.4321    1.5985   28.1557 C.3     1  UNL1        0.2180
     36 C         -25.4323    0.5250   28.2312 C.3     1  UNL1        0.0754
     37 O         -22.8983    2.1643   26.0478 O.3     1  UNL1       -0.1911
     38 C         -28.5460    1.9065   30.1240 C.3     1  UNL1        0.1026
     39 O         -21.5104    1.8038   26.1154 O.3     1  UNL1       -0.0647
     40 C         -29.8493    3.5564   31.2768 C.3     1  UNL1        0.1331
     41 C         -29.3678    2.4338   33.7803 C.3     1  UNL1        0.3129
     42 C         -27.8070   -0.4101   29.3476 C.3     1  UNL1        0.0736
     43 C         -24.9892   -0.2682   29.2154 C.3     1  UNL1        0.0776
     44 C         -23.6271    1.7105   27.1461 C.3     1  UNL1        0.1896
     45 C         -28.9674    0.5644   29.5429 C.3     1  UNL1        0.0371
@<TRIPOS>BOND
     1     1     2    1
     2     2     7    1
     3     3     2    2
     4     4     3    1
     5     4     5    2
     6     5     6    1
     7     6     7    2
     8     8     1    1
     9     8     9    1
    10     8    12    1
    11     9    10    1
    12    10    11    1
    13    12    11    1
    14    13    33    1
    15    14    13    1
    16    14    15    1
    17    15    18    2
    18    16    17    1
    19    16    15    1
    20    19    14    2
    21    20    21    2
    22    20    19    1
    23    21    26    1
    24    22    21    1
    25    23    22    1
    26    24    23    1
    27    24    25    1
    28    26    27    1
    29    26    13    1
    30    28    32    1
    31    29    31    1
    32    30    35    1
    33    31    41    1
    34    32    41    1
    35    33    44    1
    36    34    43    1
    37    34    42    1
    38    36    33    1
    39    36    34    1
    40    36    43    1
    41    37    39    1
    42    37    44    1
    43    38    28    1
    44    39    30    1
    45    40    28    1
    46    40    29    1
    47    42    45    1
    48    43     1    1
    49    44    35    1
    50    45    38    1
