@<TRIPOS>MOLECULE
outputs/IAG933/test6/raw/output_6310_IAG933_linker_design_.xyz
 40 44 0 0 0
SMALL
GASTEIGER

@<TRIPOS>ATOM
      1 C         -24.8550   -1.0120   30.1430 C.3     1  UNL1        0.2075
      2 C         -24.9730   -2.5050   29.7880 C.2     1  UNL1        0.0218
      3 C         -23.9060   -3.1730   29.1460 C.2     1  UNL1       -0.0004
      4 C         -23.9890   -4.5490   28.8530 C.2     1  UNL1       -0.0002
      5 C         -25.1370   -5.2800   29.2050 C.2     1  UNL1       -0.0000
      6 C         -26.2320   -4.6110   29.7840 C.2     1  UNL1       -0.0002
      7 C         -26.1550   -3.2320   30.0650 C.2     1  UNL1       -0.0004
      8 C         -25.3870   -0.6790   31.5710 C.3     1  UNL1        0.1203
      9 C         -25.1890    0.7730   32.0280 C.3     1  UNL1        0.0233
     10 C         -25.3360    0.6840   33.5440 C.3     1  UNL1        0.0204
     11 C         -24.8290   -0.7150   33.9050 C.3     1  UNL1        0.0889
     12 N         -24.7580   -1.4810   32.6460 N.3     1  UNL1       -0.2150
     13 C         -25.6880    1.6140   26.4610 C.3     1  UNL1        0.0958
     14 C         -26.2500    2.9200   26.3950 C.2     1  UNL1        0.0590
     15 C         -25.6420    4.0930   27.1230 C.2     1  UNL1        0.2628
     16 N         -25.6140    5.2520   26.4490 N.am    1  UNL1       -0.2000
     17 C         -25.0260    6.4790   26.9630 C.3     1  UNL1        0.1388
     18 O         -25.1430    3.9660   28.2430 O.2     1  UNL1       -0.2686
     19 C         -27.4380    3.0910   25.6450 C.2     1  UNL1        0.1025
     20 N         -28.0750    2.0890   25.0030 N.2     1  UNL1       -0.2118
     21 C         -27.5430    0.8490   25.0790 C.2     1  UNL1        0.2344
     22 O         -28.1930   -0.2080   24.4770 O.2     1  UNL1       -0.4585
     23 C         -29.4600    0.0050   23.8660 C.3     1  UNL1        0.2423
     24 C         -30.0650   -1.3770   23.5730 C.3     1  UNL1        0.2292
     25 O         -30.7290   -1.8780   24.7210 O.3     1  UNL1       -0.2162
     26 C         -26.3540    0.5760   25.7770 C.3     1  UNL1        0.2441
     27 F         -25.8600   -0.6810   25.7950 F       1  UNL1       -0.2265
     28 O         -21.9530    2.1250   26.4571 O.2     1  UNL1       -0.4429
     29 C         -23.9899    0.3640   28.7008 C.2     1  UNL1        0.3293
     30 C         -26.7451    0.1569   29.1528 C.2     1  UNL1        0.4345
     31 C         -23.1828    2.3152   25.8613 C.2     1  UNL1        0.1763
     32 C         -23.5279    1.1405   27.6647 C.2     1  UNL1        0.1223
     33 N         -25.2617   -0.0584   29.0848 N.am    1  UNL1       -0.1217
     34 N         -22.7199   -0.0927   29.2698 N.pl3   1  UNL1        0.0394
     35 C         -22.2069    1.3101   27.5507 C.2     1  UNL1        0.2402
     36 C         -24.2312    1.6596   26.6068 C.2     1  UNL1        0.0328
     37 O         -27.5723   -0.7398   28.8337 O.2     1  UNL1       -0.2200
     38 N         -20.3328    0.0183   28.7936 N.pl3   1  UNL1        0.2176
     39 C         -21.6119    0.3995   28.5826 C.2     1  UNL1        0.4441
     40 N         -27.0726    1.3056   29.5333 N.am    1  UNL1       -0.0448
@<TRIPOS>BOND
     1     1    33    1
     2     2     7    1
     3     2     1    1
     4     3     2    2
     5     4     3    1
     6     4     5    2
     7     5     6    1
     8     6     7    2
     9     8     1    1
    10     8     9    1
    11     8    12    1
    12     9    10    1
    13    10    11    1
    14    12    11    1
    15    13    36    1
    16    14    13    1
    17    14    15    1
    18    15    18    2
    19    16    17    1
    20    16    15    1
    21    19    14    2
    22    20    21    2
    23    20    19    1
    24    21    26    1
    25    22    21    1
    26    23    22    1
    27    24    23    1
    28    24    25    1
    29    26    27    1
    30    26    13    1
    31    28    35    1
    32    29    33    1
    33    29    34    1
    34    30    40    1
    35    31    28    1
    36    31    36    2
    37    32    29    2
    38    33    30   am
    39    35    32    1
    40    35    39    2
    41    36    32    1
    42    37    30    2
    43    39    38    1
    44    39    34    1
