@<TRIPOS>MOLECULE
outputs/IAG933/test6/raw/output_6311_IAG933_linker_design_.xyz
 42 46 0 0 0
SMALL
GASTEIGER

@<TRIPOS>ATOM
      1 C         -24.8550   -1.0120   30.1430 C.3     1  UNL1        0.1215
      2 C         -24.9730   -2.5050   29.7880 C.2     1  UNL1       -0.0025
      3 C         -23.9060   -3.1730   29.1460 C.2     1  UNL1       -0.0026
      4 C         -23.9890   -4.5490   28.8530 C.2     1  UNL1       -0.0003
      5 C         -25.1370   -5.2800   29.2050 C.2     1  UNL1       -0.0000
      6 C         -26.2320   -4.6110   29.7840 C.2     1  UNL1       -0.0003
      7 C         -26.1550   -3.2320   30.0650 C.2     1  UNL1       -0.0026
      8 C         -25.3870   -0.6790   31.5710 C.3     1  UNL1        0.0956
      9 C         -25.1890    0.7730   32.0280 C.3     1  UNL1        0.0209
     10 C         -25.3360    0.6840   33.5440 C.3     1  UNL1        0.0203
     11 C         -24.8290   -0.7150   33.9050 C.3     1  UNL1        0.0888
     12 N         -24.7580   -1.4810   32.6460 N.3     1  UNL1       -0.2174
     13 C         -25.6880    1.6140   26.4610 C.2     1  UNL1        0.0416
     14 C         -26.2500    2.9200   26.3950 C.2     1  UNL1        0.0767
     15 C         -25.6420    4.0930   27.1230 C.2     1  UNL1        0.2664
     16 N         -25.6140    5.2520   26.4490 N.am    1  UNL1       -0.1997
     17 C         -25.0260    6.4790   26.9630 C.3     1  UNL1        0.1388
     18 O         -25.1430    3.9660   28.2430 O.2     1  UNL1       -0.2683
     19 C         -27.4380    3.0910   25.6450 C.2     1  UNL1        0.1067
     20 N         -28.0750    2.0890   25.0030 N.2     1  UNL1       -0.2081
     21 C         -27.5430    0.8490   25.0790 C.2     1  UNL1        0.2533
     22 O         -28.1930   -0.2080   24.4770 O.2     1  UNL1       -0.4558
     23 C         -29.4600    0.0050   23.8660 C.3     1  UNL1        0.2426
     24 C         -30.0650   -1.3770   23.5730 C.3     1  UNL1        0.2292
     25 O         -30.7290   -1.8780   24.7210 O.3     1  UNL1       -0.2162
     26 C         -26.3540    0.5760   25.7770 C.2     1  UNL1        0.1932
     27 F         -25.8600   -0.6810   25.7950 F       1  UNL1       -0.1992
     28 F         -21.0403    1.7420   25.9821 F       1  UNL1       -0.1985
     29 O         -22.2897   -0.7109   29.2972 O.3     1  UNL1       -0.4333
     30 N         -25.4324   -0.1498   29.0641 N.am    1  UNL1       -0.2154
     31 C         -26.9002   -0.0998   29.1227 C.2     1  UNL1        0.4512
     32 C         -21.8719    0.8857   27.9774 C.ar    1  UNL1        0.2071
     33 C         -24.4482    1.2678   27.0753 C.ar    1  UNL1        0.0492
     34 C         -24.3376    0.4799   28.2464 C.ar    1  UNL1        0.0968
     35 F         -23.4848    2.2572   25.1511 F       1  UNL1       -0.2016
     36 C         -22.9069    0.2602   28.5988 C.ar    1  UNL1        0.1924
     37 O         -27.3934    0.9707   29.2706 O.co2   1  UNL1       -0.2220
     38 C         -23.3313    1.6652   26.3283 C.ar    1  UNL1        0.1718
     39 O         -27.6819   -1.1587   29.1346 O.co2   1  UNL1       -0.2220
     40 C         -21.0348   -0.3860   29.2431 C.3     1  UNL1        0.4295
     41 C         -22.0420    1.4360   26.7420 C.ar    1  UNL1        0.2043
     42 O         -20.5952    0.7074   28.4707 O.3     1  UNL1       -0.4322
@<TRIPOS>BOND
     1     1    30    1
     2     2     7    1
     3     2     1    1
     4     3     2    2
     5     4     3    1
     6     4     5    2
     7     5     6    1
     8     6     7    2
     9     8     1    1
    10     8     9    1
    11     8    12    1
    12     9    10    1
    13    10    11    1
    14    12    11    1
    15    13    33    1
    16    14    13    1
    17    14    15    1
    18    15    18    2
    19    16    17    1
    20    16    15    1
    21    19    14    2
    22    20    21    2
    23    20    19    1
    24    21    26    1
    25    22    21    1
    26    23    22    1
    27    24    23    1
    28    24    25    1
    29    26    27    1
    30    26    13    2
    31    28    41    1
    32    30    31   am
    33    31    39   ar
    34    31    37   ar
    35    32    42    1
    36    32    36   ar
    37    33    34   ar
    38    34    36   ar
    39    34    30    1
    40    35    38    1
    41    36    29    1
    42    38    41   ar
    43    38    33   ar
    44    40    29    1
    45    41    32   ar
    46    42    40    1
