@<TRIPOS>MOLECULE
outputs/IAG933/test6/raw/output_6315_IAG933_linker_design_.xyz
 46 49 0 0 0
SMALL
GASTEIGER

@<TRIPOS>ATOM
      1 C         -24.8550   -1.0120   30.1430 C.3     1  UNL1        0.0741
      2 C         -24.9730   -2.5050   29.7880 C.2     1  UNL1       -0.0158
      3 C         -23.9060   -3.1730   29.1460 C.2     1  UNL1       -0.0039
      4 C         -23.9890   -4.5490   28.8530 C.2     1  UNL1       -0.0003
      5 C         -25.1370   -5.2800   29.2050 C.2     1  UNL1       -0.0000
      6 C         -26.2320   -4.6110   29.7840 C.2     1  UNL1       -0.0003
      7 C         -26.1550   -3.2320   30.0650 C.2     1  UNL1       -0.0039
      8 C         -25.3870   -0.6790   31.5710 C.3     1  UNL1        0.0821
      9 C         -25.1890    0.7730   32.0280 C.3     1  UNL1        0.0196
     10 C         -25.3360    0.6840   33.5440 C.3     1  UNL1        0.0203
     11 C         -24.8290   -0.7150   33.9050 C.3     1  UNL1        0.0887
     12 N         -24.7580   -1.4810   32.6460 N.3     1  UNL1       -0.2188
     13 C         -25.6880    1.6140   26.4610 C.2     1  UNL1        0.0403
     14 C         -26.2500    2.9200   26.3950 C.2     1  UNL1        0.0745
     15 C         -25.6420    4.0930   27.1230 C.2     1  UNL1        0.2662
     16 N         -25.6140    5.2520   26.4490 N.am    1  UNL1       -0.1997
     17 C         -25.0260    6.4790   26.9630 C.3     1  UNL1        0.1388
     18 O         -25.1430    3.9660   28.2430 O.2     1  UNL1       -0.2683
     19 C         -27.4380    3.0910   25.6450 C.2     1  UNL1        0.1065
     20 N         -28.0750    2.0890   25.0030 N.2     1  UNL1       -0.2081
     21 C         -27.5430    0.8490   25.0790 C.2     1  UNL1        0.2530
     22 O         -28.1930   -0.2080   24.4770 O.2     1  UNL1       -0.4558
     23 C         -29.4600    0.0050   23.8660 C.3     1  UNL1        0.2426
     24 C         -30.0650   -1.3770   23.5730 C.3     1  UNL1        0.2292
     25 O         -30.7290   -1.8780   24.7210 O.3     1  UNL1       -0.2162
     26 C         -26.3540    0.5760   25.7770 C.2     1  UNL1        0.1910
     27 F         -25.8600   -0.6810   25.7950 F       1  UNL1       -0.1995
     28 C         -24.5769    1.3635   27.3224 C.3     1  UNL1        0.1525
     29 F         -20.9592    1.5946   27.8189 F       1  UNL1       -0.2020
     30 O         -26.8533    4.2563   30.6302 O.3     1  UNL1       -0.2212
     31 O         -24.4758    5.2888   31.2456 O.2     1  UNL1       -0.2733
     32 C         -25.0785    5.1703   32.4448 C.2     1  UNL1        0.2419
     33 O         -26.8175    1.6424   29.4449 O.3     1  UNL1       -0.3343
     34 C         -27.2556    3.4616   31.6025 C.3     1  UNL1        0.1761
     35 C         -22.6634    0.5330   29.1500 C.2     1  UNL1        0.0422
     36 N         -24.9210    0.7259   28.5029 N.pl3   1  UNL1       -0.2777
     37 C         -26.3492    0.4696   28.6884 C.3     1  UNL1        0.2406
     38 C         -24.0640    0.1332   29.2762 C.2     1  UNL1        0.0347
     39 C         -28.3456    2.6066   31.0196 C.3     1  UNL1        0.0668
     40 F         -22.7362    2.2969   25.9223 F       1  UNL1       -0.2044
     41 C         -26.0688    6.2754   32.8648 C.3     1  UNL1        0.0964
     42 C         -22.2485    1.3026   28.0402 C.2     1  UNL1        0.1661
     43 C         -23.2237    1.7180   27.0217 C.2     1  UNL1        0.1671
     44 N         -25.3417    3.8677   33.0617 N.am    1  UNL1       -0.2027
     45 C         -27.9737    2.4335   29.5553 C.3     1  UNL1        0.1469
     46 C         -26.7352    3.4972   32.9042 C.3     1  UNL1        0.1479
@<TRIPOS>BOND
     1     1    38    1
     2     2     7    1
     3     2     1    1
     4     3     2    2
     5     4     3    1
     6     4     5    2
     7     5     6    1
     8     6     7    2
     9     8     1    1
    10     8     9    1
    11     8    12    1
    12     9    10    1
    13    10    11    1
    14    12    11    1
    15    14    13    1
    16    14    15    1
    17    15    18    2
    18    16    17    1
    19    16    15    1
    20    19    14    2
    21    20    21    2
    22    20    19    1
    23    21    26    1
    24    22    21    1
    25    23    22    1
    26    24    23    1
    27    24    25    1
    28    26    27    1
    29    26    13    2
    30    28    13    1
    31    28    36    1
    32    29    42    1
    33    31    32    2
    34    32    41    1
    35    32    44    1
    36    33    45    1
    37    34    30    1
    38    34    46    1
    39    35    38    2
    40    36    37    1
    41    36    38    1
    42    37    33    1
    43    39    34    1
    44    40    43    1
    45    42    35    1
    46    43    28    1
    47    43    42    2
    48    45    39    1
    49    46    44    1
