@<TRIPOS>MOLECULE
outputs/IAG933/test6/raw/output_6316_IAG933_linker_design_.xyz
 46 51 0 0 0
SMALL
GASTEIGER

@<TRIPOS>ATOM
      1 C         -24.8550   -1.0120   30.1430 C.3     1  UNL1        0.0671
      2 C         -24.9730   -2.5050   29.7880 C.2     1  UNL1       -0.0187
      3 C         -23.9060   -3.1730   29.1460 C.2     1  UNL1       -0.0042
      4 C         -23.9890   -4.5490   28.8530 C.2     1  UNL1       -0.0003
      5 C         -25.1370   -5.2800   29.2050 C.2     1  UNL1       -0.0000
      6 C         -26.2320   -4.6110   29.7840 C.2     1  UNL1       -0.0003
      7 C         -26.1550   -3.2320   30.0650 C.2     1  UNL1       -0.0042
      8 C         -25.3870   -0.6790   31.5710 C.3     1  UNL1        0.0792
      9 C         -25.1890    0.7730   32.0280 C.3     1  UNL1        0.0193
     10 C         -25.3360    0.6840   33.5440 C.3     1  UNL1        0.0202
     11 C         -24.8290   -0.7150   33.9050 C.3     1  UNL1        0.0887
     12 N         -24.7580   -1.4810   32.6460 N.3     1  UNL1       -0.2190
     13 C         -25.6880    1.6140   26.4610 C.3     1  UNL1        0.0844
     14 C         -26.2500    2.9200   26.3950 C.2     1  UNL1        0.0561
     15 C         -25.6420    4.0930   27.1230 C.2     1  UNL1        0.2625
     16 N         -25.6140    5.2520   26.4490 N.am    1  UNL1       -0.2000
     17 C         -25.0260    6.4790   26.9630 C.3     1  UNL1        0.1388
     18 O         -25.1430    3.9660   28.2430 O.2     1  UNL1       -0.2687
     19 C         -27.4380    3.0910   25.6450 C.2     1  UNL1        0.1022
     20 N         -28.0750    2.0890   25.0030 N.2     1  UNL1       -0.2119
     21 C         -27.5430    0.8490   25.0790 C.2     1  UNL1        0.2341
     22 O         -28.1930   -0.2080   24.4770 O.2     1  UNL1       -0.4585
     23 C         -29.4600    0.0050   23.8660 C.3     1  UNL1        0.2423
     24 C         -30.0650   -1.3770   23.5730 C.3     1  UNL1        0.2292
     25 O         -30.7290   -1.8780   24.7210 O.3     1  UNL1       -0.2162
     26 C         -26.3540    0.5760   25.7770 C.3     1  UNL1        0.2413
     27 F         -25.8600   -0.6810   25.7950 F       1  UNL1       -0.2268
     28 C         -29.5412    2.5851   31.4958 C.2     1  UNL1        0.0366
     29 C         -30.7678    3.1817   31.2030 C.2     1  UNL1        0.1385
     30 C         -22.5846    1.6107   27.2626 C.3     1  UNL1        0.0343
     31 C         -29.4413    1.6041   29.2982 C.2     1  UNL1       -0.0128
     32 C         -31.2853    4.3358   33.4728 C.3     1  UNL1        0.2055
     33 C         -32.0112    5.6788   33.6624 C.3     1  UNL1        0.0512
     34 C         -31.3173    2.9864   29.9409 C.2     1  UNL1        0.0366
     35 O         -22.8550   -0.1959   28.7469 O.3     1  UNL1       -0.3542
     36 C         -24.9390    0.9652   28.1459 C.3     1  UNL1        0.1108
     37 C         -27.5445    0.1478   28.5892 C.2     1  UNL1        0.2458
     38 C         -30.6596    2.2186   28.9899 C.2     1  UNL1       -0.0007
     39 O         -27.5458   -0.9140   28.1591 O.2     1  UNL1       -0.2730
     40 N         -26.3001    0.9045   28.8517 N.am    1  UNL1       -0.2057
     41 C         -28.8866    1.8166   30.5485 C.2     1  UNL1       -0.0007
     42 C         -24.1850   -0.0370   29.1337 C.3     1  UNL1        0.1390
     43 C         -24.0594    1.2258   27.0221 C.3     1  UNL1        0.0323
     44 C         -28.7216    0.6936   28.3921 C.3     1  UNL1        0.1131
     45 C         -21.9935    0.8184   28.5420 C.3     1  UNL1        0.1422
     46 O         -31.4693    3.9202   32.1310 O.2     1  UNL1       -0.4755
@<TRIPOS>BOND
     1     1     2    1
     2     2     7    1
     3     3     2    2
     4     4     3    1
     5     4     5    2
     6     5     6    1
     7     6     7    2
     8     8     1    1
     9     8     9    1
    10     8    12    1
    11     9    10    1
    12    10    11    1
    13    12    11    1
    14    13    14    1
    15    13    43    1
    16    13    36    1
    17    14    15    1
    18    15    18    2
    19    16    17    1
    20    16    15    1
    21    19    14    2
    22    20    21    2
    23    20    19    1
    24    21    26    1
    25    22    21    1
    26    23    22    1
    27    24    23    1
    28    24    25    1
    29    26    27    1
    30    26    13    1
    31    29    28    1
    32    29    46    1
    33    30    45    1
    34    31    41    1
    35    32    33    1
    36    34    29    2
    37    35    42    1
    38    36    40    1
    39    36    42    1
    40    37    40    1
    41    38    31    2
    42    38    34    1
    43    39    37    2
    44    41    28    2
    45    42     1    1
    46    43    30    1
    47    43    36    1
    48    44    37    1
    49    44    31    1
    50    45    35    1
    51    46    32    1
