@<TRIPOS>MOLECULE
outputs/IAG933/test6/raw/output_632_IAG933_linker_design_.xyz
 42 46 0 0 0
SMALL
GASTEIGER

@<TRIPOS>ATOM
      1 C         -24.8550   -1.0120   30.1430 C.3     1  UNL1        0.0465
      2 C         -24.9730   -2.5050   29.7880 C.2     1  UNL1       -0.0207
      3 C         -23.9060   -3.1730   29.1460 C.2     1  UNL1       -0.0042
      4 C         -23.9890   -4.5490   28.8530 C.2     1  UNL1       -0.0003
      5 C         -25.1370   -5.2800   29.2050 C.2     1  UNL1       -0.0000
      6 C         -26.2320   -4.6110   29.7840 C.2     1  UNL1       -0.0003
      7 C         -26.1550   -3.2320   30.0650 C.2     1  UNL1       -0.0042
      8 C         -25.3870   -0.6790   31.5710 C.3     1  UNL1        0.0787
      9 C         -25.1890    0.7730   32.0280 C.3     1  UNL1        0.0379
     10 C         -25.3360    0.6840   33.5440 C.3     1  UNL1        0.0217
     11 C         -24.8290   -0.7150   33.9050 C.3     1  UNL1        0.0888
     12 N         -24.7580   -1.4810   32.6460 N.3     1  UNL1       -0.2191
     13 C         -25.6880    1.6140   26.4610 C.2     1  UNL1        0.0918
     14 C         -26.2500    2.9200   26.3950 C.2     1  UNL1        0.0714
     15 C         -25.6420    4.0930   27.1230 C.2     1  UNL1        0.2638
     16 N         -25.6140    5.2520   26.4490 N.am    1  UNL1       -0.2000
     17 C         -25.0260    6.4790   26.9630 C.3     1  UNL1        0.1388
     18 O         -25.1430    3.9660   28.2430 O.2     1  UNL1       -0.2686
     19 C         -27.4380    3.0910   25.6450 C.3     1  UNL1        0.1604
     20 N         -28.0750    2.0890   25.0030 N.2     1  UNL1       -0.2340
     21 C         -27.5430    0.8490   25.0790 C.2     1  UNL1        0.2355
     22 O         -28.1930   -0.2080   24.4770 O.2     1  UNL1       -0.4585
     23 C         -29.4600    0.0050   23.8660 C.3     1  UNL1        0.2423
     24 C         -30.0650   -1.3770   23.5730 C.3     1  UNL1        0.2292
     25 O         -30.7290   -1.8780   24.7210 O.3     1  UNL1       -0.2162
     26 C         -26.3540    0.5760   25.7770 C.3     1  UNL1        0.2726
     27 F         -25.8600   -0.6810   25.7950 F       1  UNL1       -0.2209
     28 C         -24.9742    2.0019   31.1420 C.3     1  UNL1        0.1238
     29 F         -23.7072    1.3022   24.6055 F       1  UNL1       -0.1585
     30 C         -21.0380    0.3570   28.2282 C.2     1  UNL1        0.0987
     31 O         -22.3658    2.9228   25.0063 O.2     1  UNL1       -0.2541
     32 C         -22.6089    1.3665   26.6951 C.2     1  UNL1        0.0857
     33 N         -25.7889    3.2028   31.0530 N.3     1  UNL1       -0.1302
     34 C         -24.4156    0.2231   29.5000 C.3     1  UNL1        0.0788
     35 C         -22.9007    1.9467   25.4579 C.2     1  UNL1        0.3348
     36 C         -23.1897    0.1703   28.8420 C.2     1  UNL1        0.0768
     37 N         -22.0021   -0.1324   29.0809 N.2     1  UNL1       -0.2468
     38 C         -25.2301    1.3942   29.6887 C.3     1  UNL1        0.1753
     39 O         -26.6410    1.0633   29.4783 O.3     1  UNL1       -0.2212
     40 C         -21.2918    0.9898   27.0171 C.2     1  UNL1        0.0275
     41 N         -24.8178    1.2414   27.3137 N.pl3   1  UNL1       -0.2123
     42 C         -23.6257    1.1224   27.5670 C.2     1  UNL1        0.0892
@<TRIPOS>BOND
     1     1     2    1
     2     1     8    1
     3     2     7    1
     4     3     2    2
     5     4     3    1
     6     4     5    2
     7     5     6    1
     8     6     7    2
     9     8     9    1
    10     8    12    1
    11     9    10    1
    12    10    11    1
    13    12    11    1
    14    13    41    1
    15    14    13    2
    16    14    15    1
    17    15    18    2
    18    16    17    1
    19    16    15    1
    20    19    14    1
    21    20    21    2
    22    20    19    1
    23    21    26    1
    24    22    21    1
    25    23    22    1
    26    24    23    1
    27    24    25    1
    28    26    27    1
    29    26    13    1
    30    28    33    1
    31    28     9    1
    32    29    35    1
    33    30    37    1
    34    31    35    2
    35    32    40    1
    36    32    42    2
    37    34    36    1
    38    34    38    1
    39    34     1    1
    40    35    32    1
    41    36    37    2
    42    38    39    1
    43    38    28    1
    44    40    30    2
    45    41    42    1
    46    42    36    1
