@<TRIPOS>MOLECULE
outputs/IAG933/test6/raw/output_6325_IAG933_linker_design_.xyz
 45 48 0 0 0
SMALL
GASTEIGER

@<TRIPOS>ATOM
      1 C         -24.8550   -1.0120   30.1430 C.3     1  UNL1        0.0582
      2 C         -24.9730   -2.5050   29.7880 C.2     1  UNL1       -0.0195
      3 C         -23.9060   -3.1730   29.1460 C.2     1  UNL1       -0.0042
      4 C         -23.9890   -4.5490   28.8530 C.2     1  UNL1       -0.0003
      5 C         -25.1370   -5.2800   29.2050 C.2     1  UNL1       -0.0000
      6 C         -26.2320   -4.6110   29.7840 C.2     1  UNL1       -0.0003
      7 C         -26.1550   -3.2320   30.0650 C.2     1  UNL1       -0.0042
      8 C         -25.3870   -0.6790   31.5710 C.3     1  UNL1        0.0785
      9 C         -25.1890    0.7730   32.0280 C.3     1  UNL1        0.0192
     10 C         -25.3360    0.6840   33.5440 C.3     1  UNL1        0.0202
     11 C         -24.8290   -0.7150   33.9050 C.3     1  UNL1        0.0887
     12 N         -24.7580   -1.4810   32.6460 N.3     1  UNL1       -0.2191
     13 C         -25.6880    1.6140   26.4610 C.3     1  UNL1        0.0907
     14 C         -26.2500    2.9200   26.3950 C.2     1  UNL1        0.0586
     15 C         -25.6420    4.0930   27.1230 C.2     1  UNL1        0.2627
     16 N         -25.6140    5.2520   26.4490 N.am    1  UNL1       -0.2000
     17 C         -25.0260    6.4790   26.9630 C.3     1  UNL1        0.1388
     18 O         -25.1430    3.9660   28.2430 O.2     1  UNL1       -0.2686
     19 C         -27.4380    3.0910   25.6450 C.2     1  UNL1        0.1025
     20 N         -28.0750    2.0890   25.0030 N.2     1  UNL1       -0.2118
     21 C         -27.5430    0.8490   25.0790 C.2     1  UNL1        0.2344
     22 O         -28.1930   -0.2080   24.4770 O.2     1  UNL1       -0.4585
     23 C         -29.4600    0.0050   23.8660 C.3     1  UNL1        0.2423
     24 C         -30.0650   -1.3770   23.5730 C.3     1  UNL1        0.2292
     25 O         -30.7290   -1.8780   24.7210 O.3     1  UNL1       -0.2162
     26 C         -26.3540    0.5760   25.7770 C.3     1  UNL1        0.2438
     27 F         -25.8600   -0.6810   25.7950 F       1  UNL1       -0.2265
     28 C         -22.1623    1.6528   26.8859 C.3     1  UNL1        0.3062
     29 C         -25.4476    3.7078   31.3810 C.3     1  UNL1        0.1636
     30 C         -23.6727    1.8163   25.1799 C.3     1  UNL1        0.1680
     31 C         -25.9885    6.0718   32.3984 C.3     1  UNL1        0.2325
     32 C         -25.6407   -0.0820   29.1280 C.3     1  UNL1        0.0995
     33 F         -21.1886    1.0697   27.5521 F       1  UNL1       -0.1986
     34 C         -23.3965    1.5437   27.4288 C.2     1  UNL1        0.0870
     35 O         -25.0255    3.9132   32.6929 O.3     1  UNL1       -0.3518
     36 C         -25.8422    4.2302   33.7771 C.3     1  UNL1        0.1462
     37 C         -26.5077    5.5829   33.7298 C.3     1  UNL1        0.0819
     38 C         -23.6519    1.4436   28.8397 C.2     1  UNL1        0.2496
     39 O         -22.3378    1.9958   25.5396 O.3     1  UNL1       -0.3188
     40 O         -24.6570    6.4714   32.5308 O.3     1  UNL1       -0.2051
     41 CL        -26.8611    7.1140   31.5462 Cl      1  UNL1       -0.0787
     42 C         -24.2454    1.5612   26.5140 C.2     1  UNL1       -0.0023
     43 O         -22.7193    1.0771   29.5494 O.2     1  UNL1       -0.2701
     44 N         -25.0407    1.4533   29.3192 N.am    1  UNL1       -0.2733
     45 C         -25.5672    2.7904   30.3251 C.3     1  UNL1        0.1257
@<TRIPOS>BOND
     1     1    32    1
     2     2     7    1
     3     2     1    1
     4     3     2    2
     5     4     3    1
     6     4     5    2
     7     5     6    1
     8     6     7    2
     9     8     1    1
    10     8     9    1
    11     8    12    1
    12     9    10    1
    13    10    11    1
    14    12    11    1
    15    13    42    1
    16    14    13    1
    17    14    15    1
    18    15    18    2
    19    16    17    1
    20    16    15    1
    21    19    14    2
    22    20    21    2
    23    20    19    1
    24    21    26    1
    25    22    21    1
    26    23    22    1
    27    24    23    1
    28    24    25    1
    29    26    27    1
    30    26    13    1
    31    28    34    1
    32    28    33    1
    33    29    35    1
    34    30    39    1
    35    30    42    1
    36    31    41    1
    37    31    40    1
    38    31    37    1
    39    32    44    1
    40    34    38    1
    41    35    36    1
    42    37    36    1
    43    38    44   am
    44    38    43    2
    45    39    28    1
    46    42    34    2
    47    44    45    1
    48    45    29    1
