@<TRIPOS>MOLECULE
outputs/IAG933/test6/raw/output_6329_IAG933_linker_design_.xyz
 50 55 0 0 0
SMALL
GASTEIGER

@<TRIPOS>ATOM
      1 C         -24.8550   -1.0120   30.1430 C.3     1  UNL1        0.1532
      2 C         -24.9730   -2.5050   29.7880 C.2     1  UNL1        0.0059
      3 C         -23.9060   -3.1730   29.1460 C.2     1  UNL1       -0.0019
      4 C         -23.9890   -4.5490   28.8530 C.2     1  UNL1       -0.0002
      5 C         -25.1370   -5.2800   29.2050 C.2     1  UNL1       -0.0000
      6 C         -26.2320   -4.6110   29.7840 C.2     1  UNL1       -0.0002
      7 C         -26.1550   -3.2320   30.0650 C.2     1  UNL1       -0.0019
      8 C         -25.3870   -0.6790   31.5710 C.3     1  UNL1        0.1041
      9 C         -25.1890    0.7730   32.0280 C.3     1  UNL1        0.0217
     10 C         -25.3360    0.6840   33.5440 C.3     1  UNL1        0.0203
     11 C         -24.8290   -0.7150   33.9050 C.3     1  UNL1        0.0888
     12 N         -24.7580   -1.4810   32.6460 N.3     1  UNL1       -0.2166
     13 C         -25.6880    1.6140   26.4610 C.2     1  UNL1        0.0180
     14 C         -26.2500    2.9200   26.3950 C.2     1  UNL1        0.0726
     15 C         -25.6420    4.0930   27.1230 C.2     1  UNL1        0.2661
     16 N         -25.6140    5.2520   26.4490 N.am    1  UNL1       -0.1997
     17 C         -25.0260    6.4790   26.9630 C.3     1  UNL1        0.1388
     18 O         -25.1430    3.9660   28.2430 O.2     1  UNL1       -0.2683
     19 C         -27.4380    3.0910   25.6450 C.2     1  UNL1        0.1064
     20 N         -28.0750    2.0890   25.0030 N.2     1  UNL1       -0.2081
     21 C         -27.5430    0.8490   25.0790 C.2     1  UNL1        0.2530
     22 O         -28.1930   -0.2080   24.4770 O.2     1  UNL1       -0.4560
     23 C         -29.4600    0.0050   23.8660 C.3     1  UNL1        0.2391
     24 C         -30.0650   -1.3770   23.5730 C.3     1  UNL1        0.1898
     25 O         -30.7290   -1.8780   24.7210 O.3     1  UNL1       -0.3449
     26 C         -26.3540    0.5760   25.7770 C.2     1  UNL1        0.1892
     27 F         -25.8600   -0.6810   25.7950 F       1  UNL1       -0.1996
     28 N         -22.6179    0.1214   29.9400 N.3     1  UNL1       -0.1303
     29 C         -30.4721   -1.7189   29.4402 C.2     1  UNL1        0.2347
     30 C         -29.1123   -0.7331   31.1903 C.2     1  UNL1        0.0149
     31 O         -32.5226   -1.8070   28.0075 O.2     1  UNL1       -0.2828
     32 C         -29.6836   -3.0924   31.2565 C.2     1  UNL1        0.4156
     33 C         -29.5005   -0.0035   27.5828 C.2     1  UNL1        0.0436
     34 C         -29.6544   -0.7054   29.8664 C.2     1  UNL1        0.0854
     35 C         -30.3835   -1.0456   27.2376 C.2     1  UNL1        0.0532
     36 C         -22.9878    2.2930   25.5510 C.3     1  UNL1        0.0005
     37 N         -30.5179   -2.9265   30.1245 N.2     1  UNL1       -0.0292
     38 C         -24.6449    1.3604   27.2676 C.3     1  UNL1        0.0536
     39 C         -23.4809    1.9132   26.9292 C.3     1  UNL1        0.0080
     40 C         -31.2207   -1.5701   28.1551 C.2     1  UNL1        0.2368
     41 C         -30.3483   -1.8479   25.8618 C.3     1  UNL1        0.1721
     42 C         -20.9920    1.4613   27.4572 C.3     1  UNL1        0.0016
     43 C         -22.4615    1.4774   27.9858 C.3     1  UNL1        0.0204
     44 O         -25.3878   -0.0900   29.3171 O.3     1  UNL1       -0.3511
     45 N         -29.3760   -4.3851   31.6986 N.pl3   1  UNL1        0.2163
     46 C         -23.0227    0.1135   28.5659 C.3     1  UNL1        0.1191
     47 C         -29.0645   -1.9789   31.8332 C.2     1  UNL1        0.0983
     48 O         -28.8080    1.3814   29.3479 O.2     1  UNL1       -0.2865
     49 C         -29.2690    0.2566   28.9203 C.2     1  UNL1        0.1992
     50 C         -24.5073    0.4976   28.3144 C.3     1  UNL1        0.1371
@<TRIPOS>BOND
     1     1    44    1
     2     2     7    1
     3     2     1    1
     4     3     2    2
     5     4     3    1
     6     4     5    2
     7     5     6    1
     8     6     7    2
     9     8     1    1
    10     8     9    1
    11     8    12    1
    12     9    10    1
    13    10    11    1
    14    12    11    1
    15    14    13    1
    16    14    15    1
    17    15    18    2
    18    16    17    1
    19    16    15    1
    20    19    14    2
    21    20    21    2
    22    20    19    1
    23    21    26    1
    24    22    21    1
    25    23    22    1
    26    24    23    1
    27    24    25    1
    28    25    41    1
    29    26    27    1
    30    26    13    2
    31    29    34    1
    32    29    37    2
    33    30    47    1
    34    31    40    1
    35    32    45    1
    36    32    47    2
    37    33    49    2
    38    34    30    2
    39    35    33    1
    40    35    40    2
    41    37    32    1
    42    38    13    1
    43    38    50    1
    44    39    36    1
    45    39    38    1
    46    39    43    1
    47    40    29    1
    48    41    35    1
    49    43    42    1
    50    43    46    1
    51    46    28    1
    52    49    48    1
    53    49    34    1
    54    50    46    1
    55    50    44    1
