@<TRIPOS>MOLECULE
No_633-gen_results/8p0m/2024-11-27-11-27-31/
 32 33 0 0 0
SMALL
GASTEIGER

@<TRIPOS>ATOM
      1 C         -28.0162   -0.8135   28.8779 C.ar    1  UNL1        0.0023
      2 C         -28.4690   -0.7850   29.8287 C.ar    1  UNL1        0.0795
      3 C         -27.0871    0.2903   28.6377 C.ar    1  UNL1       -0.0217
      4 C         -26.8317    1.2487   29.5869 C.ar    1  UNL1       -0.0043
      5 C         -28.3914    0.0801   31.0065 C.ar    1  UNL1        0.0066
      6 C         -27.4940    1.1521   30.7841 C.ar    1  UNL1       -0.0001
      7 C         -26.3172    0.3994   27.3653 C.3     1  UNL1        0.0304
      8 C         -24.9405    0.2550   27.5028 C.3     1  UNL1        0.0264
      9 C         -26.9129    0.5860   26.1397 C.3     1  UNL1        0.0267
     10 C         -28.2688    0.7168   25.9850 C.ar    1  UNL1       -0.0220
     11 C         -28.7657    0.7315   24.6860 C.ar    1  UNL1       -0.0043
     12 C         -30.1595    0.8701   24.4627 C.ar    1  UNL1       -0.0001
     13 C         -30.9938    0.9584   25.5406 C.ar    1  UNL1        0.0066
     14 C         -30.5076    0.9507   26.8390 C.ar    1  UNL1        0.0795
     15 C         -29.1995    0.8714   27.0780 C.ar    1  UNL1        0.0023
     16 C         -26.0992    0.1327   25.0778 C.3     1  UNL1        0.0050
     17 C         -24.1006    1.2959   27.2322 C.2     1  UNL1       -0.0475
     18 C         -22.7211    1.3001   27.7198 C.2     1  UNL1       -0.0297
     19 C         -21.8518    2.3741   27.3800 C.3     1  UNL1        0.0304
     20 C         -24.4356    2.4689   26.4650 C.3     1  UNL1        0.0260
     21 C         -22.2616    0.1860   28.5502 C.2     1  UNL1       -0.0049
     22 C         -31.5486    1.1372   27.9283 C.2     1  UNL1        0.3877
     23 O         -31.9972    0.0753   28.4179 O.co2   1  UNL1       -0.2406
     24 O         -31.4619    2.2398   28.6638 O.co2   1  UNL1       -0.2406
     25 C         -29.5598   -1.9271   30.2655 C.2     1  UNL1        0.3877
     26 O         -29.5489   -2.8997   29.8385 O.co2   1  UNL1       -0.2406
     27 O         -30.2747   -1.6522   31.3947 O.co2   1  UNL1       -0.2406
     28 C         -23.0428   -0.3891   29.5748 C.2     1  UNL1       -0.0003
     29 C         -22.9737    0.1392   30.7954 C.2     1  UNL1       -0.0000
     30 C         -23.7194   -0.4876   31.8827 C.2     1  UNL1       -0.0000
     31 C         -24.6478   -1.5007   31.4215 C.2     1  UNL1       -0.0000
     32 C         -24.6652   -2.0016   30.1858 C.2     1  UNL1        0.0000
@<TRIPOS>BOND
     1     3     7    1
     2     7     8    1
     3     7     9    1
     4     9    10    1
     5     9    16    1
     6     8    17    1
     7    17    18    2
     8    18    19    1
     9    17    20    1
    10    18    21    1
    11    14    22    1
    12    22    23   ar
    13    22    24   ar
    14     2    25    1
    15    25    26   ar
    16    25    27   ar
    17    21    28    2
    18    28    29    1
    19    29    30    2
    20    30    31    1
    21    31    32    2
    22     1     2   ar
    23     2     5   ar
    24     5     6   ar
    25     6     4   ar
    26     4     3   ar
    27     3     1   ar
    28    10    11   ar
    29    11    12   ar
    30    12    13   ar
    31    13    14   ar
    32    14    15   ar
    33    15    10   ar
