@<TRIPOS>MOLECULE
outputs/IAG933/test6/raw/output_6331_IAG933_linker_design_.xyz
 41 44 0 0 0
SMALL
GASTEIGER

@<TRIPOS>ATOM
      1 C         -24.8550   -1.0120   30.1430 C.3     1  UNL1        0.1114
      2 C         -24.9730   -2.5050   29.7880 C.2     1  UNL1       -0.0051
      3 C         -23.9060   -3.1730   29.1460 C.2     1  UNL1       -0.0029
      4 C         -23.9890   -4.5490   28.8530 C.2     1  UNL1       -0.0003
      5 C         -25.1370   -5.2800   29.2050 C.2     1  UNL1       -0.0000
      6 C         -26.2320   -4.6110   29.7840 C.2     1  UNL1       -0.0003
      7 C         -26.1550   -3.2320   30.0650 C.2     1  UNL1       -0.0029
      8 C         -25.3870   -0.6790   31.5710 C.3     1  UNL1        0.1014
      9 C         -25.1890    0.7730   32.0280 C.3     1  UNL1        0.0958
     10 C         -25.3360    0.6840   33.5440 C.3     1  UNL1        0.0293
     11 C         -24.8290   -0.7150   33.9050 C.3     1  UNL1        0.0893
     12 N         -24.7580   -1.4810   32.6460 N.3     1  UNL1       -0.2172
     13 C         -25.6880    1.6140   26.4610 C.2     1  UNL1        0.0370
     14 C         -26.2500    2.9200   26.3950 C.2     1  UNL1        0.0742
     15 C         -25.6420    4.0930   27.1230 C.2     1  UNL1        0.2662
     16 N         -25.6140    5.2520   26.4490 N.am    1  UNL1       -0.1997
     17 C         -25.0260    6.4790   26.9630 C.3     1  UNL1        0.1388
     18 O         -25.1430    3.9660   28.2430 O.2     1  UNL1       -0.2683
     19 C         -27.4380    3.0910   25.6450 C.2     1  UNL1        0.1065
     20 N         -28.0750    2.0890   25.0030 N.2     1  UNL1       -0.2081
     21 C         -27.5430    0.8490   25.0790 C.2     1  UNL1        0.2530
     22 O         -28.1930   -0.2080   24.4770 O.2     1  UNL1       -0.4558
     23 C         -29.4600    0.0050   23.8660 C.3     1  UNL1        0.2426
     24 C         -30.0650   -1.3770   23.5730 C.3     1  UNL1        0.2292
     25 O         -30.7290   -1.8780   24.7210 O.3     1  UNL1       -0.2162
     26 C         -26.3540    0.5760   25.7770 C.2     1  UNL1        0.1908
     27 F         -25.8600   -0.6810   25.7950 F       1  UNL1       -0.1995
     28 C         -27.3348    2.8198   32.0562 C.3     1  UNL1        0.0935
     29 O         -21.8868    2.3031   26.3589 O.2     1  UNL1       -0.2474
     30 C         -24.9757    2.2138   31.6053 C.2     1  UNL1        0.2266
     31 N         -23.5861    1.9498   27.7888 N.am    1  UNL1       -0.1816
     32 N         -25.8969    3.1198   31.8926 N.am    1  UNL1       -0.2795
     33 O         -23.8749    2.5791   31.1593 O.2     1  UNL1       -0.2748
     34 C         -25.1520    0.0659   28.3042 C.3     1  UNL1        0.1153
     35 N         -24.4179   -0.0112   29.5295 N.3     1  UNL1       -0.2114
     36 C         -22.2947    1.7988   27.4041 C.2     1  UNL1        0.3592
     37 N         -21.4236    1.1500   28.2117 N.am    1  UNL1       -0.0679
     38 C         -28.0276    4.1968   32.2706 C.3     1  UNL1        0.0233
     39 C         -25.5848    4.4438   32.4042 C.3     1  UNL1        0.0935
     40 C         -26.9092    5.0849   32.8353 C.3     1  UNL1        0.0233
     41 C         -24.5759    1.1220   27.3445 C.3     1  UNL1        0.1390
@<TRIPOS>BOND
     1     1    35    1
     2     2     7    1
     3     2     1    1
     4     3     2    2
     5     4     3    1
     6     4     5    2
     7     5     6    1
     8     6     7    2
     9     8     1    1
    10     8     9    1
    11     8    12    1
    12     9    30    1
    13     9    10    1
    14    10    11    1
    15    12    11    1
    16    13    41    1
    17    14    13    1
    18    14    15    1
    19    15    18    2
    20    16    17    1
    21    16    15    1
    22    19    14    2
    23    20    21    2
    24    20    19    1
    25    21    26    1
    26    22    21    1
    27    23    22    1
    28    24    23    1
    29    24    25    1
    30    26    27    1
    31    26    13    2
    32    28    38    1
    33    29    36    2
    34    30    32   am
    35    32    28    1
    36    32    39    1
    37    33    30    2
    38    34    35    1
    39    36    31    1
    40    36    37    1
    41    38    40    1
    42    39    40    1
    43    41    31    1
    44    41    34    1
