@<TRIPOS>MOLECULE
outputs/IAG933/test6/raw/output_6332_IAG933_linker_design_.xyz
 46 50 0 0 0
SMALL
GASTEIGER

@<TRIPOS>ATOM
      1 C         -24.8550   -1.0120   30.1430 C.3     1  UNL1        0.0810
      2 C         -24.9730   -2.5050   29.7880 C.2     1  UNL1       -0.0173
      3 C         -23.9060   -3.1730   29.1460 C.2     1  UNL1       -0.0041
      4 C         -23.9890   -4.5490   28.8530 C.2     1  UNL1       -0.0003
      5 C         -25.1370   -5.2800   29.2050 C.2     1  UNL1       -0.0000
      6 C         -26.2320   -4.6110   29.7840 C.2     1  UNL1       -0.0003
      7 C         -26.1550   -3.2320   30.0650 C.2     1  UNL1       -0.0041
      8 C         -25.3870   -0.6790   31.5710 C.3     1  UNL1        0.0807
      9 C         -25.1890    0.7730   32.0280 C.3     1  UNL1        0.0193
     10 C         -25.3360    0.6840   33.5440 C.3     1  UNL1        0.0202
     11 C         -24.8290   -0.7150   33.9050 C.3     1  UNL1        0.0887
     12 N         -24.7580   -1.4810   32.6460 N.3     1  UNL1       -0.2190
     13 C         -25.6880    1.6140   26.4610 C.2     1  UNL1        0.0691
     14 C         -26.2500    2.9200   26.3950 C.2     1  UNL1        0.0772
     15 C         -25.6420    4.0930   27.1230 C.2     1  UNL1        0.2663
     16 N         -25.6140    5.2520   26.4490 N.am    1  UNL1       -0.1997
     17 C         -25.0260    6.4790   26.9630 C.3     1  UNL1        0.1388
     18 O         -25.1430    3.9660   28.2430 O.2     1  UNL1       -0.2683
     19 C         -27.4380    3.0910   25.6450 C.2     1  UNL1        0.1066
     20 N         -28.0750    2.0890   25.0030 N.2     1  UNL1       -0.2081
     21 C         -27.5430    0.8490   25.0790 C.2     1  UNL1        0.2531
     22 O         -28.1930   -0.2080   24.4770 O.2     1  UNL1       -0.4558
     23 C         -29.4600    0.0050   23.8660 C.3     1  UNL1        0.2426
     24 C         -30.0650   -1.3770   23.5730 C.3     1  UNL1        0.2292
     25 O         -30.7290   -1.8780   24.7210 O.3     1  UNL1       -0.2162
     26 C         -26.3540    0.5760   25.7770 C.2     1  UNL1        0.1937
     27 F         -25.8600   -0.6810   25.7950 F       1  UNL1       -0.1994
     28 S         -23.1850    2.1603   26.4808 S.3     1  UNL1       -0.0386
     29 C         -29.5700    3.0413   30.0772 C.2     1  UNL1        0.0254
     30 C         -27.9669    4.5480   30.9981 C.2     1  UNL1        0.0296
     31 N         -20.8771    1.6136   27.7313 N.pl3   1  UNL1       -0.1133
     32 C         -27.2063    2.4640   30.0519 C.2     1  UNL1       -0.0041
     33 F         -30.1985    5.2387   30.7481 F       1  UNL1       -0.2042
     34 N         -22.5597    0.1474   29.7460 N.pl3   1  UNL1        0.2118
     35 C         -26.8300   -0.1937   28.8799 C.3     1  UNL1        0.0473
     36 C         -29.0006    0.0555   27.6912 C.3     1  UNL1        0.0005
     37 C         -22.2648    1.3761   27.6916 C.2     1  UNL1        0.2025
     38 C         -29.2651    4.3061   30.6141 C.2     1  UNL1        0.1398
     39 C         -23.0702    0.7275   28.5735 C.2     1  UNL1        0.3878
     40 C         -28.2652   -0.3125   28.9507 C.3     1  UNL1        0.0083
     41 C         -24.5647    1.3510   27.0746 C.3     1  UNL1        0.2396
     42 C         -26.9447    3.6918   30.6660 C.2     1  UNL1        0.0020
     43 N         -24.3987    0.6171   28.2407 N.pl3   1  UNL1       -0.1811
     44 C         -28.8720    0.6477   29.9702 C.3     1  UNL1        0.0266
     45 C         -28.5492    2.0892   29.9512 C.2     1  UNL1       -0.0200
     46 C         -25.3678   -0.1123   29.0201 C.3     1  UNL1        0.1664
@<TRIPOS>BOND
     1     1    46    1
     2     2     7    1
     3     2     1    1
     4     3     2    2
     5     4     3    1
     6     4     5    2
     7     5     6    1
     8     6     7    2
     9     8     1    1
    10     8     9    1
    11     8    12    1
    12     9    10    1
    13    10    11    1
    14    12    11    1
    15    14    13    1
    16    14    15    1
    17    15    18    2
    18    16    17    1
    19    16    15    1
    20    19    14    2
    21    20    21    2
    22    20    19    1
    23    21    26    1
    24    22    21    1
    25    23    22    1
    26    24    23    1
    27    24    25    1
    28    26    27    1
    29    26    13    2
    30    28    41    1
    31    28    37    1
    32    29    38    1
    33    32    42    2
    34    35    40    1
    35    37    31    1
    36    37    39    2
    37    38    33    1
    38    38    30    2
    39    39    34    1
    40    40    36    1
    41    40    44    1
    42    41    13    1
    43    41    43    1
    44    42    30    1
    45    43    39    1
    46    43    46    1
    47    45    44    1
    48    45    32    1
    49    45    29    2
    50    46    35    1
