@<TRIPOS>MOLECULE
outputs/IAG933/test6/raw/output_6334_IAG933_linker_design_.xyz
 48 54 0 0 0
SMALL
GASTEIGER

@<TRIPOS>ATOM
      1 C         -24.8550   -1.0120   30.1430 C.3     1  UNL1        0.1238
      2 C         -24.9730   -2.5050   29.7880 C.2     1  UNL1       -0.0004
      3 C         -23.9060   -3.1730   29.1460 C.2     1  UNL1       -0.0024
      4 C         -23.9890   -4.5490   28.8530 C.2     1  UNL1       -0.0003
      5 C         -25.1370   -5.2800   29.2050 C.2     1  UNL1       -0.0000
      6 C         -26.2320   -4.6110   29.7840 C.2     1  UNL1       -0.0003
      7 C         -26.1550   -3.2320   30.0650 C.2     1  UNL1       -0.0024
      8 C         -25.3870   -0.6790   31.5710 C.3     1  UNL1        0.0976
      9 C         -25.1890    0.7730   32.0280 C.3     1  UNL1        0.0211
     10 C         -25.3360    0.6840   33.5440 C.3     1  UNL1        0.0203
     11 C         -24.8290   -0.7150   33.9050 C.3     1  UNL1        0.0888
     12 N         -24.7580   -1.4810   32.6460 N.3     1  UNL1       -0.2172
     13 C         -25.6880    1.6140   26.4610 C.3     1  UNL1        0.0936
     14 C         -26.2500    2.9200   26.3950 C.2     1  UNL1        0.0589
     15 C         -25.6420    4.0930   27.1230 C.2     1  UNL1        0.2628
     16 N         -25.6140    5.2520   26.4490 N.am    1  UNL1       -0.2000
     17 C         -25.0260    6.4790   26.9630 C.3     1  UNL1        0.1388
     18 O         -25.1430    3.9660   28.2430 O.2     1  UNL1       -0.2686
     19 C         -27.4380    3.0910   25.6450 C.2     1  UNL1        0.1025
     20 N         -28.0750    2.0890   25.0030 N.2     1  UNL1       -0.2118
     21 C         -27.5430    0.8490   25.0790 C.2     1  UNL1        0.2344
     22 O         -28.1930   -0.2080   24.4770 O.2     1  UNL1       -0.4585
     23 C         -29.4600    0.0050   23.8660 C.3     1  UNL1        0.2423
     24 C         -30.0650   -1.3770   23.5730 C.3     1  UNL1        0.2292
     25 O         -30.7290   -1.8780   24.7210 O.3     1  UNL1       -0.2162
     26 C         -26.3540    0.5760   25.7770 C.3     1  UNL1        0.2440
     27 F         -25.8600   -0.6810   25.7950 F       1  UNL1       -0.2265
     28 C         -25.0364    1.3407   27.6636 C.ar    1  UNL1        0.0014
     29 O         -28.5113   -1.1651   29.5192 O.3     1  UNL1       -0.2183
     30 O         -21.1806    1.7680   27.5064 O.2     1  UNL1       -0.4675
     31 N         -29.5564    2.8089   31.1706 N.3     1  UNL1       -0.1439
     32 C         -25.7718    0.6997   28.8110 C.ar    1  UNL1        0.0541
     33 C         -30.0618    1.1474   29.5832 C.3     1  UNL1        0.0261
     34 C         -27.7232    1.9184   30.0807 C.2     1  UNL1       -0.0100
     35 N         -28.5143    3.6274   31.2633 N.3     1  UNL1       -0.1995
     36 N         -24.7104   -0.0062   29.2106 N.ar    1  UNL1       -0.3243
     37 C         -30.1924    5.3582   32.1461 C.3     1  UNL1        0.0203
     38 C         -23.3466    0.3089   28.6679 C.ar    1  UNL1        0.0624
     39 C         -28.7039    4.9818   31.9116 C.3     1  UNL1        0.0905
     40 C         -22.4873    2.1098   27.3546 C.3     1  UNL1        0.2333
     41 C         -23.5785    1.3006   27.7966 C.ar    1  UNL1        0.0349
     42 C         -29.4037    0.6639   28.2751 C.3     1  UNL1        0.0393
     43 C         -28.1333   -0.1368   28.6409 C.3     1  UNL1        0.1751
     44 C         -22.0139   -0.1332   28.8538 C.2     1  UNL1        0.0570
     45 C         -29.1399    1.9991   30.3271 C.3     1  UNL1        0.1099
     46 C         -27.3410    3.1493   30.7127 C.3     1  UNL1        0.1133
     47 C         -27.1390    0.8181   29.2680 C.2     1  UNL1        0.0180
     48 C         -20.9800    0.6821   28.2616 C.2     1  UNL1        0.1742
@<TRIPOS>BOND
     1     1     2    1
     2     2     7    1
     3     3     2    2
     4     4     3    1
     5     4     5    2
     6     5     6    1
     7     6     7    2
     8     8     1    1
     9     8     9    1
    10     8    12    1
    11     9    10    1
    12    10    11    1
    13    12    11    1
    14    13    28    1
    15    14    13    1
    16    14    15    1
    17    15    18    2
    18    16    17    1
    19    16    15    1
    20    19    14    2
    21    20    21    2
    22    20    19    1
    23    21    26    1
    24    22    21    1
    25    23    22    1
    26    24    23    1
    27    24    25    1
    28    26    27    1
    29    26    13    1
    30    28    41   ar
    31    28    32   ar
    32    30    48    1
    33    31    35    1
    34    32    36   ar
    35    32    47    1
    36    34    45    1
    37    34    46    1
    38    35    39    1
    39    36     1    1
    40    38    44    1
    41    38    36   ar
    42    39    37    1
    43    40    30    1
    44    40    41    1
    45    41    38   ar
    46    42    43    1
    47    42    33    1
    48    43    47    1
    49    43    29    1
    50    45    33    1
    51    45    31    1
    52    46    35    1
    53    47    34    2
    54    48    44    2
