@<TRIPOS>MOLECULE
outputs/IAG933/test6/raw/output_6342_IAG933_linker_design_.xyz
 48 53 0 0 0
SMALL
GASTEIGER

@<TRIPOS>ATOM
      1 C         -24.8550   -1.0120   30.1430 C.3     1  UNL1        0.0967
      2 C         -24.9730   -2.5050   29.7880 C.2     1  UNL1       -0.0064
      3 C         -23.9060   -3.1730   29.1460 C.2     1  UNL1       -0.0029
      4 C         -23.9890   -4.5490   28.8530 C.2     1  UNL1       -0.0003
      5 C         -25.1370   -5.2800   29.2050 C.2     1  UNL1       -0.0000
      6 C         -26.2320   -4.6110   29.7840 C.2     1  UNL1       -0.0003
      7 C         -26.1550   -3.2320   30.0650 C.2     1  UNL1       -0.0029
      8 C         -25.3870   -0.6790   31.5710 C.3     1  UNL1        0.0916
      9 C         -25.1890    0.7730   32.0280 C.3     1  UNL1        0.0206
     10 C         -25.3360    0.6840   33.5440 C.3     1  UNL1        0.0203
     11 C         -24.8290   -0.7150   33.9050 C.3     1  UNL1        0.0888
     12 N         -24.7580   -1.4810   32.6460 N.3     1  UNL1       -0.2178
     13 C         -25.6880    1.6140   26.4610 C.2     1  UNL1        0.0388
     14 C         -26.2500    2.9200   26.3950 C.2     1  UNL1        0.0764
     15 C         -25.6420    4.0930   27.1230 C.2     1  UNL1        0.2664
     16 N         -25.6140    5.2520   26.4490 N.am    1  UNL1       -0.1997
     17 C         -25.0260    6.4790   26.9630 C.3     1  UNL1        0.1388
     18 O         -25.1430    3.9660   28.2430 O.2     1  UNL1       -0.2683
     19 C         -27.4380    3.0910   25.6450 C.2     1  UNL1        0.1067
     20 N         -28.0750    2.0890   25.0030 N.2     1  UNL1       -0.2081
     21 C         -27.5430    0.8490   25.0790 C.2     1  UNL1        0.2533
     22 O         -28.1930   -0.2080   24.4770 O.2     1  UNL1       -0.4558
     23 C         -29.4600    0.0050   23.8660 C.3     1  UNL1        0.2426
     24 C         -30.0650   -1.3770   23.5730 C.3     1  UNL1        0.2292
     25 O         -30.7290   -1.8780   24.7210 O.3     1  UNL1       -0.2162
     26 C         -26.3540    0.5760   25.7770 C.2     1  UNL1        0.1929
     27 F         -25.8600   -0.6810   25.7950 F       1  UNL1       -0.1992
     28 C         -24.4342    1.3378   27.2156 C.2     1  UNL1        0.0378
     29 C         -23.0252    0.0182   28.8777 C.2     1  UNL1       -0.0059
     30 N         -25.3938   -0.0876   29.1072 N.3     1  UNL1       -0.2632
     31 C         -28.4192    2.7702   33.6104 C.2     1  UNL1       -0.0003
     32 C         -24.2709    0.4739   28.3823 C.3     1  UNL1        0.1062
     33 C         -27.7793    2.6056   32.3669 C.2     1  UNL1       -0.0043
     34 C         -21.6291    0.2751   28.6483 C.2     1  UNL1       -0.0028
     35 C         -23.3310    1.9261   26.6580 C.2     1  UNL1        0.1934
     36 O         -29.2151    0.3636   28.1644 O.3     1  UNL1       -0.3510
     37 C         -29.8668   -0.3223   29.0900 C.3     1  UNL1        0.1715
     38 C         -29.7035    3.3797   33.6193 C.2     1  UNL1       -0.0000
     39 C         -26.8817    0.1486   28.7683 C.3     1  UNL1        0.0757
     40 C         -21.0289    1.2028   27.8077 C.2     1  UNL1        0.0030
     41 C         -29.5710    3.7597   31.1783 C.2     1  UNL1       -0.0043
     42 C         -28.3433    3.0408   31.1478 C.2     1  UNL1       -0.0221
     43 C         -27.5985    1.3365   29.4514 C.3     1  UNL1        0.0501
     44 C         -30.2648    3.8951   32.4016 C.2     1  UNL1       -0.0003
     45 O         -23.3254    2.6121   25.3894 O.2     1  UNL1       -0.2869
     46 C         -29.1103    0.8868   29.6772 C.3     1  UNL1        0.1464
     47 C         -21.8948    1.9918   26.9643 C.2     1  UNL1        0.0417
     48 C         -27.6460    2.8066   29.8572 C.3     1  UNL1        0.0302
@<TRIPOS>BOND
     1     1    30    1
     2     2     7    1
     3     2     1    1
     4     3     2    2
     5     4     3    1
     6     4     5    2
     7     5     6    1
     8     6     7    2
     9     8     1    1
    10     8     9    1
    11     8    12    1
    12     9    10    1
    13    10    11    1
    14    12    11    1
    15    13    28    1
    16    14    13    1
    17    14    15    1
    18    15    18    2
    19    16    17    1
    20    16    15    1
    21    19    14    2
    22    20    21    2
    23    20    19    1
    24    21    26    1
    25    22    21    1
    26    23    22    1
    27    24    23    1
    28    24    25    1
    29    26    27    1
    30    26    13    2
    31    28    32    1
    32    31    38    1
    33    32    29    1
    34    32    30    1
    35    33    31    2
    36    34    29    2
    37    35    47    1
    38    35    28    2
    39    36    37    1
    40    36    46    1
    41    37    46    1
    42    39    30    1
    43    40    34    1
    44    41    44    1
    45    42    41    2
    46    42    33    1
    47    43    39    1
    48    43    48    1
    49    44    38    2
    50    45    35    1
    51    46    43    1
    52    47    40    2
    53    48    42    1
