@<TRIPOS>MOLECULE
outputs/IAG933/test6/raw/output_6343_IAG933_linker_design_.xyz
 42 44 0 0 0
SMALL
GASTEIGER

@<TRIPOS>ATOM
      1 C         -24.8550   -1.0120   30.1430 C.3     1  UNL1        0.0557
      2 C         -24.9730   -2.5050   29.7880 C.2     1  UNL1       -0.0197
      3 C         -23.9060   -3.1730   29.1460 C.2     1  UNL1       -0.0042
      4 C         -23.9890   -4.5490   28.8530 C.2     1  UNL1       -0.0003
      5 C         -25.1370   -5.2800   29.2050 C.2     1  UNL1       -0.0000
      6 C         -26.2320   -4.6110   29.7840 C.2     1  UNL1       -0.0003
      7 C         -26.1550   -3.2320   30.0650 C.2     1  UNL1       -0.0042
      8 C         -25.3870   -0.6790   31.5710 C.3     1  UNL1        0.0782
      9 C         -25.1890    0.7730   32.0280 C.3     1  UNL1        0.0192
     10 C         -25.3360    0.6840   33.5440 C.3     1  UNL1        0.0202
     11 C         -24.8290   -0.7150   33.9050 C.3     1  UNL1        0.0887
     12 N         -24.7580   -1.4810   32.6460 N.3     1  UNL1       -0.2191
     13 C         -25.6880    1.6140   26.4610 C.3     1  UNL1        0.1426
     14 C         -26.2500    2.9200   26.3950 C.2     1  UNL1        0.0709
     15 C         -25.6420    4.0930   27.1230 C.2     1  UNL1        0.2638
     16 N         -25.6140    5.2520   26.4490 N.am    1  UNL1       -0.2000
     17 C         -25.0260    6.4790   26.9630 C.3     1  UNL1        0.1388
     18 O         -25.1430    3.9660   28.2430 O.2     1  UNL1       -0.2686
     19 C         -27.4380    3.0910   25.6450 C.2     1  UNL1        0.1035
     20 N         -28.0750    2.0890   25.0030 N.2     1  UNL1       -0.2118
     21 C         -27.5430    0.8490   25.0790 C.2     1  UNL1        0.2356
     22 O         -28.1930   -0.2080   24.4770 O.2     1  UNL1       -0.4585
     23 C         -29.4600    0.0050   23.8660 C.3     1  UNL1        0.2423
     24 C         -30.0650   -1.3770   23.5730 C.3     1  UNL1        0.2292
     25 O         -30.7290   -1.8780   24.7210 O.3     1  UNL1       -0.2162
     26 C         -26.3540    0.5760   25.7770 C.3     1  UNL1        0.2559
     27 F         -25.8600   -0.6810   25.7950 F       1  UNL1       -0.2253
     28 O         -22.5510   -0.4777   29.3579 O.2     1  UNL1       -0.2799
     29 C         -28.3450   -0.0608   29.3686 C.2     1  UNL1        0.1525
     30 N         -25.6191    0.5730   28.1530 N.3     1  UNL1       -0.2168
     31 C         -22.5709    0.5710   28.4076 C.2     1  UNL1        0.2741
     32 O         -28.0845   -1.1224   28.8742 O.2     1  UNL1       -0.2960
     33 C         -23.7866    1.1063   27.2019 C.3     1  UNL1        0.1301
     34 C         -22.5392    1.5835   26.9653 C.3     1  UNL1        0.2336
     35 O         -21.9752    2.4448   26.0065 O.3     1  UNL1       -0.2131
     36 C         -27.6475    1.2486   29.3565 C.3     1  UNL1        0.0833
     37 C         -26.1975    1.1754   28.8658 C.3     1  UNL1        0.0965
     38 O         -20.3040    0.9939   27.8579 O.2     1  UNL1       -0.2851
     39 C         -29.6363    0.1680   30.1466 C.3     1  UNL1        0.0723
     40 C         -21.6779    1.0293   27.8291 C.2     1  UNL1        0.2465
     41 N         -24.8925    1.1955   27.3042 N.3     1  UNL1       -0.2088
     42 C         -25.3475   -0.2206   29.1601 C.3     1  UNL1        0.0944
@<TRIPOS>BOND
     1     1    42    1
     2     2     7    1
     3     2     1    1
     4     3     2    2
     5     4     3    1
     6     4     5    2
     7     5     6    1
     8     6     7    2
     9     8     1    1
    10     8     9    1
    11     8    12    1
    12     9    10    1
    13    10    11    1
    14    12    11    1
    15    13    41    1
    16    14    13    1
    17    14    15    1
    18    15    18    2
    19    16    17    1
    20    16    15    1
    21    19    14    2
    22    20    21    2
    23    20    19    1
    24    21    26    1
    25    22    21    1
    26    23    22    1
    27    24    23    1
    28    24    25    1
    29    26    27    1
    30    26    13    1
    31    29    39    1
    32    30    37    1
    33    30    42    1
    34    31    28    1
    35    32    29    2
    36    33    41    1
    37    34    35    1
    38    34    33    1
    39    34    40    1
    40    36    29    1
    41    37    36    1
    42    40    38    1
    43    40    31    2
    44    41    30    1
