@<TRIPOS>MOLECULE
outputs/IAG933/test6/raw/output_6347_IAG933_linker_design_.xyz
 43 45 0 0 0
SMALL
GASTEIGER

@<TRIPOS>ATOM
      1 C         -24.8550   -1.0120   30.1430 C.3     1  UNL1        0.0557
      2 C         -24.9730   -2.5050   29.7880 C.2     1  UNL1       -0.0197
      3 C         -23.9060   -3.1730   29.1460 C.2     1  UNL1       -0.0042
      4 C         -23.9890   -4.5490   28.8530 C.2     1  UNL1       -0.0003
      5 C         -25.1370   -5.2800   29.2050 C.2     1  UNL1       -0.0000
      6 C         -26.2320   -4.6110   29.7840 C.2     1  UNL1       -0.0003
      7 C         -26.1550   -3.2320   30.0650 C.2     1  UNL1       -0.0042
      8 C         -25.3870   -0.6790   31.5710 C.3     1  UNL1        0.0782
      9 C         -25.1890    0.7730   32.0280 C.3     1  UNL1        0.0192
     10 C         -25.3360    0.6840   33.5440 C.3     1  UNL1        0.0202
     11 C         -24.8290   -0.7150   33.9050 C.3     1  UNL1        0.0887
     12 N         -24.7580   -1.4810   32.6460 N.3     1  UNL1       -0.2191
     13 C         -25.6880    1.6140   26.4610 C.3     1  UNL1        0.0875
     14 C         -26.2500    2.9200   26.3950 C.2     1  UNL1        0.0562
     15 C         -25.6420    4.0930   27.1230 C.2     1  UNL1        0.2625
     16 N         -25.6140    5.2520   26.4490 N.am    1  UNL1       -0.2000
     17 C         -25.0260    6.4790   26.9630 C.3     1  UNL1        0.1388
     18 O         -25.1430    3.9660   28.2430 O.2     1  UNL1       -0.2687
     19 C         -27.4380    3.0910   25.6450 C.2     1  UNL1        0.1022
     20 N         -28.0750    2.0890   25.0030 N.2     1  UNL1       -0.2119
     21 C         -27.5430    0.8490   25.0790 C.2     1  UNL1        0.2341
     22 O         -28.1930   -0.2080   24.4770 O.2     1  UNL1       -0.4585
     23 C         -29.4600    0.0050   23.8660 C.3     1  UNL1        0.2423
     24 C         -30.0650   -1.3770   23.5730 C.3     1  UNL1        0.2292
     25 O         -30.7290   -1.8780   24.7210 O.3     1  UNL1       -0.2162
     26 C         -26.3540    0.5760   25.7770 C.3     1  UNL1        0.2414
     27 F         -25.8600   -0.6810   25.7950 F       1  UNL1       -0.2268
     28 C         -29.1791   -0.6817   29.4888 C.3     1  UNL1        0.0213
     29 C         -25.0427    1.2356   27.9105 C.3     1  UNL1        0.0965
     30 C         -21.8939    1.0467   28.7131 C.3     1  UNL1        0.2006
     31 N         -23.7022    0.5607   27.6484 N.3     1  UNL1       -0.2150
     32 N         -26.8719    0.4344   29.2619 N.3     1  UNL1       -0.2177
     33 C         -30.2441    0.4486   29.5702 C.3     1  UNL1        0.0319
     34 C         -31.4198   -0.0792   28.6933 C.3     1  UNL1        0.1268
     35 C         -25.5326   -0.0980   28.9292 C.3     1  UNL1        0.0944
     36 C         -31.8728   -1.3851   29.4591 C.3     1  UNL1        0.0329
     37 CL        -23.2112    1.8023   24.9569 Cl      1  UNL1       -0.1121
     38 O         -22.3658    0.0084   29.5122 O.3     1  UNL1       -0.2188
     39 O         -31.0533   -0.5097   27.3613 O.3     1  UNL1       -0.2257
     40 CA        -22.6961    1.1474   27.5106 C.3     1  UNL1        0.1219
     41 C         -22.4857    2.0792   26.4611 C.3     1  UNL1        0.1148
     42 C         -28.0029   -0.2442   28.5671 C.3     1  UNL1        0.0888
     43 C         -32.6546    0.8639   28.5449 C.3     1  UNL1        0.0329
@<TRIPOS>BOND
     1     1    35    1
     2     2     7    1
     3     2     1    1
     4     3     2    2
     5     4     3    1
     6     4     5    2
     7     5     6    1
     8     6     7    2
     9     8     1    1
    10     8     9    1
    11     8    12    1
    12     9    10    1
    13    10    11    1
    14    12    11    1
    15    13    29    1
    16    14    13    1
    17    14    15    1
    18    15    18    2
    19    16    17    1
    20    16    15    1
    21    19    14    2
    22    20    21    2
    23    20    19    1
    24    21    26    1
    25    22    21    1
    26    23    22    1
    27    24    23    1
    28    24    25    1
    29    26    27    1
    30    26    13    1
    31    28    33    1
    32    29    31    1
    33    29    35    1
    34    30    38    1
    35    34    36    1
    36    34    33    1
    37    35    32    1
    38    37    41    1
    39    39    34    1
    40    40    41    1
    41    40    31    1
    42    40    30    1
    43    42    32    1
    44    42    28    1
    45    43    34    1
