@<TRIPOS>MOLECULE
outputs/IAG933/test6/raw/output_6349_IAG933_linker_design_.xyz
 45 49 0 0 0
SMALL
GASTEIGER

@<TRIPOS>ATOM
      1 C         -24.8550   -1.0120   30.1430 C.3     1  UNL1        0.0441
      2 C         -24.9730   -2.5050   29.7880 C.2     1  UNL1       -0.0208
      3 C         -23.9060   -3.1730   29.1460 C.2     1  UNL1       -0.0042
      4 C         -23.9890   -4.5490   28.8530 C.2     1  UNL1       -0.0003
      5 C         -25.1370   -5.2800   29.2050 C.2     1  UNL1       -0.0000
      6 C         -26.2320   -4.6110   29.7840 C.2     1  UNL1       -0.0003
      7 C         -26.1550   -3.2320   30.0650 C.2     1  UNL1       -0.0042
      8 C         -25.3870   -0.6790   31.5710 C.3     1  UNL1        0.0830
      9 C         -25.1890    0.7730   32.0280 C.3     1  UNL1        0.0626
     10 C         -25.3360    0.6840   33.5440 C.3     1  UNL1        0.0265
     11 C         -24.8290   -0.7150   33.9050 C.3     1  UNL1        0.0891
     12 N         -24.7580   -1.4810   32.6460 N.3     1  UNL1       -0.2187
     13 C         -25.6880    1.6140   26.4610 C.3     1  UNL1        0.0788
     14 C         -26.2500    2.9200   26.3950 C.2     1  UNL1        0.0555
     15 C         -25.6420    4.0930   27.1230 C.2     1  UNL1        0.2625
     16 N         -25.6140    5.2520   26.4490 N.am    1  UNL1       -0.2000
     17 C         -25.0260    6.4790   26.9630 C.3     1  UNL1        0.1388
     18 O         -25.1430    3.9660   28.2430 O.2     1  UNL1       -0.2687
     19 C         -27.4380    3.0910   25.6450 C.2     1  UNL1        0.1022
     20 N         -28.0750    2.0890   25.0030 N.2     1  UNL1       -0.2119
     21 C         -27.5430    0.8490   25.0790 C.2     1  UNL1        0.2341
     22 O         -28.1930   -0.2080   24.4770 O.2     1  UNL1       -0.4585
     23 C         -29.4600    0.0050   23.8660 C.3     1  UNL1        0.2423
     24 C         -30.0650   -1.3770   23.5730 C.3     1  UNL1        0.2292
     25 O         -30.7290   -1.8780   24.7210 O.3     1  UNL1       -0.2162
     26 C         -26.3540    0.5760   25.7770 C.3     1  UNL1        0.2406
     27 F         -25.8600   -0.6810   25.7950 F       1  UNL1       -0.2269
     28 O         -26.4645    7.1293   34.4656 O.co2   1  UNL1       -0.2456
     29 C         -24.3004    1.6547   26.9526 C.3     1  UNL1        0.0588
     30 C         -22.4107    1.4538   28.5581 C.2     1  UNL1        0.0037
     31 C         -22.0077    2.0404   26.2034 C.2     1  UNL1       -0.0042
     32 C         -25.2546    1.8507   31.0354 C.2     1  UNL1        0.0802
     33 C         -23.3759    1.9799   25.9166 C.2     1  UNL1       -0.0210
     34 C         -25.6374    6.6336   32.3687 C.3     1  UNL1        0.1331
     35 C         -24.6600    1.6630   29.6174 C.1     1  UNL1       -0.0939
     36 C         -25.8736    7.6466   33.4974 C.2     1  UNL1        0.3668
     37 O         -26.8257    4.9239   31.1101 O.3     1  UNL1       -0.3358
     38 O         -25.3420    8.7397   33.4212 O.co2   1  UNL1       -0.2456
     39 N         -25.8881    2.9134   31.2400 N.pl3   1  UNL1       -0.2073
     40 C         -25.6221    4.2305   31.3899 C.3     1  UNL1        0.2085
     41 C         -21.4952    1.7293   27.4996 C.2     1  UNL1       -0.0000
     42 C         -26.7190    6.2759   31.5018 C.3     1  UNL1        0.1553
     43 C         -24.4492    4.4843   32.2303 C.3     1  UNL1        0.0531
     44 C         -24.5923    5.7317   33.0892 C.3     1  UNL1        0.0182
     45 C         -23.7680    1.5467   28.3124 C.2     1  UNL1        0.0172
@<TRIPOS>BOND
     1     2     7    1
     2     2     1    1
     3     3     2    2
     4     4     3    1
     5     4     5    2
     6     5     6    1
     7     6     7    2
     8     8     1    1
     9     8     9    1
    10     8    12    1
    11     9    32    1
    12     9    10    1
    13    10    11    1
    14    12    11    1
    15    13    14    1
    16    13    29    1
    17    14    15    1
    18    15    18    2
    19    16    17    1
    20    16    15    1
    21    19    14    2
    22    20    21    2
    23    20    19    1
    24    21    26    1
    25    22    21    1
    26    23    22    1
    27    24    23    1
    28    24    25    1
    29    26    27    1
    30    26    13    1
    31    29    33    1
    32    29    45    1
    33    31    41    1
    34    32    39    1
    35    33    31    2
    36    34    44    1
    37    34    36    1
    38    35    32    2
    39    36    28   ar
    40    37    40    1
    41    37    42    1
    42    38    36   ar
    43    40    39    1
    44    40    43    1
    45    41    30    2
    46    42    34    1
    47    43    44    1
    48    45    30    1
    49    45    35    2
