@<TRIPOS>MOLECULE
outputs/IAG933/test6/raw/output_6350_IAG933_linker_design_.xyz
 41 45 0 0 0
SMALL
GASTEIGER

@<TRIPOS>ATOM
      1 C         -24.8550   -1.0120   30.1430 C.2     1  UNL1        0.0299
      2 C         -24.9730   -2.5050   29.7880 C.2     1  UNL1        0.0044
      3 C         -23.9060   -3.1730   29.1460 C.2     1  UNL1        0.0003
      4 C         -23.9890   -4.5490   28.8530 C.2     1  UNL1        0.0000
      5 C         -25.1370   -5.2800   29.2050 C.2     1  UNL1        0.0000
      6 C         -26.2320   -4.6110   29.7840 C.2     1  UNL1        0.0000
      7 C         -26.1550   -3.2320   30.0650 C.2     1  UNL1        0.0003
      8 C         -25.3870   -0.6790   31.5710 C.3     1  UNL1        0.1098
      9 C         -25.1890    0.7730   32.0280 C.3     1  UNL1        0.0899
     10 C         -25.3360    0.6840   33.5440 C.3     1  UNL1        0.0289
     11 C         -24.8290   -0.7150   33.9050 C.3     1  UNL1        0.0896
     12 N         -24.7580   -1.4810   32.6460 N.3     1  UNL1       -0.2140
     13 C         -25.6880    1.6140   26.4610 C.2     1  UNL1        0.0402
     14 C         -26.2500    2.9200   26.3950 C.2     1  UNL1        0.0766
     15 C         -25.6420    4.0930   27.1230 C.2     1  UNL1        0.2664
     16 N         -25.6140    5.2520   26.4490 N.am    1  UNL1       -0.1997
     17 C         -25.0260    6.4790   26.9630 C.3     1  UNL1        0.1388
     18 O         -25.1430    3.9660   28.2430 O.2     1  UNL1       -0.2683
     19 C         -27.4380    3.0910   25.6450 C.2     1  UNL1        0.1067
     20 N         -28.0750    2.0890   25.0030 N.2     1  UNL1       -0.2081
     21 C         -27.5430    0.8490   25.0790 C.2     1  UNL1        0.2533
     22 O         -28.1930   -0.2080   24.4770 O.2     1  UNL1       -0.4558
     23 C         -29.4600    0.0050   23.8660 C.3     1  UNL1        0.2426
     24 C         -30.0650   -1.3770   23.5730 C.3     1  UNL1        0.2292
     25 O         -30.7290   -1.8780   24.7210 O.3     1  UNL1       -0.2162
     26 C         -26.3540    0.5760   25.7770 C.2     1  UNL1        0.1931
     27 F         -25.8600   -0.6810   25.7950 F       1  UNL1       -0.1992
     28 C         -24.6519   -0.3089   29.1258 C.1     1  UNL1       -0.0844
     29 C         -23.1730    1.8242   26.3601 C.2     1  UNL1        0.0039
     30 C         -22.0155    1.2840   28.4122 C.2     1  UNL1        0.1178
     31 O         -25.4432    5.1224   33.1146 O.2     1  UNL1       -0.2812
     32 O         -23.9693    1.8419   30.0734 O.2     1  UNL1       -0.3673
     33 C         -25.0642    3.1500   31.7778 C.1     1  UNL1       -0.0284
     34 C         -21.9971    1.6996   27.0903 C.2     1  UNL1        0.0222
     35 N         -27.5311    3.7665   30.7654 N.3     1  UNL1       -0.1218
     36 C         -24.2803    0.8507   28.2521 C.2     1  UNL1        0.1322
     37 C         -24.3940    1.3717   27.0177 C.2     1  UNL1        0.0289
     38 C         -25.8864    4.2866   32.2055 C.2     1  UNL1        0.2293
     39 C         -24.4191    1.9469   31.3571 C.2     1  UNL1        0.1891
     40 N         -23.3858    0.9620   29.0546 N.3     1  UNL1       -0.1650
     41 C         -27.2124    4.5123   31.7640 C.3     1  UNL1        0.1863
@<TRIPOS>BOND
     1     2     7    1
     2     2     1    1
     3     3     2    2
     4     4     3    1
     5     4     5    2
     6     5     6    1
     7     6     7    2
     8     8     1    1
     9     8     9    1
    10     8    12    1
    11     9    10    1
    12    10    11    1
    13    12    11    1
    14    13    37    1
    15    14    13    1
    16    14    15    1
    17    15    18    2
    18    16    17    1
    19    16    15    1
    20    19    14    2
    21    20    21    2
    22    20    19    1
    23    21    26    1
    24    22    21    1
    25    23    22    1
    26    24    23    1
    27    24    25    1
    28    26    27    1
    29    26    13    2
    30    28     1    2
    31    29    37    2
    32    29    34    1
    33    30    40    1
    34    32    39    1
    35    33    38    2
    36    34    30    2
    37    35    41    1
    38    36    40    1
    39    36    28    2
    40    37    36    1
    41    38    31    1
    42    39    33    2
    43    39     9    1
    44    40    32    1
    45    41    38    1
