@<TRIPOS>MOLECULE
outputs/IAG933/test6/raw/output_6353_IAG933_linker_design_.xyz
 40 44 0 0 0
SMALL
GASTEIGER

@<TRIPOS>ATOM
      1 C         -24.8550   -1.0120   30.1430 C.3     1  UNL1        0.1113
      2 C         -24.9730   -2.5050   29.7880 C.2     1  UNL1       -0.0030
      3 C         -23.9060   -3.1730   29.1460 C.2     1  UNL1       -0.0026
      4 C         -23.9890   -4.5490   28.8530 C.2     1  UNL1       -0.0003
      5 C         -25.1370   -5.2800   29.2050 C.2     1  UNL1       -0.0000
      6 C         -26.2320   -4.6110   29.7840 C.2     1  UNL1       -0.0003
      7 C         -26.1550   -3.2320   30.0650 C.2     1  UNL1       -0.0026
      8 C         -25.3870   -0.6790   31.5710 C.3     1  UNL1        0.0950
      9 C         -25.1890    0.7730   32.0280 C.3     1  UNL1        0.0209
     10 C         -25.3360    0.6840   33.5440 C.3     1  UNL1        0.0203
     11 C         -24.8290   -0.7150   33.9050 C.3     1  UNL1        0.0888
     12 N         -24.7580   -1.4810   32.6460 N.3     1  UNL1       -0.2174
     13 C         -25.6880    1.6140   26.4610 C.3     1  UNL1        0.0759
     14 C         -26.2500    2.9200   26.3950 C.2     1  UNL1        0.0552
     15 C         -25.6420    4.0930   27.1230 C.2     1  UNL1        0.2625
     16 N         -25.6140    5.2520   26.4490 N.am    1  UNL1       -0.2000
     17 C         -25.0260    6.4790   26.9630 C.3     1  UNL1        0.1388
     18 O         -25.1430    3.9660   28.2430 O.2     1  UNL1       -0.2687
     19 C         -27.4380    3.0910   25.6450 C.2     1  UNL1        0.1021
     20 N         -28.0750    2.0890   25.0030 N.2     1  UNL1       -0.2119
     21 C         -27.5430    0.8490   25.0790 C.2     1  UNL1        0.2341
     22 O         -28.1930   -0.2080   24.4770 O.2     1  UNL1       -0.4585
     23 C         -29.4600    0.0050   23.8660 C.3     1  UNL1        0.2423
     24 C         -30.0650   -1.3770   23.5730 C.3     1  UNL1        0.2292
     25 O         -30.7290   -1.8780   24.7210 O.3     1  UNL1       -0.2162
     26 C         -26.3540    0.5760   25.7770 C.3     1  UNL1        0.2404
     27 F         -25.8600   -0.6810   25.7950 F       1  UNL1       -0.2269
     28 C         -22.6302    1.5039   27.1490 C.2     1  UNL1        0.1044
     29 C         -21.2006    0.5011   28.8501 C.2     1  UNL1        0.0311
     30 C         -21.3734    1.3732   27.7806 C.2     1  UNL1        0.1462
     31 F         -20.3254    2.1017   27.4343 F       1  UNL1       -0.2040
     32 N         -24.7371   -0.0906   29.3304 N.pl3   1  UNL1       -0.3040
     33 O         -23.2242    1.4116   24.9018 O.co2   1  UNL1       -0.2405
     34 C         -23.5239    0.1970   28.9089 C.2     1  UNL1        0.0444
     35 C         -24.9888    1.2095   27.6425 C.3     1  UNL1        0.0510
     36 C         -22.2921   -0.0935   29.4270 C.2     1  UNL1        0.0165
     37 C         -25.7189    0.6836   28.7327 C.3     1  UNL1        0.0958
     38 O         -23.1757    3.2657   25.7926 O.co2   1  UNL1       -0.2405
     39 C         -23.6907    0.9846   27.8600 C.2     1  UNL1        0.0015
     40 C         -22.9720    2.0854   25.8578 C.2     1  UNL1        0.3897
@<TRIPOS>BOND
     1     1     2    1
     2     2     7    1
     3     3     2    2
     4     4     3    1
     5     4     5    2
     6     5     6    1
     7     6     7    2
     8     8     1    1
     9     8     9    1
    10     8    12    1
    11     9    10    1
    12    10    11    1
    13    12    11    1
    14    13    14    1
    15    13    35    1
    16    14    15    1
    17    15    18    2
    18    16    17    1
    19    16    15    1
    20    19    14    2
    21    20    21    2
    22    20    19    1
    23    21    26    1
    24    22    21    1
    25    23    22    1
    26    24    23    1
    27    24    25    1
    28    26    27    1
    29    26    13    1
    30    28    30    2
    31    28    39    1
    32    29    36    2
    33    30    29    1
    34    31    30    1
    35    32     1    1
    36    33    40   ar
    37    34    32    1
    38    34    36    1
    39    35    39    1
    40    35    37    1
    41    37    32    1
    42    38    40   ar
    43    39    34    2
    44    40    28    1
