@<TRIPOS>MOLECULE
outputs/IAG933/test6/raw/output_6356_IAG933_linker_design_.xyz
 41 44 0 0 0
SMALL
GASTEIGER

@<TRIPOS>ATOM
      1 C         -24.8550   -1.0120   30.1430 C.3     1  UNL1        0.1180
      2 C         -24.9730   -2.5050   29.7880 C.2     1  UNL1       -0.0026
      3 C         -23.9060   -3.1730   29.1460 C.2     1  UNL1       -0.0026
      4 C         -23.9890   -4.5490   28.8530 C.2     1  UNL1       -0.0003
      5 C         -25.1370   -5.2800   29.2050 C.2     1  UNL1       -0.0000
      6 C         -26.2320   -4.6110   29.7840 C.2     1  UNL1       -0.0003
      7 C         -26.1550   -3.2320   30.0650 C.2     1  UNL1       -0.0026
      8 C         -25.3870   -0.6790   31.5710 C.3     1  UNL1        0.0955
      9 C         -25.1890    0.7730   32.0280 C.3     1  UNL1        0.0209
     10 C         -25.3360    0.6840   33.5440 C.3     1  UNL1        0.0203
     11 C         -24.8290   -0.7150   33.9050 C.3     1  UNL1        0.0888
     12 N         -24.7580   -1.4810   32.6460 N.3     1  UNL1       -0.2174
     13 C         -25.6880    1.6140   26.4610 C.2     1  UNL1        0.0400
     14 C         -26.2500    2.9200   26.3950 C.2     1  UNL1        0.0764
     15 C         -25.6420    4.0930   27.1230 C.2     1  UNL1        0.2664
     16 N         -25.6140    5.2520   26.4490 N.am    1  UNL1       -0.1997
     17 C         -25.0260    6.4790   26.9630 C.3     1  UNL1        0.1388
     18 O         -25.1430    3.9660   28.2430 O.2     1  UNL1       -0.2683
     19 C         -27.4380    3.0910   25.6450 C.2     1  UNL1        0.1067
     20 N         -28.0750    2.0890   25.0030 N.2     1  UNL1       -0.2081
     21 C         -27.5430    0.8490   25.0790 C.2     1  UNL1        0.2533
     22 O         -28.1930   -0.2080   24.4770 O.2     1  UNL1       -0.4558
     23 C         -29.4600    0.0050   23.8660 C.3     1  UNL1        0.2426
     24 C         -30.0650   -1.3770   23.5730 C.3     1  UNL1        0.2292
     25 O         -30.7290   -1.8780   24.7210 O.3     1  UNL1       -0.2162
     26 C         -26.3540    0.5760   25.7770 C.2     1  UNL1        0.1929
     27 F         -25.8600   -0.6810   25.7950 F       1  UNL1       -0.1992
     28 C         -24.3183    1.4320   26.9700 C.2     1  UNL1        0.0509
     29 C         -23.1920    2.0586   26.4057 C.3     1  UNL1        0.2696
     30 C         -26.5910    0.2161   28.8759 C.2     1  UNL1        0.2323
     31 O         -27.3403   -0.4642   28.1627 O.2     1  UNL1       -0.2744
     32 O         -21.9235    1.9695   26.8986 O.2     1  UNL1       -0.4548
     33 CL        -23.2487    3.0451   24.9869 Cl      1  UNL1       -0.0633
     34 C         -27.2281    1.2366   29.8422 C.3     1  UNL1        0.1211
     35 C         -22.7493    0.6401   28.7379 C.2     1  UNL1        0.1394
     36 N         -25.2058   -0.0346   29.0231 N.am    1  UNL1       -0.2536
     37 C         -28.6155    1.5829   29.2393 C.3     1  UNL1        0.1917
     38 O         -28.8032    2.8992   29.7035 O.3     1  UNL1       -0.2199
     39 C         -21.6407    1.1714   27.9685 C.2     1  UNL1        0.1933
     40 N         -22.3778   -0.0318   30.0217 N.pl3   1  UNL1       -0.1235
     41 C         -24.1422    0.6354   28.2413 C.2     1  UNL1        0.0746
@<TRIPOS>BOND
     1     1    36    1
     2     2     7    1
     3     2     1    1
     4     3     2    2
     5     4     3    1
     6     4     5    2
     7     5     6    1
     8     6     7    2
     9     8     1    1
    10     8     9    1
    11     8    12    1
    12     9    10    1
    13    10    11    1
    14    12    11    1
    15    13    28    1
    16    14    13    1
    17    14    15    1
    18    15    18    2
    19    16    17    1
    20    16    15    1
    21    19    14    2
    22    20    21    2
    23    20    19    1
    24    21    26    1
    25    22    21    1
    26    23    22    1
    27    24    23    1
    28    24    25    1
    29    26    27    1
    30    26    13    2
    31    28    41    2
    32    29    33    1
    33    29    32    1
    34    29    28    1
    35    30    36   am
    36    30    34    1
    37    31    30    2
    38    32    39    1
    39    35    40    1
    40    37    38    1
    41    37    34    1
    42    39    35    2
    43    41    35    1
    44    41    36    1
