@<TRIPOS>MOLECULE
outputs/IAG933/test6/raw/output_6357_IAG933_linker_design_.xyz
 45 49 0 0 0
SMALL
GASTEIGER

@<TRIPOS>ATOM
      1 C         -24.8550   -1.0120   30.1430 C.3     1  UNL1        0.1155
      2 C         -24.9730   -2.5050   29.7880 C.2     1  UNL1       -0.0027
      3 C         -23.9060   -3.1730   29.1460 C.2     1  UNL1       -0.0026
      4 C         -23.9890   -4.5490   28.8530 C.2     1  UNL1       -0.0003
      5 C         -25.1370   -5.2800   29.2050 C.2     1  UNL1       -0.0000
      6 C         -26.2320   -4.6110   29.7840 C.2     1  UNL1       -0.0003
      7 C         -26.1550   -3.2320   30.0650 C.2     1  UNL1       -0.0026
      8 C         -25.3870   -0.6790   31.5710 C.3     1  UNL1        0.0954
      9 C         -25.1890    0.7730   32.0280 C.3     1  UNL1        0.0233
     10 C         -25.3360    0.6840   33.5440 C.3     1  UNL1        0.0204
     11 C         -24.8290   -0.7150   33.9050 C.3     1  UNL1        0.0888
     12 N         -24.7580   -1.4810   32.6460 N.3     1  UNL1       -0.2174
     13 C         -25.6880    1.6140   26.4610 C.2     1  UNL1        0.0402
     14 C         -26.2500    2.9200   26.3950 C.2     1  UNL1        0.0766
     15 C         -25.6420    4.0930   27.1230 C.2     1  UNL1        0.2664
     16 N         -25.6140    5.2520   26.4490 N.am    1  UNL1       -0.1997
     17 C         -25.0260    6.4790   26.9630 C.3     1  UNL1        0.1388
     18 O         -25.1430    3.9660   28.2430 O.2     1  UNL1       -0.2683
     19 C         -27.4380    3.0910   25.6450 C.2     1  UNL1        0.1067
     20 N         -28.0750    2.0890   25.0030 N.2     1  UNL1       -0.2081
     21 C         -27.5430    0.8490   25.0790 C.2     1  UNL1        0.2533
     22 O         -28.1930   -0.2080   24.4770 O.2     1  UNL1       -0.4558
     23 C         -29.4600    0.0050   23.8660 C.3     1  UNL1        0.2426
     24 C         -30.0650   -1.3770   23.5730 C.3     1  UNL1        0.2292
     25 O         -30.7290   -1.8780   24.7210 O.3     1  UNL1       -0.2162
     26 C         -26.3540    0.5760   25.7770 C.2     1  UNL1        0.1931
     27 F         -25.8600   -0.6810   25.7950 F       1  UNL1       -0.1992
     28 C         -28.4583    4.8767   30.1179 C.3     1  UNL1        0.0188
     29 C         -24.7192    0.2368   28.2120 C.2     1  UNL1        0.0666
     30 C         -24.7866    1.9010   31.0935 C.3     1  UNL1        0.0483
     31 C         -25.1581    4.9871   33.3928 C.3     1  UNL1        0.1757
     32 C         -23.2428    1.6662   26.5700 C.2     1  UNL1        0.0864
     33 C         -25.4175    3.2085   31.5686 C.3     1  UNL1        0.1763
     34 N         -26.2933    3.8090   30.5398 N.3     1  UNL1       -0.2509
     35 C         -21.9328    0.7632   28.4953 C.2     1  UNL1        0.0466
     36 C         -22.0379    1.5272   27.3145 C.2     1  UNL1        0.1519
     37 C         -27.1679    5.0140   30.9246 C.3     1  UNL1        0.0743
     38 F         -20.9206    2.1193   26.8310 F       1  UNL1       -0.2032
     39 CL        -23.1104    2.2109   24.9948 Cl      1  UNL1       -0.0799
     40 C         -24.4699    1.2333   27.1298 C.2     1  UNL1        0.0301
     41 C         -22.7894    0.1904   29.4222 C.2     1  UNL1        0.0680
     42 N         -24.1050   -0.1599   29.2245 N.pl3   1  UNL1       -0.2811
     43 C         -27.2612    2.7852   30.0722 C.3     1  UNL1        0.0743
     44 C         -28.3453    3.5713   29.3746 C.3     1  UNL1        0.0188
     45 O         -25.2759    3.6758   32.8152 O.3     1  UNL1       -0.3382
@<TRIPOS>BOND
     1     1     2    1
     2     2     7    1
     3     3     2    2
     4     4     3    1
     5     4     5    2
     6     5     6    1
     7     6     7    2
     8     8     1    1
     9     8     9    1
    10     8    12    1
    11     9    30    1
    12     9    10    1
    13    10    11    1
    14    12    11    1
    15    13    40    1
    16    14    13    1
    17    14    15    1
    18    15    18    2
    19    16    17    1
    20    16    15    1
    21    19    14    2
    22    20    21    2
    23    20    19    1
    24    21    26    1
    25    22    21    1
    26    23    22    1
    27    24    23    1
    28    24    25    1
    29    26    27    1
    30    26    13    2
    31    28    37    1
    32    29    42    1
    33    32    40    1
    34    32    36    2
    35    33    30    1
    36    33    45    1
    37    34    37    1
    38    34    33    1
    39    35    41    2
    40    36    35    1
    41    38    36    1
    42    39    32    1
    43    40    29    2
    44    42    41    1
    45    42     1    1
    46    43    34    1
    47    44    43    1
    48    44    28    1
    49    45    31    1
