@<TRIPOS>MOLECULE
outputs/IAG933/test6/raw/output_6358_IAG933_linker_design_.xyz
 43 48 0 0 0
SMALL
GASTEIGER

@<TRIPOS>ATOM
      1 C         -24.8550   -1.0120   30.1430 C.3     1  UNL1        0.0454
      2 C         -24.9730   -2.5050   29.7880 C.2     1  UNL1       -0.0207
      3 C         -23.9060   -3.1730   29.1460 C.2     1  UNL1       -0.0042
      4 C         -23.9890   -4.5490   28.8530 C.2     1  UNL1       -0.0003
      5 C         -25.1370   -5.2800   29.2050 C.2     1  UNL1       -0.0000
      6 C         -26.2320   -4.6110   29.7840 C.2     1  UNL1       -0.0003
      7 C         -26.1550   -3.2320   30.0650 C.2     1  UNL1       -0.0042
      8 C         -25.3870   -0.6790   31.5710 C.3     1  UNL1        0.0772
      9 C         -25.1890    0.7730   32.0280 C.3     1  UNL1        0.0192
     10 C         -25.3360    0.6840   33.5440 C.3     1  UNL1        0.0202
     11 C         -24.8290   -0.7150   33.9050 C.3     1  UNL1        0.0887
     12 N         -24.7580   -1.4810   32.6460 N.3     1  UNL1       -0.2191
     13 C         -25.6880    1.6140   26.4610 C.2     1  UNL1        0.0158
     14 C         -26.2500    2.9200   26.3950 C.2     1  UNL1        0.0726
     15 C         -25.6420    4.0930   27.1230 C.2     1  UNL1        0.2661
     16 N         -25.6140    5.2520   26.4490 N.am    1  UNL1       -0.1997
     17 C         -25.0260    6.4790   26.9630 C.3     1  UNL1        0.1388
     18 O         -25.1430    3.9660   28.2430 O.2     1  UNL1       -0.2683
     19 C         -27.4380    3.0910   25.6450 C.2     1  UNL1        0.1064
     20 N         -28.0750    2.0890   25.0030 N.2     1  UNL1       -0.2081
     21 C         -27.5430    0.8490   25.0790 C.2     1  UNL1        0.2530
     22 O         -28.1930   -0.2080   24.4770 O.2     1  UNL1       -0.4558
     23 C         -29.4600    0.0050   23.8660 C.3     1  UNL1        0.2426
     24 C         -30.0650   -1.3770   23.5730 C.3     1  UNL1        0.2292
     25 O         -30.7290   -1.8780   24.7210 O.3     1  UNL1       -0.2162
     26 C         -26.3540    0.5760   25.7770 C.2     1  UNL1        0.1891
     27 F         -25.8600   -0.6810   25.7950 F       1  UNL1       -0.1996
     28 C         -24.3939    1.4964   27.2455 C.3     1  UNL1        0.0329
     29 C         -26.9075    0.3809   29.3918 C.2     1  UNL1        0.1776
     30 O         -22.5563   -0.0420   29.9778 O.3     1  UNL1       -0.2204
     31 C         -22.6694    1.2123   25.2709 C.3     1  UNL1        0.1850
     32 C         -23.1345    0.8124   26.6924 C.3     1  UNL1        0.0702
     33 C         -23.0719    1.1018   29.2245 C.3     1  UNL1        0.1829
     34 O         -27.7393   -0.4379   29.0528 O.2     1  UNL1       -0.2935
     35 O         -21.1094    1.5206   26.9936 O.3     1  UNL1       -0.2203
     36 C         -25.4429    0.0439   29.2007 C.3     1  UNL1        0.0683
     37 C         -28.5002    3.4153   30.2064 C.3     1  UNL1        0.1456
     38 O         -21.3743    1.7383   25.6520 O.3     1  UNL1       -0.2203
     39 C         -24.5161    0.8281   28.5004 C.3     1  UNL1        0.0446
     40 C         -27.3771    1.7858   30.0824 C.3     1  UNL1        0.1745
     41 O         -28.4024    2.2011   31.1054 O.3     1  UNL1       -0.3487
     42 C         -22.2701    1.3152   27.8107 C.3     1  UNL1        0.1849
     43 C         -28.0408    2.6311   29.0091 C.3     1  UNL1        0.0692
@<TRIPOS>BOND
     1     1    36    1
     2     2     7    1
     3     2     1    1
     4     3     2    2
     5     4     3    1
     6     4     5    2
     7     5     6    1
     8     6     7    2
     9     8     1    1
    10     8     9    1
    11     8    12    1
    12     9    10    1
    13    10    11    1
    14    12    11    1
    15    14    13    1
    16    14    15    1
    17    15    18    2
    18    16    17    1
    19    16    15    1
    20    19    14    2
    21    20    21    2
    22    20    19    1
    23    21    26    1
    24    22    21    1
    25    23    22    1
    26    24    23    1
    27    24    25    1
    28    26    27    1
    29    26    13    2
    30    28    13    1
    31    28    39    1
    32    31    38    1
    33    32    31    1
    34    32    28    1
    35    32    42    1
    36    33    30    1
    37    34    29    2
    38    36    29    1
    39    37    41    1
    40    38    35    1
    41    39    36    1
    42    39    33    1
    43    40    29    1
    44    40    41    1
    45    42    35    1
    46    42    33    1
    47    43    40    1
    48    43    37    1
