@<TRIPOS>MOLECULE
outputs/IAG933/test6/raw/output_6362_IAG933_linker_design_.xyz
 39 42 0 0 0
SMALL
GASTEIGER

@<TRIPOS>ATOM
      1 C         -24.8550   -1.0120   30.1430 C.3     1  UNL1        0.1174
      2 C         -24.9730   -2.5050   29.7880 C.2     1  UNL1       -0.0025
      3 C         -23.9060   -3.1730   29.1460 C.2     1  UNL1       -0.0026
      4 C         -23.9890   -4.5490   28.8530 C.2     1  UNL1       -0.0003
      5 C         -25.1370   -5.2800   29.2050 C.2     1  UNL1       -0.0000
      6 C         -26.2320   -4.6110   29.7840 C.2     1  UNL1       -0.0003
      7 C         -26.1550   -3.2320   30.0650 C.2     1  UNL1       -0.0026
      8 C         -25.3870   -0.6790   31.5710 C.3     1  UNL1        0.0956
      9 C         -25.1890    0.7730   32.0280 C.3     1  UNL1        0.0209
     10 C         -25.3360    0.6840   33.5440 C.3     1  UNL1        0.0203
     11 C         -24.8290   -0.7150   33.9050 C.3     1  UNL1        0.0888
     12 N         -24.7580   -1.4810   32.6460 N.3     1  UNL1       -0.2174
     13 C         -25.6880    1.6140   26.4610 C.3     1  UNL1        0.0971
     14 C         -26.2500    2.9200   26.3950 C.2     1  UNL1        0.0570
     15 C         -25.6420    4.0930   27.1230 C.2     1  UNL1        0.2625
     16 N         -25.6140    5.2520   26.4490 N.am    1  UNL1       -0.2000
     17 C         -25.0260    6.4790   26.9630 C.3     1  UNL1        0.1388
     18 O         -25.1430    3.9660   28.2430 O.2     1  UNL1       -0.2687
     19 C         -27.4380    3.0910   25.6450 C.2     1  UNL1        0.1022
     20 N         -28.0750    2.0890   25.0030 N.2     1  UNL1       -0.2119
     21 C         -27.5430    0.8490   25.0790 C.2     1  UNL1        0.2342
     22 O         -28.1930   -0.2080   24.4770 O.2     1  UNL1       -0.4585
     23 C         -29.4600    0.0050   23.8660 C.3     1  UNL1        0.2423
     24 C         -30.0650   -1.3770   23.5730 C.3     1  UNL1        0.2292
     25 O         -30.7290   -1.8780   24.7210 O.3     1  UNL1       -0.2162
     26 C         -26.3540    0.5760   25.7770 C.3     1  UNL1        0.2422
     27 F         -25.8600   -0.6810   25.7950 F       1  UNL1       -0.2268
     28 C         -22.2355    1.7964   25.9535 C.2     1  UNL1        0.3804
     29 C         -24.5726    1.2009   29.2176 C.2     1  UNL1        0.0937
     30 C         -24.3445    1.5336   26.8744 C.3     1  UNL1        0.1443
     31 O         -25.6466   -0.7910   28.0905 O.3     1  UNL1       -0.4193
     32 O         -21.6639    1.6271   27.1094 O.2     1  UNL1       -0.3985
     33 C         -23.7678    1.4147   28.0875 C.2     1  UNL1        0.0739
     34 C         -22.4335    1.3353   28.1283 C.2     1  UNL1        0.2383
     35 F         -21.4263    1.9987   24.9316 F       1  UNL1       -0.1430
     36 N         -21.8167    0.8727   29.2324 N.pl3   1  UNL1       -0.0878
     37 O         -24.5850    2.0454   30.1538 O.2     1  UNL1       -0.5374
     38 N         -25.2463   -0.0019   29.1883 N.am    1  UNL1       -0.2772
     39 N         -23.5201    1.6873   25.7746 N.2     1  UNL1       -0.2080
@<TRIPOS>BOND
     1     1    38    1
     2     2     7    1
     3     2     1    1
     4     3     2    2
     5     4     3    1
     6     4     5    2
     7     5     6    1
     8     6     7    2
     9     8     1    1
    10     8     9    1
    11     8    12    1
    12     9    10    1
    13    10    11    1
    14    12    11    1
    15    13    14    1
    16    13    30    1
    17    14    15    1
    18    15    18    2
    19    16    17    1
    20    16    15    1
    21    19    14    2
    22    20    21    2
    23    20    19    1
    24    21    26    1
    25    22    21    1
    26    23    22    1
    27    24    23    1
    28    24    25    1
    29    26    27    1
    30    26    13    1
    31    28    32    1
    32    29    37    2
    33    30    39    1
    34    30    33    1
    35    31    38    1
    36    32    34    1
    37    33    34    2
    38    33    29    1
    39    34    36    1
    40    35    28    1
    41    38    29   am
    42    39    28    2
