@<TRIPOS>MOLECULE
outputs/IAG933/test6/raw/output_6363_IAG933_linker_design_.xyz
 42 45 0 0 0
SMALL
GASTEIGER

@<TRIPOS>ATOM
      1 C         -24.8550   -1.0120   30.1430 C.3     0  UNK0        0.1196
      2 C         -24.9730   -2.5050   29.7880 C.2     0  UNK0       -0.0025
      3 C         -23.9060   -3.1730   29.1460 C.2     0  UNK0       -0.0026
      4 C         -23.9890   -4.5490   28.8530 C.2     0  UNK0       -0.0003
      5 C         -25.1370   -5.2800   29.2050 C.2     0  UNK0       -0.0000
      6 C         -26.2320   -4.6110   29.7840 C.2     0  UNK0       -0.0003
      7 C         -26.1550   -3.2320   30.0650 C.2     0  UNK0       -0.0026
      8 C         -25.3870   -0.6790   31.5710 C.3     0  UNK0        0.0955
      9 C         -25.1890    0.7730   32.0280 C.3     0  UNK0        0.0209
     10 C         -25.3360    0.6840   33.5440 C.3     0  UNK0        0.0203
     11 C         -24.8290   -0.7150   33.9050 C.3     0  UNK0        0.0888
     12 N         -24.7580   -1.4810   32.6460 N.3     0  UNK0       -0.2174
     13 C         -25.6880    1.6140   26.4610 C.2     0  UNK0        0.0393
     14 C         -26.2500    2.9200   26.3950 C.2     0  UNK0        0.0766
     15 C         -25.6420    4.0930   27.1230 C.2     0  UNK0        0.2664
     16 N         -25.6140    5.2520   26.4490 N.am    0  UNK0       -0.1997
     17 C         -25.0260    6.4790   26.9630 C.3     0  UNK0        0.1388
     18 O         -25.1430    3.9660   28.2430 O.2     0  UNK0       -0.2683
     19 C         -27.4380    3.0910   25.6450 C.2     0  UNK0        0.1067
     20 N         -28.0750    2.0890   25.0030 N.2     0  UNK0       -0.2081
     21 C         -27.5430    0.8490   25.0790 C.2     0  UNK0        0.2533
     22 O         -28.1930   -0.2080   24.4770 O.2     0  UNK0       -0.4558
     23 C         -29.4600    0.0050   23.8660 C.3     0  UNK0        0.2426
     24 C         -30.0650   -1.3770   23.5730 C.3     0  UNK0        0.2292
     25 O         -30.7290   -1.8780   24.7210 O.3     0  UNK0       -0.2162
     26 C         -26.3540    0.5760   25.7770 C.2     0  UNK0        0.1931
     27 F         -25.8600   -0.6810   25.7950 F       0  UNK0       -0.1992
     28 C         -26.6793    0.7385   29.1434 C.2     0  UNK0        0.3310
     29 C         -23.4750    2.0153   26.1276 C.2     0  UNK0        0.0036
     30 C         -21.9319    1.3248   27.7255 C.2     0  UNK0        0.1414
     31 C         -22.1929    1.9640   26.5270 C.2     0  UNK0        0.0297
     32 C         -24.2152    0.8034   28.2309 C.2     0  UNK0        0.0579
     33 C         -22.8768    0.7445   28.5672 C.2     0  UNK0        0.0446
     34 CB        -27.1183    4.2143   30.4842 C.3     1  ALA1        0.0473
     35 O         -27.5477    0.0954   28.6161 O.2     0  UNK0       -0.2501
     36 C         -24.4624    1.4533   26.9607 C.2     0  UNK0        0.0164
     37 N         -25.2778    0.1464   29.1233 N.am    0  UNK0       -0.2379
     38 F         -20.6504    1.3430   28.0390 F       0  UNK0       -0.2041
     39 C         -28.8044    3.3987   28.7773 C.3     1  ALA1        0.2207
     40 N         -26.9533    1.9688   29.5948 N.am    1  ALA1       -0.1680
     41 CA        -27.6571    3.0936   29.5945 C.2     1  ALA1        0.0637
     42 O         -29.3608    4.6976   28.5763 O.3     1  ALA1       -0.2141
@<TRIPOS>BOND
     1     1    37    1
     2     2     7    1
     3     2     1    1
     4     3     2    2
     5     4     3    1
     6     4     5    2
     7     5     6    1
     8     6     7    2
     9     8     1    1
    10     8     9    1
    11     8    12    1
    12     9    10    1
    13    10    11    1
    14    12    11    1
    15    13    36    1
    16    14    13    1
    17    14    15    1
    18    15    18    2
    19    16    17    1
    20    16    15    1
    21    19    14    2
    22    20    21    2
    23    20    19    1
    24    21    26    1
    25    22    21    1
    26    23    22    1
    27    24    23    1
    28    24    25    1
    29    26    27    1
    30    26    13    2
    31    28    40    1
    32    29    31    2
    33    29    36    1
    34    30    38    1
    35    30    33    2
    36    31    30    1
    37    32    33    1
    38    32    37    1
    39    35    28    2
    40    36    32    2
    41    37    28   am
    42    39    41    1
    43    41    40    2
    44    41    34    1
    45    42    39    1
