@<TRIPOS>MOLECULE
outputs/IAG933/test6/raw/output_6365_IAG933_linker_design_.xyz
 42 45 0 0 0
SMALL
GASTEIGER

@<TRIPOS>ATOM
      1 C         -24.8550   -1.0120   30.1430 C.3     1  UNL1        0.0963
      2 C         -24.9730   -2.5050   29.7880 C.2     1  UNL1       -0.0064
      3 C         -23.9060   -3.1730   29.1460 C.2     1  UNL1       -0.0029
      4 C         -23.9890   -4.5490   28.8530 C.2     1  UNL1       -0.0003
      5 C         -25.1370   -5.2800   29.2050 C.2     1  UNL1       -0.0000
      6 C         -26.2320   -4.6110   29.7840 C.2     1  UNL1       -0.0003
      7 C         -26.1550   -3.2320   30.0650 C.2     1  UNL1       -0.0029
      8 C         -25.3870   -0.6790   31.5710 C.3     1  UNL1        0.0916
      9 C         -25.1890    0.7730   32.0280 C.3     1  UNL1        0.0206
     10 C         -25.3360    0.6840   33.5440 C.3     1  UNL1        0.0203
     11 C         -24.8290   -0.7150   33.9050 C.3     1  UNL1        0.0888
     12 N         -24.7580   -1.4810   32.6460 N.3     1  UNL1       -0.2178
     13 C         -25.6880    1.6140   26.4610 C.3     1  UNL1        0.0738
     14 C         -26.2500    2.9200   26.3950 C.2     1  UNL1        0.0549
     15 C         -25.6420    4.0930   27.1230 C.2     1  UNL1        0.2624
     16 N         -25.6140    5.2520   26.4490 N.am    1  UNL1       -0.2000
     17 C         -25.0260    6.4790   26.9630 C.3     1  UNL1        0.1388
     18 O         -25.1430    3.9660   28.2430 O.2     1  UNL1       -0.2687
     19 C         -27.4380    3.0910   25.6450 C.2     1  UNL1        0.1021
     20 N         -28.0750    2.0890   25.0030 N.2     1  UNL1       -0.2119
     21 C         -27.5430    0.8490   25.0790 C.2     1  UNL1        0.2341
     22 O         -28.1930   -0.2080   24.4770 O.2     1  UNL1       -0.4585
     23 C         -29.4600    0.0050   23.8660 C.3     1  UNL1        0.2423
     24 C         -30.0650   -1.3770   23.5730 C.3     1  UNL1        0.2292
     25 O         -30.7290   -1.8780   24.7210 O.3     1  UNL1       -0.2162
     26 C         -26.3540    0.5760   25.7770 C.3     1  UNL1        0.2401
     27 F         -25.8600   -0.6810   25.7950 F       1  UNL1       -0.2269
     28 C         -26.6236    1.3548   29.0944 C.3     1  UNL1        0.0490
     29 O         -28.2450   -0.5169   28.4089 O.3     1  UNL1       -0.2230
     30 C         -24.8881    1.2308   27.4155 C.3     1  UNL1        0.0507
     31 O         -22.4690    1.4442   26.7150 O.3     1  UNL1       -0.3521
     32 C         -29.4741    0.4541   30.2988 C.3     1  UNL1        0.1546
     33 C         -22.3456    0.7573   29.5752 C.3     1  UNL1        0.0199
     34 C         -23.2807    0.0375   28.6100 C.3     1  UNL1        0.0851
     35 C         -28.9895    1.4989   29.6014 C.3     1  UNL1        0.0658
     36 C         -23.6299    0.9740   27.4852 C.3     1  UNL1        0.1315
     37 O         -28.9042   -0.4559   31.0853 O.3     1  UNL1       -0.2231
     38 N         -24.7192    0.0390   29.1750 N.3     1  UNL1       -0.2694
     39 C         -30.9589    0.3145   30.2247 C.3     1  UNL1        0.0356
     40 C         -22.6252    2.1381   25.5438 C.3     1  UNL1        0.1741
     41 C         -25.4498    0.8740   28.6234 C.3     1  UNL1        0.0631
     42 C         -27.9689    0.7923   28.5695 C.3     1  UNL1        0.1559
@<TRIPOS>BOND
     1     1     2    1
     2     2     7    1
     3     3     2    2
     4     4     3    1
     5     4     5    2
     6     5     6    1
     7     6     7    2
     8     8     1    1
     9     8     9    1
    10     8    12    1
    11     9    10    1
    12    10    11    1
    13    12    11    1
    14    13    14    1
    15    14    15    1
    16    15    18    2
    17    16    17    1
    18    16    15    1
    19    19    14    2
    20    20    21    2
    21    20    19    1
    22    21    26    1
    23    22    21    1
    24    23    22    1
    25    24    23    1
    26    24    25    1
    27    26    27    1
    28    26    13    1
    29    30    13    1
    30    30    36    1
    31    30    41    1
    32    32    39    1
    33    32    37    1
    34    34    38    1
    35    34    33    1
    36    35    32    1
    37    36    31    1
    38    36    34    1
    39    38     1    1
    40    40    31    1
    41    41    28    1
    42    41    38    1
    43    42    29    1
    44    42    28    1
    45    42    35    1
