@<TRIPOS>MOLECULE
outputs/IAG933/test6/raw/output_637_IAG933_linker_design_.xyz
 41 44 0 0 0
SMALL
GASTEIGER

@<TRIPOS>ATOM
      1 C         -24.8550   -1.0120   30.1430 C.3     1  UNL1        0.1127
      2 C         -24.9730   -2.5050   29.7880 C.2     1  UNL1       -0.0030
      3 C         -23.9060   -3.1730   29.1460 C.2     1  UNL1       -0.0026
      4 C         -23.9890   -4.5490   28.8530 C.2     1  UNL1       -0.0003
      5 C         -25.1370   -5.2800   29.2050 C.2     1  UNL1       -0.0000
      6 C         -26.2320   -4.6110   29.7840 C.2     1  UNL1       -0.0003
      7 C         -26.1550   -3.2320   30.0650 C.2     1  UNL1       -0.0026
      8 C         -25.3870   -0.6790   31.5710 C.3     1  UNL1        0.0951
      9 C         -25.1890    0.7730   32.0280 C.3     1  UNL1        0.0209
     10 C         -25.3360    0.6840   33.5440 C.3     1  UNL1        0.0203
     11 C         -24.8290   -0.7150   33.9050 C.3     1  UNL1        0.0888
     12 N         -24.7580   -1.4810   32.6460 N.3     1  UNL1       -0.2174
     13 C         -25.6880    1.6140   26.4610 C.3     1  UNL1        0.1446
     14 C         -26.2500    2.9200   26.3950 C.2     1  UNL1        0.0731
     15 C         -25.6420    4.0930   27.1230 C.2     1  UNL1        0.2640
     16 N         -25.6140    5.2520   26.4490 N.am    1  UNL1       -0.1999
     17 C         -25.0260    6.4790   26.9630 C.3     1  UNL1        0.1388
     18 O         -25.1430    3.9660   28.2430 O.2     1  UNL1       -0.2686
     19 C         -27.4380    3.0910   25.6450 C.2     1  UNL1        0.1038
     20 N         -28.0750    2.0890   25.0030 N.2     1  UNL1       -0.2118
     21 C         -27.5430    0.8490   25.0790 C.2     1  UNL1        0.2358
     22 O         -28.1930   -0.2080   24.4770 O.2     1  UNL1       -0.4585
     23 C         -29.4600    0.0050   23.8660 C.3     1  UNL1        0.2423
     24 C         -30.0650   -1.3770   23.5730 C.3     1  UNL1        0.2292
     25 O         -30.7290   -1.8780   24.7210 O.3     1  UNL1       -0.2162
     26 C         -26.3540    0.5760   25.7770 C.3     1  UNL1        0.2581
     27 F         -25.8600   -0.6810   25.7950 F       1  UNL1       -0.2251
     28 C         -26.9623    3.3072   31.2059 C.2     1  UNL1        0.2154
     29 C         -22.2719    0.1665   29.6972 C.3     1  UNL1        0.0482
     30 N         -24.8187    1.1497   27.4353 N.pl3   1  UNL1       -0.2834
     31 C         -25.1204    4.7614   31.7403 C.3     1  UNL1        0.2534
     32 C         -25.6716    0.5460   28.7248 C.3     1  UNL1        0.1818
     33 C         -22.5066    1.6517   26.7886 C.3     1  UNL1        0.2759
     34 CL        -22.7231    2.2937   25.2363 Cl      1  UNL1       -0.0706
     35 C         -26.9055    2.2975   30.1597 C.1     1  UNL1       -0.0624
     36 F         -21.2505    1.4139   27.1979 F       1  UNL1       -0.2129
     37 O         -26.3422    4.5188   31.0699 O.2     1  UNL1       -0.4614
     38 C         -23.4610    0.4222   28.9384 C.2     1  UNL1        0.0400
     39 N         -24.7037   -0.0284   29.3265 N.pl3   1  UNL1       -0.2883
     40 C         -23.6433    1.1833   27.6411 C.2     1  UNL1        0.0845
     41 C         -26.8112    1.3631   29.2018 C.2     1  UNL1        0.0586
@<TRIPOS>BOND
     1     1     2    1
     2     2     7    1
     3     3     2    2
     4     4     3    1
     5     4     5    2
     6     5     6    1
     7     6     7    2
     8     8     1    1
     9     8     9    1
    10     8    12    1
    11     9    10    1
    12    10    11    1
    13    12    11    1
    14    13    30    1
    15    14    13    1
    16    14    15    1
    17    15    18    2
    18    16    17    1
    19    16    15    1
    20    19    14    2
    21    20    21    2
    22    20    19    1
    23    21    26    1
    24    22    21    1
    25    23    22    1
    26    24    23    1
    27    24    25    1
    28    26    27    1
    29    26    13    1
    30    30    40    1
    31    30    32    1
    32    32    41    1
    33    32    39    1
    34    33    34    1
    35    33    36    1
    36    33    40    1
    37    35    28    2
    38    37    28    1
    39    37    31    1
    40    38    39    1
    41    38    29    1
    42    39     1    1
    43    40    38    2
    44    41    35    2
