@<TRIPOS>MOLECULE
outputs/IAG933/test6/raw/output_6370_IAG933_linker_design_.xyz
 44 50 0 0 0
SMALL
GASTEIGER

@<TRIPOS>ATOM
      1 C         -24.8550   -1.0120   30.1430 C.3     1  UNL1        0.1152
      2 C         -24.9730   -2.5050   29.7880 C.2     1  UNL1       -0.0029
      3 C         -23.9060   -3.1730   29.1460 C.2     1  UNL1       -0.0026
      4 C         -23.9890   -4.5490   28.8530 C.2     1  UNL1       -0.0003
      5 C         -25.1370   -5.2800   29.2050 C.2     1  UNL1       -0.0000
      6 C         -26.2320   -4.6110   29.7840 C.2     1  UNL1       -0.0003
      7 C         -26.1550   -3.2320   30.0650 C.2     1  UNL1       -0.0026
      8 C         -25.3870   -0.6790   31.5710 C.3     1  UNL1        0.0952
      9 C         -25.1890    0.7730   32.0280 C.3     1  UNL1        0.0209
     10 C         -25.3360    0.6840   33.5440 C.3     1  UNL1        0.0203
     11 C         -24.8290   -0.7150   33.9050 C.3     1  UNL1        0.0888
     12 N         -24.7580   -1.4810   32.6460 N.3     1  UNL1       -0.2174
     13 C         -25.6880    1.6140   26.4610 C.2     1  UNL1        0.0172
     14 C         -26.2500    2.9200   26.3950 C.2     1  UNL1        0.0726
     15 C         -25.6420    4.0930   27.1230 C.2     1  UNL1        0.2661
     16 N         -25.6140    5.2520   26.4490 N.am    1  UNL1       -0.1997
     17 C         -25.0260    6.4790   26.9630 C.3     1  UNL1        0.1388
     18 O         -25.1430    3.9660   28.2430 O.2     1  UNL1       -0.2683
     19 C         -27.4380    3.0910   25.6450 C.2     1  UNL1        0.1064
     20 N         -28.0750    2.0890   25.0030 N.2     1  UNL1       -0.2081
     21 C         -27.5430    0.8490   25.0790 C.2     1  UNL1        0.2530
     22 O         -28.1930   -0.2080   24.4770 O.2     1  UNL1       -0.4558
     23 C         -29.4600    0.0050   23.8660 C.3     1  UNL1        0.2426
     24 C         -30.0650   -1.3770   23.5730 C.3     1  UNL1        0.2292
     25 O         -30.7290   -1.8780   24.7210 O.3     1  UNL1       -0.2162
     26 C         -26.3540    0.5760   25.7770 C.2     1  UNL1        0.1892
     27 F         -25.8600   -0.6810   25.7950 F       1  UNL1       -0.1996
     28 C         -27.0670    0.0137   28.9239 C.2     1  UNL1        0.3234
     29 C         -22.9484    0.9481   27.4221 C.3     1  UNL1        0.0499
     30 C         -22.0507    0.3234   29.5463 C.3     1  UNL1        0.0338
     31 C         -29.3702   -2.0465   30.8143 C.3     1  UNL1        0.1638
     32 O         -30.1519   -3.0948   30.2375 O.3     1  UNL1       -0.3519
     33 C         -24.6272    0.6624   28.2796 C.3     1  UNL1        0.0687
     34 O         -27.4637    1.1267   28.7049 O.2     1  UNL1       -0.2508
     35 C         -23.2253    0.3403   28.7039 C.3     1  UNL1        0.0239
     36 O         -20.5652    1.2101   27.6592 O.3     1  UNL1       -0.3537
     37 N         -28.0120   -1.0155   29.0152 N.am    1  UNL1       -0.1875
     38 N         -25.6128   -0.1803   29.1479 N.am    1  UNL1       -0.2621
     39 C         -20.8309    0.0879   28.5602 C.3     1  UNL1        0.1422
     40 C         -31.1636   -2.4022   29.5048 C.3     1  UNL1        0.1441
     41 C         -30.4985   -1.2200   28.8467 C.3     1  UNL1        0.0563
     42 C         -29.2726   -0.9640   29.7426 C.3     1  UNL1        0.1289
     43 C         -21.6431    1.4980   26.8651 C.3     1  UNL1        0.1440
     44 C         -24.2211    1.3169   26.9073 C.3     1  UNL1        0.0456
@<TRIPOS>BOND
     1     1    38    1
     2     2     7    1
     3     2     1    1
     4     3     2    2
     5     4     3    1
     6     4     5    2
     7     5     6    1
     8     6     7    2
     9     8     1    1
    10     8     9    1
    11     8    12    1
    12     9    10    1
    13    10    11    1
    14    12    11    1
    15    14    13    1
    16    14    15    1
    17    15    18    2
    18    16    17    1
    19    16    15    1
    20    19    14    2
    21    20    21    2
    22    20    19    1
    23    21    26    1
    24    22    21    1
    25    23    22    1
    26    24    23    1
    27    24    25    1
    28    26    27    1
    29    26    13    2
    30    28    37    1
    31    28    38   am
    32    29    43    1
    33    29    33    1
    34    29    35    1
    35    32    31    1
    36    33    35    1
    37    33    38    1
    38    34    28    2
    39    35    30    1
    40    36    39    1
    41    39    30    1
    42    40    32    1
    43    41    40    1
    44    41    42    1
    45    42    37    1
    46    42    31    1
    47    43    36    1
    48    44    13    1
    49    44    29    1
    50    44    33    1
