@<TRIPOS>MOLECULE
outputs/IAG933/test6/raw/output_6377_IAG933_linker_design_.xyz
 41 45 0 0 0
SMALL
GASTEIGER

@<TRIPOS>ATOM
      1 C         -24.8550   -1.0120   30.1430 C.3     1  UNL1        0.1170
      2 C         -24.9730   -2.5050   29.7880 C.2     1  UNL1       -0.0028
      3 C         -23.9060   -3.1730   29.1460 C.2     1  UNL1       -0.0026
      4 C         -23.9890   -4.5490   28.8530 C.2     1  UNL1       -0.0003
      5 C         -25.1370   -5.2800   29.2050 C.2     1  UNL1       -0.0000
      6 C         -26.2320   -4.6110   29.7840 C.2     1  UNL1       -0.0003
      7 C         -26.1550   -3.2320   30.0650 C.2     1  UNL1       -0.0026
      8 C         -25.3870   -0.6790   31.5710 C.3     1  UNL1        0.0952
      9 C         -25.1890    0.7730   32.0280 C.3     1  UNL1        0.0209
     10 C         -25.3360    0.6840   33.5440 C.3     1  UNL1        0.0203
     11 C         -24.8290   -0.7150   33.9050 C.3     1  UNL1        0.0888
     12 N         -24.7580   -1.4810   32.6460 N.3     1  UNL1       -0.2174
     13 C         -25.6880    1.6140   26.4610 C.2     1  UNL1        0.0175
     14 C         -26.2500    2.9200   26.3950 C.2     1  UNL1        0.0726
     15 C         -25.6420    4.0930   27.1230 C.2     1  UNL1        0.2661
     16 N         -25.6140    5.2520   26.4490 N.am    1  UNL1       -0.1997
     17 C         -25.0260    6.4790   26.9630 C.3     1  UNL1        0.1388
     18 O         -25.1430    3.9660   28.2430 O.2     1  UNL1       -0.2683
     19 C         -27.4380    3.0910   25.6450 C.2     1  UNL1        0.1064
     20 N         -28.0750    2.0890   25.0030 N.2     1  UNL1       -0.2081
     21 C         -27.5430    0.8490   25.0790 C.2     1  UNL1        0.2530
     22 O         -28.1930   -0.2080   24.4770 O.2     1  UNL1       -0.4558
     23 C         -29.4600    0.0050   23.8660 C.3     1  UNL1        0.2426
     24 C         -30.0650   -1.3770   23.5730 C.3     1  UNL1        0.2292
     25 O         -30.7290   -1.8780   24.7210 O.3     1  UNL1       -0.2162
     26 C         -26.3540    0.5760   25.7770 C.2     1  UNL1        0.1892
     27 F         -25.8600   -0.6810   25.7950 F       1  UNL1       -0.1996
     28 C         -22.4292    1.6416   26.2736 C.3     1  UNL1        0.2396
     29 C         -21.8503    0.8534   28.4029 C.3     1  UNL1        0.1969
     30 N         -25.1111    0.0442   29.0842 N.am    1  UNL1       -0.2407
     31 C         -24.1055    0.4533   28.3502 C.3     1  UNL1        0.0909
     32 O         -27.2715   -0.2652   28.6057 O.co2   1  UNL1       -0.2223
     33 O         -21.1314    1.9505   26.5743 O.3     1  UNL1       -0.3274
     34 C         -23.5084    1.8706   24.0080 C.3     1  UNL1        0.1768
     35 C         -23.0262    1.0408   27.6590 C.3     1  UNL1        0.1068
     36 C         -20.7157    1.4057   27.8209 C.3     1  UNL1        0.1801
     37 O         -26.6641    1.7079   29.3702 O.co2   1  UNL1       -0.2223
     38 C         -24.4853    1.2228   27.2945 C.3     1  UNL1        0.0524
     39 O         -23.1926    1.8976   25.3643 O.3     1  UNL1       -0.3277
     40 C         -26.4109    0.5565   29.0150 C.2     1  UNL1        0.4474
     41 F         -21.9696    0.1991   29.5358 F       1  UNL1       -0.2343
@<TRIPOS>BOND
     1     1    30    1
     2     2     7    1
     3     2     1    1
     4     3     2    2
     5     4     3    1
     6     4     5    2
     7     5     6    1
     8     6     7    2
     9     8     1    1
    10     8     9    1
    11     8    12    1
    12     9    10    1
    13    10    11    1
    14    12    11    1
    15    13    38    1
    16    14    13    1
    17    14    15    1
    18    15    18    2
    19    16    17    1
    20    16    15    1
    21    19    14    2
    22    20    21    2
    23    20    19    1
    24    21    26    1
    25    22    21    1
    26    23    22    1
    27    24    23    1
    28    24    25    1
    29    26    27    1
    30    26    13    2
    31    28    39    1
    32    28    33    1
    33    28    35    1
    34    29    41    1
    35    31    30    1
    36    32    40   ar
    37    33    36    1
    38    34    39    1
    39    35    31    1
    40    35    29    1
    41    36    29    1
    42    38    35    1
    43    38    31    1
    44    40    30   am
    45    40    37   ar
