@<TRIPOS>MOLECULE
outputs/IAG933/test6/raw/output_6382_IAG933_linker_design_.xyz
 46 50 0 0 0
SMALL
GASTEIGER

@<TRIPOS>ATOM
      1 C         -24.8550   -1.0120   30.1430 C.3     1  UNL1        0.0890
      2 C         -24.9730   -2.5050   29.7880 C.2     1  UNL1       -0.0170
      3 C         -23.9060   -3.1730   29.1460 C.2     1  UNL1       -0.0041
      4 C         -23.9890   -4.5490   28.8530 C.2     1  UNL1       -0.0003
      5 C         -25.1370   -5.2800   29.2050 C.2     1  UNL1       -0.0000
      6 C         -26.2320   -4.6110   29.7840 C.2     1  UNL1       -0.0003
      7 C         -26.1550   -3.2320   30.0650 C.2     1  UNL1       -0.0041
      8 C         -25.3870   -0.6790   31.5710 C.3     1  UNL1        0.0810
      9 C         -25.1890    0.7730   32.0280 C.3     1  UNL1        0.0193
     10 C         -25.3360    0.6840   33.5440 C.3     1  UNL1        0.0202
     11 C         -24.8290   -0.7150   33.9050 C.3     1  UNL1        0.0887
     12 N         -24.7580   -1.4810   32.6460 N.3     1  UNL1       -0.2190
     13 C         -25.6880    1.6140   26.4610 C.3     1  UNL1        0.0859
     14 C         -26.2500    2.9200   26.3950 C.2     1  UNL1        0.0557
     15 C         -25.6420    4.0930   27.1230 C.2     1  UNL1        0.2625
     16 N         -25.6140    5.2520   26.4490 N.am    1  UNL1       -0.2000
     17 C         -25.0260    6.4790   26.9630 C.3     1  UNL1        0.1388
     18 O         -25.1430    3.9660   28.2430 O.2     1  UNL1       -0.2687
     19 C         -27.4380    3.0910   25.6450 C.2     1  UNL1        0.1022
     20 N         -28.0750    2.0890   25.0030 N.2     1  UNL1       -0.2119
     21 C         -27.5430    0.8490   25.0790 C.2     1  UNL1        0.2341
     22 O         -28.1930   -0.2080   24.4770 O.2     1  UNL1       -0.4585
     23 C         -29.4600    0.0050   23.8660 C.3     1  UNL1        0.2423
     24 C         -30.0650   -1.3770   23.5730 C.3     1  UNL1        0.2292
     25 O         -30.7290   -1.8780   24.7210 O.3     1  UNL1       -0.2162
     26 C         -26.3540    0.5760   25.7770 C.3     1  UNL1        0.2409
     27 F         -25.8600   -0.6810   25.7950 F       1  UNL1       -0.2269
     28 C         -22.2182    2.0889   26.0652 C.2     1  UNL1       -0.0001
     29 N         -23.1686    0.6794   28.7033 N.2     1  UNL1       -0.0367
     30 C         -24.4779    1.4205   26.8075 C.3     1  UNL1        0.1387
     31 C         -30.0276    2.0873   29.1175 C.3     1  UNL1        0.1422
     32 N         -25.4042    0.0867   28.3432 N.pl3   1  UNL1       -0.0351
     33 O         -28.8603   -1.6904   29.5586 O.2     1  UNL1       -0.2500
     34 C         -23.5778    1.8697   25.8739 C.2     1  UNL1       -0.0138
     35 C         -29.2052   -0.7269   28.9097 C.2     1  UNL1        0.3191
     36 C         -31.1455    0.4302   27.5255 C.3     1  UNL1        0.0162
     37 C         -21.4535    1.7546   27.1687 C.2     1  UNL1        0.0502
     38 C         -24.3209    0.7342   28.0034 C.2     1  UNL1        0.3411
     39 C         -30.4739    1.7714   27.6979 C.3     1  UNL1        0.0327
     40 O         -28.3293    0.1701   28.5725 O.3     1  UNL1       -0.4439
     41 C         -27.3909    0.4761   29.5946 C.3     1  UNL1        0.2593
     42 O         -30.5222    1.3365   30.2357 O.3     1  UNL1       -0.3532
     43 C         -21.9091    1.1270   28.3375 C.2     1  UNL1        0.2355
     44 C         -30.7365   -0.4838   28.6780 C.3     1  UNL1        0.1286
     45 C         -31.1993    0.1219   29.9791 C.3     1  UNL1        0.1532
     46 C         -26.0347   -0.2671   29.4432 C.3     1  UNL1        0.2532
@<TRIPOS>BOND
     1     1    46    1
     2     2     7    1
     3     2     1    1
     4     3     2    2
     5     4     3    1
     6     4     5    2
     7     5     6    1
     8     6     7    2
     9     8     1    1
    10     8     9    1
    11     8    12    1
    12     9    10    1
    13    10    11    1
    14    12    11    1
    15    13    14    1
    16    13    30    1
    17    14    15    1
    18    15    18    2
    19    16    17    1
    20    16    15    1
    21    19    14    2
    22    20    21    2
    23    20    19    1
    24    21    26    1
    25    22    21    1
    26    23    22    1
    27    24    23    1
    28    24    25    1
    29    26    27    1
    30    26    13    1
    31    28    37    1
    32    30    34    1
    33    30    38    1
    34    31    42    1
    35    32    46    1
    36    34    28    2
    37    35    33    2
    38    36    39    1
    39    36    44    1
    40    37    43    2
    41    38    32    1
    42    38    29    2
    43    39    31    1
    44    40    35    1
    45    40    41    1
    46    43    29    1
    47    44    35    1
    48    44    45    1
    49    45    42    1
    50    46    41    1
