@<TRIPOS>MOLECULE
outputs/IAG933/test6/raw/output_6386_IAG933_linker_design_.xyz
 44 47 0 0 0
SMALL
GASTEIGER

@<TRIPOS>ATOM
      1 C         -24.8550   -1.0120   30.1430 C.3     1  UNL1        0.1287
      2 C         -24.9730   -2.5050   29.7880 C.2     1  UNL1       -0.0015
      3 C         -23.9060   -3.1730   29.1460 C.2     1  UNL1       -0.0026
      4 C         -23.9890   -4.5490   28.8530 C.2     1  UNL1       -0.0003
      5 C         -25.1370   -5.2800   29.2050 C.2     1  UNL1       -0.0000
      6 C         -26.2320   -4.6110   29.7840 C.2     1  UNL1       -0.0003
      7 C         -26.1550   -3.2320   30.0650 C.2     1  UNL1       -0.0026
      8 C         -25.3870   -0.6790   31.5710 C.3     1  UNL1        0.0965
      9 C         -25.1890    0.7730   32.0280 C.3     1  UNL1        0.0210
     10 C         -25.3360    0.6840   33.5440 C.3     1  UNL1        0.0203
     11 C         -24.8290   -0.7150   33.9050 C.3     1  UNL1        0.0888
     12 N         -24.7580   -1.4810   32.6460 N.3     1  UNL1       -0.2174
     13 C         -25.6880    1.6140   26.4610 C.3     1  UNL1        0.0936
     14 C         -26.2500    2.9200   26.3950 C.2     1  UNL1        0.0589
     15 C         -25.6420    4.0930   27.1230 C.2     1  UNL1        0.2628
     16 N         -25.6140    5.2520   26.4490 N.am    1  UNL1       -0.2000
     17 C         -25.0260    6.4790   26.9630 C.3     1  UNL1        0.1388
     18 O         -25.1430    3.9660   28.2430 O.2     1  UNL1       -0.2686
     19 C         -27.4380    3.0910   25.6450 C.2     1  UNL1        0.1025
     20 N         -28.0750    2.0890   25.0030 N.2     1  UNL1       -0.2118
     21 C         -27.5430    0.8490   25.0790 C.2     1  UNL1        0.2344
     22 O         -28.1930   -0.2080   24.4770 O.2     1  UNL1       -0.4585
     23 C         -29.4600    0.0050   23.8660 C.3     1  UNL1        0.2423
     24 C         -30.0650   -1.3770   23.5730 C.3     1  UNL1        0.2292
     25 O         -30.7290   -1.8780   24.7210 O.3     1  UNL1       -0.2162
     26 C         -26.3540    0.5760   25.7770 C.3     1  UNL1        0.2440
     27 F         -25.8600   -0.6810   25.7950 F       1  UNL1       -0.2265
     28 C         -24.2937    1.4494   26.8878 C.2     1  UNL1        0.0018
     29 O         -30.9090    1.5061   28.6921 O.3     1  UNL1       -0.2176
     30 C         -27.3916   -0.2996   28.6892 C.3     1  UNL1        0.1436
     31 N         -24.9627    0.0359   29.0836 N.pl3   1  UNL1       -0.2310
     32 C         -21.4843    1.3491   27.5309 C.2     1  UNL1        0.0309
     33 F         -22.0452    0.3104   29.6664 F       1  UNL1       -0.2028
     34 C         -23.9239    0.8094   28.1925 C.2     1  UNL1        0.0876
     35 C         -31.3310    0.2301   29.2025 C.3     1  UNL1        0.2141
     36 O         -30.8136   -1.2416   31.1156 O.3     1  UNL1       -0.2175
     37 C         -21.8789    1.9677   26.3126 C.2     1  UNL1        0.0021
     38 O         -29.5693   -0.5196   27.6541 O.3     1  UNL1       -0.3494
     39 C         -28.4708   -1.0085   28.4212 C.3     1  UNL1        0.1630
     40 C         -30.9553    0.0977   30.6696 C.3     1  UNL1        0.2174
     41 C         -30.7358   -0.9078   28.3874 C.3     1  UNL1        0.1777
     42 C         -22.4485    0.8009   28.5177 C.2     1  UNL1        0.1543
     43 C         -23.2775    1.9978   25.9871 C.2     1  UNL1       -0.0024
     44 N         -26.2942    0.2122   28.8675 N.3     1  UNL1       -0.1271
@<TRIPOS>BOND
     1     1    31    1
     2     2     7    1
     3     2     1    1
     4     3     2    2
     5     4     3    1
     6     4     5    2
     7     5     6    1
     8     6     7    2
     9     8     1    1
    10     8     9    1
    11     8    12    1
    12     9    10    1
    13    10    11    1
    14    12    11    1
    15    13    28    1
    16    14    13    1
    17    14    15    1
    18    15    18    2
    19    16    17    1
    20    16    15    1
    21    19    14    2
    22    20    21    2
    23    20    19    1
    24    21    26    1
    25    22    21    1
    26    23    22    1
    27    24    23    1
    28    24    25    1
    29    26    27    1
    30    26    13    1
    31    28    34    1
    32    30    44    1
    33    32    42    1
    34    34    42    2
    35    34    31    1
    36    35    29    1
    37    35    40    1
    38    37    32    2
    39    38    41    1
    40    38    39    1
    41    39    30    1
    42    40    36    1
    43    41    35    1
    44    42    33    1
    45    43    37    1
    46    43    28    2
    47    44    31    1
