@<TRIPOS>MOLECULE
No_639-gen_results/8p0m/2024-11-27-11-27-31/
 15 16 0 0 0
SMALL
GASTEIGER

@<TRIPOS>ATOM
      1 C         -28.0162   -0.8135   28.8779 C.3     1  UNL1        0.0645
      2 C         -28.4690   -0.7850   29.8287 C.3     1  UNL1        0.0078
      3 C         -26.5455   -0.8762   28.8500 C.2     1  UNL1        0.1502
      4 C         -25.8041   -1.0324   30.0571 C.3     1  UNL1        0.0580
      5 C         -26.5373   -1.0386   31.2171 C.3     1  UNL1        0.0073
      6 C         -27.8843   -0.9532   31.1862 C.3     1  UNL1        0.0009
      7 C         -24.3555   -1.1121   30.0346 C.3     1  UNL1        0.0120
      8 C         -23.6610    0.1027   29.8448 C.3     1  UNL1        0.0268
      9 C         -23.2716    0.5565   28.6955 C.ar    1  UNL1       -0.0222
     10 C         -22.1609    0.7413   28.4809 C.ar    1  UNL1       -0.0043
     11 C         -21.8046    1.3418   27.1665 C.ar    1  UNL1       -0.0003
     12 C         -22.8247    1.9390   26.4426 C.ar    1  UNL1       -0.0000
     13 C         -24.1581    1.3586   27.8020 C.ar    1  UNL1       -0.0043
     14 C         -23.9334    1.9906   26.7949 C.ar    1  UNL1       -0.0003
     15 O         -25.8345   -0.8899   27.6959 O.2     1  UNL1       -0.2961
@<TRIPOS>BOND
     1     1     3    1
     2     3     4    1
     3     4     5    1
     4     2     6    1
     5     5     6    1
     6     4     7    1
     7     7     8    1
     8     8     9    1
     9     3    15    2
    10     1     2    1
    11     9    10   ar
    12    10    11   ar
    13    11    12   ar
    14    12    14   ar
    15    14    13   ar
    16    13     9   ar
