@<TRIPOS>MOLECULE
outputs/IAG933/test6/raw/output_6390_IAG933_linker_design_.xyz
 42 45 0 0 0
SMALL
GASTEIGER

@<TRIPOS>ATOM
      1 C         -24.8550   -1.0120   30.1430 C.3     1  UNL1        0.2062
      2 C         -24.9730   -2.5050   29.7880 C.2     1  UNL1        0.0218
      3 C         -23.9060   -3.1730   29.1460 C.2     1  UNL1       -0.0004
      4 C         -23.9890   -4.5490   28.8530 C.2     1  UNL1       -0.0002
      5 C         -25.1370   -5.2800   29.2050 C.2     1  UNL1       -0.0000
      6 C         -26.2320   -4.6110   29.7840 C.2     1  UNL1       -0.0002
      7 C         -26.1550   -3.2320   30.0650 C.2     1  UNL1       -0.0004
      8 C         -25.3870   -0.6790   31.5710 C.3     1  UNL1        0.1202
      9 C         -25.1890    0.7730   32.0280 C.3     1  UNL1        0.0233
     10 C         -25.3360    0.6840   33.5440 C.3     1  UNL1        0.0204
     11 C         -24.8290   -0.7150   33.9050 C.3     1  UNL1        0.0889
     12 N         -24.7580   -1.4810   32.6460 N.3     1  UNL1       -0.2150
     13 C         -25.6880    1.6140   26.4610 C.3     1  UNL1        0.2305
     14 C         -26.2500    2.9200   26.3950 C.2     1  UNL1        0.0973
     15 C         -25.6420    4.0930   27.1230 C.2     1  UNL1        0.2662
     16 N         -25.6140    5.2520   26.4490 N.am    1  UNL1       -0.1999
     17 C         -25.0260    6.4790   26.9630 C.3     1  UNL1        0.1388
     18 O         -25.1430    3.9660   28.2430 O.2     1  UNL1       -0.2685
     19 C         -27.4380    3.0910   25.6450 C.2     1  UNL1        0.1060
     20 N         -28.0750    2.0890   25.0030 N.2     1  UNL1       -0.2116
     21 C         -27.5430    0.8490   25.0790 C.2     1  UNL1        0.2384
     22 O         -28.1930   -0.2080   24.4770 O.2     1  UNL1       -0.4584
     23 C         -29.4600    0.0050   23.8660 C.3     1  UNL1        0.2423
     24 C         -30.0650   -1.3770   23.5730 C.3     1  UNL1        0.2292
     25 O         -30.7290   -1.8780   24.7210 O.3     1  UNL1       -0.2162
     26 C         -26.3540    0.5760   25.7770 C.3     1  UNL1        0.2824
     27 F         -25.8600   -0.6810   25.7950 F       1  UNL1       -0.2225
     28 C         -22.6211    0.9764   28.2082 C.3     1  UNL1        0.1484
     29 C         -26.1600    1.6853   29.4839 C.1     1  UNL1       -0.0063
     30 C         -28.7656    1.7586   30.4241 C.3     1  UNL1        0.0612
     31 C         -27.3158    2.2642   30.2536 C.2     1  UNL1        0.1079
     32 N         -24.4347   -0.0675   29.2593 N.am    1  UNL1       -0.1376
     33 O         -22.2974   -0.7005   29.5916 O.2     1  UNL1       -0.2466
     34 O         -27.2877   -0.7045   28.5934 O.2     1  UNL1       -0.2883
     35 C         -23.1893    0.0114   29.0253 C.2     1  UNL1        0.3174
     36 C         -25.2058    0.8440   28.6888 C.2     1  UNL1        0.3163
     37 N         -27.0268    3.4081   30.7718 N.pl3   1  UNL1       -0.1242
     38 N         -24.8216    1.1885   27.4176 N.pl3   1  UNL1       -0.1844
     39 C         -23.4521    1.4098   26.9139 C.3     1  UNL1        0.2143
     40 C         -28.9738    0.2549   30.2905 C.3     1  UNL1        0.0790
     41 C         -28.2357   -0.5484   29.3692 C.2     1  UNL1        0.2078
     42 C         -21.1230    1.0626   27.8242 C.3     1  UNL1        0.0165
@<TRIPOS>BOND
     1     1     2    1
     2     2     7    1
     3     3     2    2
     4     4     3    1
     5     4     5    2
     6     5     6    1
     7     6     7    2
     8     8     1    1
     9     8     9    1
    10     8    12    1
    11     9    10    1
    12    10    11    1
    13    12    11    1
    14    13    38    1
    15    14    13    1
    16    14    15    1
    17    15    18    2
    18    16    17    1
    19    16    15    1
    20    19    14    2
    21    20    21    2
    22    20    19    1
    23    21    26    1
    24    22    21    1
    25    23    22    1
    26    24    23    1
    27    24    25    1
    28    26    27    1
    29    26    13    1
    30    28    42    1
    31    28    35    1
    32    29    31    2
    33    31    30    1
    34    31    37    1
    35    32     1    1
    36    34    41    2
    37    35    32   am
    38    35    33    2
    39    36    32    1
    40    36    29    2
    41    38    36    1
    42    39    38    1
    43    39    28    1
    44    40    30    1
    45    41    40    1
