@<TRIPOS>MOLECULE
outputs/IAG933/test6/raw/output_6399_IAG933_linker_design_.xyz
 43 47 0 0 0
SMALL
GASTEIGER

@<TRIPOS>ATOM
      1 C         -24.8550   -1.0120   30.1430 C.3     1  UNL1        0.0626
      2 C         -24.9730   -2.5050   29.7880 C.2     1  UNL1       -0.0191
      3 C         -23.9060   -3.1730   29.1460 C.2     1  UNL1       -0.0042
      4 C         -23.9890   -4.5490   28.8530 C.2     1  UNL1       -0.0003
      5 C         -25.1370   -5.2800   29.2050 C.2     1  UNL1       -0.0000
      6 C         -26.2320   -4.6110   29.7840 C.2     1  UNL1       -0.0003
      7 C         -26.1550   -3.2320   30.0650 C.2     1  UNL1       -0.0042
      8 C         -25.3870   -0.6790   31.5710 C.3     1  UNL1        0.0788
      9 C         -25.1890    0.7730   32.0280 C.3     1  UNL1        0.0193
     10 C         -25.3360    0.6840   33.5440 C.3     1  UNL1        0.0202
     11 C         -24.8290   -0.7150   33.9050 C.3     1  UNL1        0.0887
     12 N         -24.7580   -1.4810   32.6460 N.3     1  UNL1       -0.2191
     13 C         -25.6880    1.6140   26.4610 C.3     1  UNL1        0.0925
     14 C         -26.2500    2.9200   26.3950 C.2     1  UNL1        0.0589
     15 C         -25.6420    4.0930   27.1230 C.2     1  UNL1        0.2628
     16 N         -25.6140    5.2520   26.4490 N.am    1  UNL1       -0.2000
     17 C         -25.0260    6.4790   26.9630 C.3     1  UNL1        0.1388
     18 O         -25.1430    3.9660   28.2430 O.2     1  UNL1       -0.2686
     19 C         -27.4380    3.0910   25.6450 C.2     1  UNL1        0.1025
     20 N         -28.0750    2.0890   25.0030 N.2     1  UNL1       -0.2118
     21 C         -27.5430    0.8490   25.0790 C.2     1  UNL1        0.2344
     22 O         -28.1930   -0.2080   24.4770 O.2     1  UNL1       -0.4585
     23 C         -29.4600    0.0050   23.8660 C.3     1  UNL1        0.2423
     24 C         -30.0650   -1.3770   23.5730 C.3     1  UNL1        0.2292
     25 O         -30.7290   -1.8780   24.7210 O.3     1  UNL1       -0.2162
     26 C         -26.3540    0.5760   25.7770 C.3     1  UNL1        0.2440
     27 F         -25.8600   -0.6810   25.7950 F       1  UNL1       -0.2265
     28 O         -27.4393   -0.8460   28.3684 O.2     1  UNL1       -0.2684
     29 O         -21.7562    2.3275   25.8926 O.2     1  UNL1       -0.4472
     30 C         -24.3056    1.6330   26.3200 C.2     1  UNL1       -0.0090
     31 C         -22.5284    0.2700   29.3101 C.2     1  UNL1        0.1772
     32 C         -23.3978    1.2738   27.3442 C.2     1  UNL1        0.0350
     33 C         -23.9117    2.0900   25.0852 C.2     1  UNL1        0.0369
     34 C         -22.6415    2.5620   24.9202 C.2     1  UNL1        0.1793
     35 C         -28.1654    1.4291   28.5403 C.2     1  UNL1        0.0595
     36 O         -21.3329    0.6327   28.9430 O.2     1  UNL1       -0.4444
     37 C         -23.5743    0.5750   28.5841 C.2     1  UNL1        0.0382
     38 C         -29.4026    1.4051   29.0098 C.2     1  UNL1        0.0049
     39 C         -24.8189    0.0502   29.0159 C.3     1  UNL1        0.1262
     40 C         -21.0965    1.4494   27.9276 C.2     1  UNL1        0.2168
     41 C         -27.1461    0.3547   28.6100 C.2     1  UNL1        0.2652
     42 C         -22.0873    1.6974   27.0426 C.2     1  UNL1        0.1823
     43 N         -25.9713    0.9169   28.8540 N.am    1  UNL1       -0.1984
@<TRIPOS>BOND
     1     1    39    1
     2     2     7    1
     3     2     1    1
     4     3     2    2
     5     4     3    1
     6     4     5    2
     7     5     6    1
     8     6     7    2
     9     8     1    1
    10     8     9    1
    11     8    12    1
    12     9    10    1
    13    10    11    1
    14    12    11    1
    15    13    30    1
    16    14    13    1
    17    14    15    1
    18    15    18    2
    19    16    17    1
    20    16    15    1
    21    19    14    2
    22    20    21    2
    23    20    19    1
    24    21    26    1
    25    22    21    1
    26    23    22    1
    27    24    23    1
    28    24    25    1
    29    26    27    1
    30    26    13    1
    31    28    41    2
    32    29    42    1
    33    30    32    2
    34    32    37    1
    35    33    30    1
    36    34    33    2
    37    34    29    1
    38    35    41    1
    39    35    38    2
    40    36    31    1
    41    37    39    1
    42    37    31    2
    43    39    43    1
    44    40    36    1
    45    41    43    1
    46    42    32    1
    47    42    40    2
