@<TRIPOS>MOLECULE
No_640-gen_results/8p0m/2024-11-27-11-27-31/
 9 9 0 0 0
SMALL
GASTEIGER

@<TRIPOS>ATOM
      1 C         -28.0162   -0.8135   28.8779 C.ar    1  UNL1        0.0011
      2 C         -28.4690   -0.7850   29.8287 C.ar    1  UNL1        0.0436
      3 C         -26.5455   -0.8762   28.8500 C.ar    1  UNL1       -0.0001
      4 C         -25.8041   -1.0324   30.0571 C.ar    1  UNL1       -0.0000
      5 C         -27.9437   -0.9869   31.2075 C.ar    1  UNL1        0.0011
      6 C         -26.5825   -1.0386   31.2231 C.ar    1  UNL1       -0.0001
      7 C         -30.0606   -0.7371   29.9024 C.3     1  UNL1        0.3410
      8 F         -30.4826    0.1163   30.8130 F       1  UNL1       -0.1933
      9 F         -30.6198   -0.7574   28.8208 F       1  UNL1       -0.1933
@<TRIPOS>BOND
     1     2     7    1
     2     7     8    1
     3     7     9    1
     4     1     2   ar
     5     2     5   ar
     6     5     6   ar
     7     6     4   ar
     8     4     3   ar
     9     3     1   ar
