@<TRIPOS>MOLECULE
outputs/IAG933/test6/raw/output_6408_IAG933_linker_design_.xyz
 42 45 0 0 0
SMALL
GASTEIGER

@<TRIPOS>ATOM
      1 C         -24.8550   -1.0120   30.1430 C.3     1  UNL1        0.0437
      2 C         -24.9730   -2.5050   29.7880 C.2     1  UNL1       -0.0208
      3 C         -23.9060   -3.1730   29.1460 C.2     1  UNL1       -0.0042
      4 C         -23.9890   -4.5490   28.8530 C.2     1  UNL1       -0.0003
      5 C         -25.1370   -5.2800   29.2050 C.2     1  UNL1       -0.0000
      6 C         -26.2320   -4.6110   29.7840 C.2     1  UNL1       -0.0003
      7 C         -26.1550   -3.2320   30.0650 C.2     1  UNL1       -0.0042
      8 C         -25.3870   -0.6790   31.5710 C.3     1  UNL1        0.0777
      9 C         -25.1890    0.7730   32.0280 C.3     1  UNL1        0.0290
     10 C         -25.3360    0.6840   33.5440 C.3     1  UNL1        0.0208
     11 C         -24.8290   -0.7150   33.9050 C.3     1  UNL1        0.0887
     12 N         -24.7580   -1.4810   32.6460 N.3     1  UNL1       -0.2191
     13 C         -25.6880    1.6140   26.4610 C.3     1  UNL1        0.0916
     14 C         -26.2500    2.9200   26.3950 C.2     1  UNL1        0.0587
     15 C         -25.6420    4.0930   27.1230 C.2     1  UNL1        0.2627
     16 N         -25.6140    5.2520   26.4490 N.am    1  UNL1       -0.2000
     17 C         -25.0260    6.4790   26.9630 C.3     1  UNL1        0.1388
     18 O         -25.1430    3.9660   28.2430 O.2     1  UNL1       -0.2686
     19 C         -27.4380    3.0910   25.6450 C.2     1  UNL1        0.1025
     20 N         -28.0750    2.0890   25.0030 N.2     1  UNL1       -0.2118
     21 C         -27.5430    0.8490   25.0790 C.2     1  UNL1        0.2344
     22 O         -28.1930   -0.2080   24.4770 O.2     1  UNL1       -0.4585
     23 C         -29.4600    0.0050   23.8660 C.3     1  UNL1        0.2423
     24 C         -30.0650   -1.3770   23.5730 C.3     1  UNL1        0.2292
     25 O         -30.7290   -1.8780   24.7210 O.3     1  UNL1       -0.2162
     26 C         -26.3540    0.5760   25.7770 C.3     1  UNL1        0.2438
     27 F         -25.8600   -0.6810   25.7950 F       1  UNL1       -0.2265
     28 O         -21.8265    1.7954   26.1466 O.2     1  UNL1       -0.3309
     29 N         -24.6386    2.5040   29.8246 N.am    1  UNL1       -0.2026
     30 C         -25.7176    2.2397   30.4004 C.2     1  UNL1        0.2435
     31 C         -26.4133    4.9093   32.9318 C.3     1  UNL1        0.0334
     32 C         -23.2495    2.2447   26.0141 C.2     1  UNL1        0.2121
     33 C         -25.4401    3.7842   32.4226 C.3     1  UNL1        0.1606
     34 C         -22.5765    1.0579   28.4366 C.3     1  UNL1        0.1900
     35 C         -23.6787    0.3694   27.5982 C.3     1  UNL1        0.0615
     36 C         -23.2706    2.0478   29.4414 C.3     1  UNL1        0.1493
     37 O         -26.5920    1.6039   29.9283 O.2     1  UNL1       -0.2733
     38 C         -25.6745    6.1052   33.5743 C.3     1  UNL1        0.0027
     39 C         -24.3680    1.4636   26.7940 C.2     1  UNL1        0.0065
     40 C         -25.7704    2.3291   31.8428 C.3     1  UNL1        0.1099
     41 O         -21.4897    1.6094   27.5749 O.3     1  UNL1       -0.1731
     42 O         -24.1766    4.2550   31.9820 O.3     1  UNL1       -0.2226
@<TRIPOS>BOND
     1     2     7    1
     2     2     1    1
     3     3     2    2
     4     4     3    1
     5     4     5    2
     6     5     6    1
     7     6     7    2
     8     8     1    1
     9     8     9    1
    10     8    12    1
    11     9    40    1
    12     9    10    1
    13    10    11    1
    14    12    11    1
    15    13    39    1
    16    14    13    1
    17    14    15    1
    18    15    18    2
    19    16    17    1
    20    16    15    1
    21    19    14    2
    22    20    21    2
    23    20    19    1
    24    21    26    1
    25    22    21    1
    26    23    22    1
    27    24    23    1
    28    24    25    1
    29    26    27    1
    30    26    13    1
    31    28    41    1
    32    29    30    1
    33    31    38    1
    34    32    28    1
    35    32    39    2
    36    33    42    1
    37    33    31    1
    38    34    36    1
    39    35    34    1
    40    36    29    1
    41    37    30    2
    42    39    35    1
    43    40    30    1
    44    40    33    1
    45    41    34    1
