@<TRIPOS>MOLECULE
outputs/IAG933/test6/raw/output_6414_IAG933_linker_design_.xyz
 44 47 0 0 0
SMALL
GASTEIGER

@<TRIPOS>ATOM
      1 C         -24.8550   -1.0120   30.1430 C.3     1  UNL1        0.2008
      2 C         -24.9730   -2.5050   29.7880 C.2     1  UNL1        0.0214
      3 C         -23.9060   -3.1730   29.1460 C.2     1  UNL1       -0.0004
      4 C         -23.9890   -4.5490   28.8530 C.2     1  UNL1       -0.0002
      5 C         -25.1370   -5.2800   29.2050 C.2     1  UNL1       -0.0000
      6 C         -26.2320   -4.6110   29.7840 C.2     1  UNL1       -0.0002
      7 C         -26.1550   -3.2320   30.0650 C.2     1  UNL1       -0.0004
      8 C         -25.3870   -0.6790   31.5710 C.3     1  UNL1        0.1198
      9 C         -25.1890    0.7730   32.0280 C.3     1  UNL1        0.0233
     10 C         -25.3360    0.6840   33.5440 C.3     1  UNL1        0.0204
     11 C         -24.8290   -0.7150   33.9050 C.3     1  UNL1        0.0889
     12 N         -24.7580   -1.4810   32.6460 N.3     1  UNL1       -0.2150
     13 C         -25.6880    1.6140   26.4610 C.2     1  UNL1        0.0475
     14 C         -26.2500    2.9200   26.3950 C.2     1  UNL1        0.0769
     15 C         -25.6420    4.0930   27.1230 C.2     1  UNL1        0.2664
     16 N         -25.6140    5.2520   26.4490 N.am    1  UNL1       -0.1997
     17 C         -25.0260    6.4790   26.9630 C.3     1  UNL1        0.1388
     18 O         -25.1430    3.9660   28.2430 O.2     1  UNL1       -0.2683
     19 C         -27.4380    3.0910   25.6450 C.2     1  UNL1        0.1067
     20 N         -28.0750    2.0890   25.0030 N.2     1  UNL1       -0.2081
     21 C         -27.5430    0.8490   25.0790 C.2     1  UNL1        0.2533
     22 O         -28.1930   -0.2080   24.4770 O.2     1  UNL1       -0.4558
     23 C         -29.4600    0.0050   23.8660 C.3     1  UNL1        0.2426
     24 C         -30.0650   -1.3770   23.5730 C.3     1  UNL1        0.2292
     25 O         -30.7290   -1.8780   24.7210 O.3     1  UNL1       -0.2162
     26 C         -26.3540    0.5760   25.7770 C.2     1  UNL1        0.1934
     27 F         -25.8600   -0.6810   25.7950 F       1  UNL1       -0.1992
     28 O         -30.2945   -4.5273   29.1810 O.3     1  UNL1       -0.2204
     29 C         -22.0656    0.6962   28.7100 C.2     1  UNL1        0.2674
     30 C         -24.4651    1.2214   27.2180 C.2     1  UNL1        0.1146
     31 N         -23.2779    0.1032   29.0621 N.2     1  UNL1       -0.0336
     32 C         -29.1996    0.3796   28.6843 C.3     1  UNL1        0.1465
     33 C         -23.2104    1.6551   26.7909 C.2     1  UNL1        0.1784
     34 C         -30.3314   -1.6991   29.6571 C.3     1  UNL1        0.0053
     35 C         -24.4660    0.4162   28.4310 C.2     1  UNL1        0.3284
     36 C         -26.8420    0.5774   29.1030 C.3     1  UNL1        0.3587
     37 C         -31.1161   -4.0517   30.1955 C.3     1  UNL1        0.1821
     38 N         -25.5433   -0.1760   29.0737 N.pl3   1  UNL1       -0.1625
     39 F         -23.0522    2.1900   25.5437 F       1  UNL1       -0.2014
     40 C         -31.5463   -2.6024   29.9673 C.3     1  UNL1        0.0356
     41 C         -22.1090    1.5103   27.6285 C.2     1  UNL1        0.2141
     42 C         -30.5193   -0.3110   29.0882 C.3     1  UNL1        0.0323
     43 F         -20.9378    2.1870   27.3463 F       1  UNL1       -0.1977
     44 O         -28.0318   -0.2244   29.2379 O.3     1  UNL1       -0.3133
@<TRIPOS>BOND
     1     1    38    1
     2     2     7    1
     3     2     1    1
     4     3     2    2
     5     4     3    1
     6     4     5    2
     7     5     6    1
     8     6     7    2
     9     8     1    1
    10     8     9    1
    11     8    12    1
    12     9    10    1
    13    10    11    1
    14    12    11    1
    15    13    30    1
    16    14    13    1
    17    14    15    1
    18    15    18    2
    19    16    17    1
    20    16    15    1
    21    19    14    2
    22    20    21    2
    23    20    19    1
    24    21    26    1
    25    22    21    1
    26    23    22    1
    27    24    23    1
    28    24    25    1
    29    26    27    1
    30    26    13    2
    31    28    37    1
    32    29    31    1
    33    30    35    1
    34    32    42    1
    35    32    44    1
    36    33    30    2
    37    33    41    1
    38    34    40    1
    39    35    31    2
    40    35    38    1
    41    36    44    1
    42    38    36    1
    43    39    33    1
    44    40    37    1
    45    41    29    2
    46    42    34    1
    47    43    41    1
