@<TRIPOS>MOLECULE
outputs/IAG933/test6/raw/output_6417_IAG933_linker_design_.xyz
 45 49 0 0 0
SMALL
GASTEIGER

@<TRIPOS>ATOM
      1 C         -24.8550   -1.0120   30.1430 C.3     1  UNL1        0.2056
      2 C         -24.9730   -2.5050   29.7880 C.2     1  UNL1        0.0186
      3 C         -23.9060   -3.1730   29.1460 C.2     1  UNL1       -0.0008
      4 C         -23.9890   -4.5490   28.8530 C.2     1  UNL1       -0.0002
      5 C         -25.1370   -5.2800   29.2050 C.2     1  UNL1       -0.0000
      6 C         -26.2320   -4.6110   29.7840 C.2     1  UNL1       -0.0002
      7 C         -26.1550   -3.2320   30.0650 C.2     1  UNL1       -0.0008
      8 C         -25.3870   -0.6790   31.5710 C.3     1  UNL1        0.1170
      9 C         -25.1890    0.7730   32.0280 C.3     1  UNL1        0.0229
     10 C         -25.3360    0.6840   33.5440 C.3     1  UNL1        0.0204
     11 C         -24.8290   -0.7150   33.9050 C.3     1  UNL1        0.0888
     12 N         -24.7580   -1.4810   32.6460 N.3     1  UNL1       -0.2154
     13 C         -25.6880    1.6140   26.4610 C.2     1  UNL1        0.0426
     14 C         -26.2500    2.9200   26.3950 C.2     1  UNL1        0.0767
     15 C         -25.6420    4.0930   27.1230 C.2     1  UNL1        0.2664
     16 N         -25.6140    5.2520   26.4490 N.am    1  UNL1       -0.1997
     17 C         -25.0260    6.4790   26.9630 C.3     1  UNL1        0.1388
     18 O         -25.1430    3.9660   28.2430 O.2     1  UNL1       -0.2683
     19 C         -27.4380    3.0910   25.6450 C.2     1  UNL1        0.1067
     20 N         -28.0750    2.0890   25.0030 N.2     1  UNL1       -0.2081
     21 C         -27.5430    0.8490   25.0790 C.2     1  UNL1        0.2533
     22 O         -28.1930   -0.2080   24.4770 O.2     1  UNL1       -0.4560
     23 C         -29.4600    0.0050   23.8660 C.3     1  UNL1        0.2391
     24 C         -30.0650   -1.3770   23.5730 C.3     1  UNL1        0.1894
     25 O         -30.7290   -1.8780   24.7210 O.3     1  UNL1       -0.3483
     26 C         -26.3540    0.5760   25.7770 C.2     1  UNL1        0.1932
     27 F         -25.8600   -0.6810   25.7950 F       1  UNL1       -0.1992
     28 C         -30.2825    1.6784   29.8008 C.3     1  UNL1        0.0187
     29 N         -22.8671    0.2253   28.7848 N.2     1  UNL1       -0.2101
     30 C         -28.9084    1.1225   29.2699 C.3     1  UNL1        0.0385
     31 C         -31.5200   -1.3712   25.7553 C.3     1  UNL1        0.1597
     32 C         -23.1223    2.0322   26.5843 C.2     1  UNL1        0.0063
     33 C         -28.9130   -0.3510   28.8154 C.3     1  UNL1        0.1978
     34 N         -30.9396    0.3494   27.9167 N.3     1  UNL1       -0.2437
     35 C         -31.6931   -0.1468   26.6300 C.3     1  UNL1        0.1065
     36 C         -21.8231    1.8009   27.1626 C.2     1  UNL1        0.0209
     37 O         -28.3381   -1.2730   29.8152 O.3     1  UNL1       -0.2189
     38 C         -21.7247    0.8886   28.2819 C.2     1  UNL1        0.1021
     39 C         -30.0791    3.2273   29.5387 C.3     1  UNL1        0.0015
     40 O         -31.0747   -1.5596   29.2862 O.3     1  UNL1       -0.2021
     41 C         -31.4585    1.1193   28.9084 C.3     1  UNL1        0.0745
     42 O         -25.2303   -0.0634   29.1146 O.2     1  UNL1       -0.4579
     43 C         -24.3159    1.3736   27.1369 C.2     1  UNL1        0.0558
     44 C         -24.1777    0.4846   28.3388 C.2     1  UNL1        0.2250
     45 C         -30.2287   -0.9713   28.3211 C.3     1  UNL1        0.2431
@<TRIPOS>BOND
     1     1    42    1
     2     2     7    1
     3     2     1    1
     4     3     2    2
     5     4     3    1
     6     4     5    2
     7     5     6    1
     8     6     7    2
     9     8     1    1
    10     8     9    1
    11     8    12    1
    12     9    10    1
    13    10    11    1
    14    12    11    1
    15    13    43    1
    16    14    13    1
    17    14    15    1
    18    15    18    2
    19    16    17    1
    20    16    15    1
    21    19    14    2
    22    20    21    2
    23    20    19    1
    24    21    26    1
    25    22    21    1
    26    23    22    1
    27    24    23    1
    28    24    25    1
    29    25    31    1
    30    26    27    1
    31    26    13    2
    32    28    39    1
    33    30    28    1
    34    31    35    1
    35    32    43    2
    36    32    36    1
    37    33    30    1
    38    33    37    1
    39    34    45    1
    40    34    41    1
    41    35    34    1
    42    36    38    2
    43    38    29    1
    44    41    28    1
    45    43    44    1
    46    44    29    2
    47    44    42    1
    48    45    33    1
    49    45    40    1
