@<TRIPOS>MOLECULE
outputs/IAG933/test6/raw/output_642_IAG933_linker_design_.xyz
 41 45 0 0 0
SMALL
GASTEIGER

@<TRIPOS>ATOM
      1 C         -24.8550   -1.0120   30.1430 C.3     1  UNL1        0.1185
      2 C         -24.9730   -2.5050   29.7880 C.2     1  UNL1       -0.0026
      3 C         -23.9060   -3.1730   29.1460 C.2     1  UNL1       -0.0026
      4 C         -23.9890   -4.5490   28.8530 C.2     1  UNL1       -0.0003
      5 C         -25.1370   -5.2800   29.2050 C.2     1  UNL1       -0.0000
      6 C         -26.2320   -4.6110   29.7840 C.2     1  UNL1       -0.0003
      7 C         -26.1550   -3.2320   30.0650 C.2     1  UNL1       -0.0026
      8 C         -25.3870   -0.6790   31.5710 C.3     1  UNL1        0.0955
      9 C         -25.1890    0.7730   32.0280 C.3     1  UNL1        0.0209
     10 C         -25.3360    0.6840   33.5440 C.3     1  UNL1        0.0203
     11 C         -24.8290   -0.7150   33.9050 C.3     1  UNL1        0.0888
     12 N         -24.7580   -1.4810   32.6460 N.3     1  UNL1       -0.2174
     13 C         -25.6880    1.6140   26.4610 C.2     1  UNL1        0.0389
     14 C         -26.2500    2.9200   26.3950 C.2     1  UNL1        0.0764
     15 C         -25.6420    4.0930   27.1230 C.2     1  UNL1        0.2664
     16 N         -25.6140    5.2520   26.4490 N.am    1  UNL1       -0.1997
     17 C         -25.0260    6.4790   26.9630 C.3     1  UNL1        0.1388
     18 O         -25.1430    3.9660   28.2430 O.2     1  UNL1       -0.2683
     19 C         -27.4380    3.0910   25.6450 C.2     1  UNL1        0.1067
     20 N         -28.0750    2.0890   25.0030 N.2     1  UNL1       -0.2081
     21 C         -27.5430    0.8490   25.0790 C.2     1  UNL1        0.2533
     22 O         -28.1930   -0.2080   24.4770 O.2     1  UNL1       -0.4558
     23 C         -29.4600    0.0050   23.8660 C.3     1  UNL1        0.2426
     24 C         -30.0650   -1.3770   23.5730 C.3     1  UNL1        0.2292
     25 O         -30.7290   -1.8780   24.7210 O.3     1  UNL1       -0.2162
     26 C         -26.3540    0.5760   25.7770 C.2     1  UNL1        0.1929
     27 F         -25.8600   -0.6810   25.7950 F       1  UNL1       -0.1992
     28 C         -20.4784    0.8218   28.0059 C.3     1  UNL1        0.2237
     29 C         -26.3565    0.0828   28.6478 C.2     1  UNL1        0.3073
     30 C         -20.2465   -0.0694   28.7461 C.3     1  UNL1        0.0906
     31 C         -23.4038    1.9239   26.2798 C.3     1  UNL1        0.2332
     32 C         -24.1434    0.6442   28.1493 C.2     1  UNL1        0.0909
     33 C         -21.7494    1.1414   27.7827 C.2     1  UNL1        0.1838
     34 O         -22.3376    0.1016   29.8159 O.2     1  UNL1       -0.4713
     35 C         -24.4217    1.3442   26.9872 C.2     1  UNL1        0.0404
     36 O         -22.1076    1.9412   26.7434 O.2     1  UNL1       -0.4690
     37 F         -19.5405    1.8720   28.0255 F       1  UNL1       -0.2288
     38 O         -27.2176   -0.2908   27.9810 O.2     1  UNL1       -0.2646
     39 N         -25.0639   -0.0712   28.9629 N.am    1  UNL1       -0.2451
     40 C         -22.7831    0.6074   28.5755 C.2     1  UNL1        0.1840
     41 C         -21.2393   -0.7349   29.4722 C.3     1  UNL1        0.2089
@<TRIPOS>BOND
     1     1    39    1
     2     2     7    1
     3     2     1    1
     4     3     2    2
     5     4     3    1
     6     4     5    2
     7     5     6    1
     8     6     7    2
     9     8     1    1
    10     8     9    1
    11     8    12    1
    12     9    10    1
    13    10    11    1
    14    12    11    1
    15    13    35    1
    16    14    13    1
    17    14    15    1
    18    15    18    2
    19    16    17    1
    20    16    15    1
    21    19    14    2
    22    20    21    2
    23    20    19    1
    24    21    26    1
    25    22    21    1
    26    23    22    1
    27    24    23    1
    28    24    25    1
    29    26    27    1
    30    26    13    2
    31    28    37    1
    32    28    30    1
    33    29    39   am
    34    30    41    1
    35    31    36    1
    36    31    35    1
    37    32    40    1
    38    32    39    1
    39    33    28    1
    40    33    40    2
    41    35    32    2
    42    36    33    1
    43    38    29    2
    44    40    34    1
    45    41    34    1
