@<TRIPOS>MOLECULE
outputs/IAG933/test6/raw/output_6421_IAG933_linker_design_.xyz
 42 45 0 0 0
SMALL
GASTEIGER

@<TRIPOS>ATOM
      1 C         -24.8550   -1.0120   30.1430 C.3     1  UNL1        0.1185
      2 C         -24.9730   -2.5050   29.7880 C.2     1  UNL1       -0.0026
      3 C         -23.9060   -3.1730   29.1460 C.2     1  UNL1       -0.0026
      4 C         -23.9890   -4.5490   28.8530 C.2     1  UNL1       -0.0003
      5 C         -25.1370   -5.2800   29.2050 C.2     1  UNL1       -0.0000
      6 C         -26.2320   -4.6110   29.7840 C.2     1  UNL1       -0.0003
      7 C         -26.1550   -3.2320   30.0650 C.2     1  UNL1       -0.0026
      8 C         -25.3870   -0.6790   31.5710 C.3     1  UNL1        0.0955
      9 C         -25.1890    0.7730   32.0280 C.3     1  UNL1        0.0209
     10 C         -25.3360    0.6840   33.5440 C.3     1  UNL1        0.0203
     11 C         -24.8290   -0.7150   33.9050 C.3     1  UNL1        0.0888
     12 N         -24.7580   -1.4810   32.6460 N.3     1  UNL1       -0.2174
     13 C         -25.6880    1.6140   26.4610 C.2     1  UNL1        0.0416
     14 C         -26.2500    2.9200   26.3950 C.2     1  UNL1        0.0767
     15 C         -25.6420    4.0930   27.1230 C.2     1  UNL1        0.2664
     16 N         -25.6140    5.2520   26.4490 N.am    1  UNL1       -0.1997
     17 C         -25.0260    6.4790   26.9630 C.3     1  UNL1        0.1388
     18 O         -25.1430    3.9660   28.2430 O.2     1  UNL1       -0.2683
     19 C         -27.4380    3.0910   25.6450 C.2     1  UNL1        0.1067
     20 N         -28.0750    2.0890   25.0030 N.2     1  UNL1       -0.2081
     21 C         -27.5430    0.8490   25.0790 C.2     1  UNL1        0.2533
     22 O         -28.1930   -0.2080   24.4770 O.2     1  UNL1       -0.4558
     23 C         -29.4600    0.0050   23.8660 C.3     1  UNL1        0.2426
     24 C         -30.0650   -1.3770   23.5730 C.3     1  UNL1        0.2292
     25 O         -30.7290   -1.8780   24.7210 O.3     1  UNL1       -0.2162
     26 C         -26.3540    0.5760   25.7770 C.2     1  UNL1        0.1932
     27 F         -25.8600   -0.6810   25.7950 F       1  UNL1       -0.1992
     28 C         -23.3180    1.5449   26.1807 C.ar    1  UNL1        0.1709
     29 C         -22.9443    0.4073   28.7692 C.ar    1  UNL1        0.1324
     30 F         -21.0802    2.0907   26.2230 F       1  UNL1       -0.1994
     31 O         -26.7302    1.5225   29.2696 O.2     1  UNL1       -0.2659
     32 C         -26.5699    0.3341   28.9524 C.2     1  UNL1        0.2956
     33 C         -27.6662   -0.4454   28.4492 C.2     1  UNL1        0.2921
     34 N         -22.4957   -0.2363   29.9259 N.pl3   1  UNL1       -0.1243
     35 F         -20.7044    1.1497   28.4593 F       1  UNL1       -0.2002
     36 F         -23.3855    1.8056   24.8471 F       1  UNL1       -0.2017
     37 C         -24.3898    1.1602   26.9830 C.ar    1  UNL1        0.0474
     38 O         -28.4285   -1.1466   29.1346 O.2     1  UNL1       -0.2781
     39 C         -24.2727    0.4633   28.2413 C.ar    1  UNL1        0.0758
     40 C         -22.1030    1.5961   26.7880 C.ar    1  UNL1        0.1960
     41 N         -25.3130   -0.1415   28.9998 N.am    1  UNL1       -0.2473
     42 C         -21.9358    1.0553   28.0222 C.ar    1  UNL1        0.1874
@<TRIPOS>BOND
     1     1    41    1
     2     2     7    1
     3     2     1    1
     4     3     2    2
     5     4     3    1
     6     4     5    2
     7     5     6    1
     8     6     7    2
     9     8     1    1
    10     8     9    1
    11     8    12    1
    12     9    10    1
    13    10    11    1
    14    12    11    1
    15    13    37    1
    16    14    13    1
    17    14    15    1
    18    15    18    2
    19    16    17    1
    20    16    15    1
    21    19    14    2
    22    20    21    2
    23    20    19    1
    24    21    26    1
    25    22    21    1
    26    23    22    1
    27    24    23    1
    28    24    25    1
    29    26    27    1
    30    26    13    2
    31    28    40   ar
    32    28    37   ar
    33    29    34    1
    34    30    40    1
    35    32    41   am
    36    32    31    2
    37    33    32    1
    38    33    38    2
    39    36    28    1
    40    37    39   ar
    41    39    29   ar
    42    39    41    1
    43    40    42   ar
    44    42    35    1
    45    42    29   ar
