@<TRIPOS>MOLECULE
outputs/IAG933/test6/raw/output_6427_IAG933_linker_design_.xyz
 40 43 0 0 0
SMALL
GASTEIGER

@<TRIPOS>ATOM
      1 C         -24.8550   -1.0120   30.1430 C.3     1  UNL1        0.0438
      2 C         -24.9730   -2.5050   29.7880 C.2     1  UNL1       -0.0208
      3 C         -23.9060   -3.1730   29.1460 C.2     1  UNL1       -0.0042
      4 C         -23.9890   -4.5490   28.8530 C.2     1  UNL1       -0.0003
      5 C         -25.1370   -5.2800   29.2050 C.2     1  UNL1       -0.0000
      6 C         -26.2320   -4.6110   29.7840 C.2     1  UNL1       -0.0003
      7 C         -26.1550   -3.2320   30.0650 C.2     1  UNL1       -0.0042
      8 C         -25.3870   -0.6790   31.5710 C.3     1  UNL1        0.0789
      9 C         -25.1890    0.7730   32.0280 C.3     1  UNL1        0.0403
     10 C         -25.3360    0.6840   33.5440 C.3     1  UNL1        0.0220
     11 C         -24.8290   -0.7150   33.9050 C.3     1  UNL1        0.0888
     12 N         -24.7580   -1.4810   32.6460 N.3     1  UNL1       -0.2191
     13 C         -25.6880    1.6140   26.4610 C.3     1  UNL1        0.2357
     14 C         -26.2500    2.9200   26.3950 C.2     1  UNL1        0.0946
     15 C         -25.6420    4.0930   27.1230 C.2     1  UNL1        0.2658
     16 N         -25.6140    5.2520   26.4490 N.am    1  UNL1       -0.1999
     17 C         -25.0260    6.4790   26.9630 C.3     1  UNL1        0.1388
     18 O         -25.1430    3.9660   28.2430 O.2     1  UNL1       -0.2685
     19 C         -27.4380    3.0910   25.6450 C.2     1  UNL1        0.1057
     20 N         -28.0750    2.0890   25.0030 N.2     1  UNL1       -0.2116
     21 C         -27.5430    0.8490   25.0790 C.2     1  UNL1        0.2379
     22 O         -28.1930   -0.2080   24.4770 O.2     1  UNL1       -0.4584
     23 C         -29.4600    0.0050   23.8660 C.3     1  UNL1        0.2423
     24 C         -30.0650   -1.3770   23.5730 C.3     1  UNL1        0.2292
     25 O         -30.7290   -1.8780   24.7210 O.3     1  UNL1       -0.2162
     26 C         -26.3540    0.5760   25.7770 C.3     1  UNL1        0.2797
     27 F         -25.8600   -0.6810   25.7950 F       1  UNL1       -0.2229
     28 C         -21.1987    1.0089   27.9325 C.2     1  UNL1        0.0469
     29 C         -24.7732    2.9490   31.4480 C.3     1  UNL1        0.2035
     30 C         -23.6077    1.6097   27.1128 C.2     1  UNL1        0.1954
     31 C         -22.3461    0.6410   28.6484 C.2     1  UNL1        0.2136
     32 O         -22.7518    2.8723   25.2114 O.2     1  UNL1       -0.2833
     33 C         -23.5671    1.2889   28.4263 C.2     1  UNL1        0.1415
     34 C         -22.5147    2.1105   26.2650 C.2     1  UNL1        0.2308
     35 C         -21.2706    1.7196   26.7174 C.2     1  UNL1        0.0486
     36 CA        -24.4374    1.6567   30.9042 C.3     1  UNL1        0.1269
     37 N         -24.5966    1.5334   29.3959 N.pl3   1  UNL1       -0.2306
     38 O         -24.4794    1.3760   26.6559 O.2     1  UNL1       -0.4665
     39 O         -22.4378   -0.4360   29.3439 O.2     1  UNL1       -0.2851
     40 O         -25.0707    3.8044   32.0824 O.3     1  UNL1       -0.2185
@<TRIPOS>BOND
     1     2     7    1
     2     2     1    1
     3     3     2    2
     4     4     3    1
     5     4     5    2
     6     5     6    1
     7     6     7    2
     8     8     1    1
     9     8     9    1
    10     8    12    1
    11     9    36    1
    12     9    10    1
    13    10    11    1
    14    12    11    1
    15    13    38    1
    16    14    13    1
    17    14    15    1
    18    15    18    2
    19    16    17    1
    20    16    15    1
    21    19    14    2
    22    20    21    2
    23    20    19    1
    24    21    26    1
    25    22    21    1
    26    23    22    1
    27    24    23    1
    28    24    25    1
    29    26    27    1
    30    26    13    1
    31    28    31    1
    32    29    40    1
    33    30    33    1
    34    31    39    1
    35    32    34    1
    36    33    31    2
    37    33    37    1
    38    34    35    1
    39    34    30    2
    40    35    28    2
    41    36    29    1
    42    37    36    1
    43    38    30    1
