@<TRIPOS>MOLECULE
outputs/IAG933/test6/raw/output_643_IAG933_linker_design_.xyz
 43 47 0 0 0
SMALL
GASTEIGER

@<TRIPOS>ATOM
      1 C         -24.8550   -1.0120   30.1430 C.3     1  UNL1        0.0653
      2 C         -24.9730   -2.5050   29.7880 C.2     1  UNL1       -0.0190
      3 C         -23.9060   -3.1730   29.1460 C.2     1  UNL1       -0.0042
      4 C         -23.9890   -4.5490   28.8530 C.2     1  UNL1       -0.0003
      5 C         -25.1370   -5.2800   29.2050 C.2     1  UNL1       -0.0000
      6 C         -26.2320   -4.6110   29.7840 C.2     1  UNL1       -0.0003
      7 C         -26.1550   -3.2320   30.0650 C.2     1  UNL1       -0.0042
      8 C         -25.3870   -0.6790   31.5710 C.3     1  UNL1        0.0789
      9 C         -25.1890    0.7730   32.0280 C.3     1  UNL1        0.0193
     10 C         -25.3360    0.6840   33.5440 C.3     1  UNL1        0.0202
     11 C         -24.8290   -0.7150   33.9050 C.3     1  UNL1        0.0887
     12 N         -24.7580   -1.4810   32.6460 N.3     1  UNL1       -0.2191
     13 C         -25.6880    1.6140   26.4610 C.3     1  UNL1        0.0944
     14 C         -26.2500    2.9200   26.3950 C.2     1  UNL1        0.0590
     15 C         -25.6420    4.0930   27.1230 C.2     1  UNL1        0.2628
     16 N         -25.6140    5.2520   26.4490 N.am    1  UNL1       -0.2000
     17 C         -25.0260    6.4790   26.9630 C.3     1  UNL1        0.1388
     18 O         -25.1430    3.9660   28.2430 O.2     1  UNL1       -0.2686
     19 C         -27.4380    3.0910   25.6450 C.2     1  UNL1        0.1025
     20 N         -28.0750    2.0890   25.0030 N.2     1  UNL1       -0.2118
     21 C         -27.5430    0.8490   25.0790 C.2     1  UNL1        0.2344
     22 O         -28.1930   -0.2080   24.4770 O.2     1  UNL1       -0.4585
     23 C         -29.4600    0.0050   23.8660 C.3     1  UNL1        0.2423
     24 C         -30.0650   -1.3770   23.5730 C.3     1  UNL1        0.2292
     25 O         -30.7290   -1.8780   24.7210 O.3     1  UNL1       -0.2162
     26 C         -26.3540    0.5760   25.7770 C.3     1  UNL1        0.2441
     27 F         -25.8600   -0.6810   25.7950 F       1  UNL1       -0.2265
     28 C         -23.0705    1.7788   26.0401 C.2     1  UNL1        0.0553
     29 C         -28.4056    3.0988   29.5136 C.3     1  UNL1        0.0233
     30 C         -24.2393    1.3957   26.8058 C.2     1  UNL1        0.0089
     31 N         -27.6070    0.8626   30.0214 N.am    1  UNL1       -0.2764
     32 CL        -23.2804    2.4627   24.5053 Cl      1  UNL1       -0.0825
     33 C         -24.0270    0.9533   28.0844 C.2     1  UNL1        0.0454
     34 C         -26.0215    2.0812   29.3144 C.3     1  UNL1        0.1109
     35 N         -25.1761    1.0144   28.8662 N.pl3   1  UNL1       -0.2997
     36 C         -25.7157   -0.3026   29.1109 C.3     1  UNL1        0.1554
     37 C         -27.3306    1.9250   29.5920 C.3     1  UNL1        0.0952
     38 C         -28.0728    1.2243   31.3730 C.3     1  UNL1        0.1149
     39 C         -21.7842    1.6742   26.5329 C.2     1  UNL1        0.0112
     40 C         -21.6105    1.1276   27.8307 C.2     1  UNL1        0.0021
     41 C         -22.7215    0.7259   28.5944 C.2     1  UNL1        0.0143
     42 C         -27.1661   -0.1957   29.1927 C.2     1  UNL1        0.2441
     43 O         -27.8692   -0.7793   28.4709 O.2     1  UNL1       -0.2731
@<TRIPOS>BOND
     1     1     2    1
     2     2     7    1
     3     3     2    2
     4     4     3    1
     5     4     5    2
     6     5     6    1
     7     6     7    2
     8     8     1    1
     9     8     9    1
    10     8    12    1
    11     9    10    1
    12    10    11    1
    13    12    11    1
    14    13    30    1
    15    14    13    1
    16    14    15    1
    17    15    18    2
    18    16    17    1
    19    16    15    1
    20    19    14    2
    21    20    21    2
    22    20    19    1
    23    21    26    1
    24    22    21    1
    25    23    22    1
    26    24    23    1
    27    24    25    1
    28    26    27    1
    29    26    13    1
    30    28    39    2
    31    28    30    1
    32    30    33    2
    33    31    38    1
    34    32    28    1
    35    33    41    1
    36    33    35    1
    37    34    37    1
    38    35    36    1
    39    35    34    1
    40    36    42    1
    41    36     1    1
    42    37    29    1
    43    37    31    1
    44    39    40    1
    45    40    41    2
    46    42    31   am
    47    43    42    2
