@<TRIPOS>MOLECULE
outputs/IAG933/test6/raw/output_6434_IAG933_linker_design_.xyz
 49 53 0 0 0
SMALL
GASTEIGER

@<TRIPOS>ATOM
      1 C         -24.8550   -1.0120   30.1430 C.3     1  UNL1        0.0680
      2 C         -24.9730   -2.5050   29.7880 C.2     1  UNL1       -0.0165
      3 C         -23.9060   -3.1730   29.1460 C.2     1  UNL1       -0.0039
      4 C         -23.9890   -4.5490   28.8530 C.2     1  UNL1       -0.0003
      5 C         -25.1370   -5.2800   29.2050 C.2     1  UNL1       -0.0000
      6 C         -26.2320   -4.6110   29.7840 C.2     1  UNL1       -0.0003
      7 C         -26.1550   -3.2320   30.0650 C.2     1  UNL1       -0.0039
      8 C         -25.3870   -0.6790   31.5710 C.3     1  UNL1        0.0815
      9 C         -25.1890    0.7730   32.0280 C.3     1  UNL1        0.0195
     10 C         -25.3360    0.6840   33.5440 C.3     1  UNL1        0.0203
     11 C         -24.8290   -0.7150   33.9050 C.3     1  UNL1        0.0887
     12 N         -24.7580   -1.4810   32.6460 N.3     1  UNL1       -0.2188
     13 C         -25.6880    1.6140   26.4610 C.2     1  UNL1        0.0382
     14 C         -26.2500    2.9200   26.3950 C.2     1  UNL1        0.0765
     15 C         -25.6420    4.0930   27.1230 C.2     1  UNL1        0.2664
     16 N         -25.6140    5.2520   26.4490 N.am    1  UNL1       -0.1997
     17 C         -25.0260    6.4790   26.9630 C.3     1  UNL1        0.1388
     18 O         -25.1430    3.9660   28.2430 O.2     1  UNL1       -0.2683
     19 C         -27.4380    3.0910   25.6450 C.2     1  UNL1        0.1067
     20 N         -28.0750    2.0890   25.0030 N.2     1  UNL1       -0.2081
     21 C         -27.5430    0.8490   25.0790 C.2     1  UNL1        0.2533
     22 O         -28.1930   -0.2080   24.4770 O.2     1  UNL1       -0.4560
     23 C         -29.4600    0.0050   23.8660 C.3     1  UNL1        0.2391
     24 C         -30.0650   -1.3770   23.5730 C.3     1  UNL1        0.1893
     25 O         -30.7290   -1.8780   24.7210 O.3     1  UNL1       -0.3505
     26 C         -26.3540    0.5760   25.7770 C.2     1  UNL1        0.1930
     27 F         -25.8600   -0.6810   25.7950 F       1  UNL1       -0.1992
     28 C         -23.2589    0.7175   28.4512 C.2     1  UNL1        0.0002
     29 C         -26.7334    0.2467   29.2439 C.1     1  UNL1       -0.1095
     30 C         -21.8841    1.0273   28.2412 C.2     1  UNL1        0.0023
     31 C         -28.9177    0.0996   30.4665 C.3     1  UNL1        0.0430
     32 O         -32.0570   -1.3397   30.8061 O.2     1  UNL1       -0.2749
     33 C         -29.1407   -2.5497   30.7327 C.3     1  UNL1        0.0094
     34 C         -25.6303   -0.3988   29.2099 C.2     1  UNL1        0.0203
     35 C         -24.2377    1.3910   27.6159 C.2     1  UNL1        0.0047
     36 C         -31.0971   -0.9340   30.1695 C.2     1  UNL1        0.2251
     37 C         -30.8887   -1.2759   26.0453 C.3     1  UNL1        0.1352
     38 N         -31.0669   -0.6317   28.8240 N.am    1  UNL1       -0.2771
     39 C         -31.2884    1.1492   27.1461 C.3     1  UNL1        0.0241
     40 C         -30.0718   -0.8280   32.4357 C.3     1  UNL1        0.0094
     41 C         -31.0175   -1.6769   27.6090 C.3     1  UNL1        0.1228
     42 C         -29.7459   -0.9870   31.0459 C.3     1  UNL1        0.0737
     43 C         -31.4821    0.1395   25.9935 C.3     1  UNL1        0.0331
     44 C         -27.8134    0.5599   29.6064 C.2     1  UNL1        0.0153
     45 C         -23.7603    2.1072   26.5167 C.2     1  UNL1        0.0297
     46 C         -22.5165    2.0364   26.0997 C.2     1  UNL1        0.1401
     47 C         -31.7285    0.6376   28.5157 C.3     1  UNL1        0.0936
     48 C         -21.4955    1.6385   27.0696 C.2     1  UNL1        0.0296
     49 F         -22.2063    2.2325   24.7941 F       1  UNL1       -0.2042
@<TRIPOS>BOND
     1     1    34    1
     2     2     7    1
     3     2     1    1
     4     3     2    2
     5     4     3    1
     6     4     5    2
     7     5     6    1
     8     6     7    2
     9     8     1    1
    10     8     9    1
    11     8    12    1
    12     9    10    1
    13    10    11    1
    14    12    11    1
    15    13    35    1
    16    14    13    1
    17    14    15    1
    18    15    18    2
    19    16    17    1
    20    16    15    1
    21    19    14    2
    22    20    21    2
    23    20    19    1
    24    21    26    1
    25    22    21    1
    26    23    22    1
    27    24    23    1
    28    24    25    1
    29    26    27    1
    30    26    13    2
    31    29    44    2
    32    30    28    1
    33    31    42    1
    34    33    42    1
    35    34    29    2
    36    35    28    2
    37    36    32    2
    38    36    42    1
    39    37    25    1
    40    37    41    1
    41    38    36   am
    42    39    47    1
    43    41    38    1
    44    42    40    1
    45    43    37    1
    46    43    39    1
    47    44    31    1
    48    45    35    1
    49    46    45    2
    50    46    48    1
    51    47    38    1
    52    48    30    2
    53    49    46    1
