@<TRIPOS>MOLECULE
outputs/IAG933/test6/raw/output_6437_IAG933_linker_design_.xyz
 39 42 0 0 0
SMALL
GASTEIGER

@<TRIPOS>ATOM
      1 C         -24.8550   -1.0120   30.1430 C.3     1  UNL1        0.1145
      2 C         -24.9730   -2.5050   29.7880 C.2     1  UNL1       -0.0089
      3 C         -23.9060   -3.1730   29.1460 C.2     1  UNL1       -0.0033
      4 C         -23.9890   -4.5490   28.8530 C.2     1  UNL1       -0.0003
      5 C         -25.1370   -5.2800   29.2050 C.2     1  UNL1       -0.0000
      6 C         -26.2320   -4.6110   29.7840 C.2     1  UNL1       -0.0003
      7 C         -26.1550   -3.2320   30.0650 C.2     1  UNL1       -0.0033
      8 C         -25.3870   -0.6790   31.5710 C.3     1  UNL1        0.0891
      9 C         -25.1890    0.7730   32.0280 C.3     1  UNL1        0.0201
     10 C         -25.3360    0.6840   33.5440 C.3     1  UNL1        0.0203
     11 C         -24.8290   -0.7150   33.9050 C.3     1  UNL1        0.0887
     12 N         -24.7580   -1.4810   32.6460 N.3     1  UNL1       -0.2182
     13 C         -25.6880    1.6140   26.4610 C.3     1  UNL1        0.0835
     14 C         -26.2500    2.9200   26.3950 C.2     1  UNL1        0.0556
     15 C         -25.6420    4.0930   27.1230 C.2     1  UNL1        0.2625
     16 N         -25.6140    5.2520   26.4490 N.am    1  UNL1       -0.2000
     17 C         -25.0260    6.4790   26.9630 C.3     1  UNL1        0.1388
     18 O         -25.1430    3.9660   28.2430 O.2     1  UNL1       -0.2687
     19 C         -27.4380    3.0910   25.6450 C.2     1  UNL1        0.1022
     20 N         -28.0750    2.0890   25.0030 N.2     1  UNL1       -0.2119
     21 C         -27.5430    0.8490   25.0790 C.2     1  UNL1        0.2341
     22 O         -28.1930   -0.2080   24.4770 O.2     1  UNL1       -0.4585
     23 C         -29.4600    0.0050   23.8660 C.3     1  UNL1        0.2423
     24 C         -30.0650   -1.3770   23.5730 C.3     1  UNL1        0.2292
     25 O         -30.7290   -1.8780   24.7210 O.3     1  UNL1       -0.2162
     26 C         -26.3540    0.5760   25.7770 C.3     1  UNL1        0.2408
     27 F         -25.8600   -0.6810   25.7950 F       1  UNL1       -0.2269
     28 C         -21.5236    1.0202   27.8172 C.2     1  UNL1        0.2166
     29 N         -26.2827    1.3069   29.3074 N.3     1  UNL1       -0.0490
     30 S         -25.3147    0.1369   28.8992 S.3     1  UNL1        0.0296
     31 C         -24.0567    0.7399   28.1623 C.2     1  UNL1        0.0408
     32 C         -21.2197   -0.7014   28.9263 C.3     1  UNL1        0.2540
     33 N         -21.8238    1.8374   26.7047 N.am    1  UNL1       -0.1445
     34 C         -23.1627    2.1537   26.3407 C.2     1  UNL1        0.2526
     35 O         -26.1845   -0.6485   28.0842 O.3     1  UNL1       -0.1501
     36 C         -22.7347    0.5935   28.6015 C.2     1  UNL1        0.0592
     37 O         -23.2742    3.0523   25.4653 O.2     1  UNL1       -0.2725
     38 C         -24.2900    1.5228   26.9533 C.3     1  UNL1        0.1159
     39 O         -20.6535    0.0504   28.1323 O.2     1  UNL1       -0.4577
@<TRIPOS>BOND
     1     1    30    1
     2     2     7    1
     3     2     1    1
     4     3     2    2
     5     4     3    1
     6     4     5    2
     7     5     6    1
     8     6     7    2
     9     8     1    1
    10     8     9    1
    11     8    12    1
    12     9    10    1
    13    10    11    1
    14    12    11    1
    15    13    14    1
    16    13    38    1
    17    14    15    1
    18    15    18    2
    19    16    17    1
    20    16    15    1
    21    19    14    2
    22    20    21    2
    23    20    19    1
    24    21    26    1
    25    22    21    1
    26    23    22    1
    27    24    23    1
    28    24    25    1
    29    26    27    1
    30    26    13    1
    31    28    39    1
    32    28    36    1
    33    30    35    1
    34    30    29    1
    35    31    36    2
    36    31    30    1
    37    33    28    2
    38    34    33    1
    39    37    34    2
    40    38    34    1
    41    38    31    1
    42    39    32    1
