@<TRIPOS>MOLECULE
outputs/IAG933/test6/raw/output_6438_IAG933_linker_design_.xyz
 46 51 0 0 0
SMALL
GASTEIGER

@<TRIPOS>ATOM
      1 C         -24.8550   -1.0120   30.1430 C.3     1  UNL1        0.0581
      2 C         -24.9730   -2.5050   29.7880 C.2     1  UNL1       -0.0195
      3 C         -23.9060   -3.1730   29.1460 C.2     1  UNL1       -0.0042
      4 C         -23.9890   -4.5490   28.8530 C.2     1  UNL1       -0.0003
      5 C         -25.1370   -5.2800   29.2050 C.2     1  UNL1       -0.0000
      6 C         -26.2320   -4.6110   29.7840 C.2     1  UNL1       -0.0003
      7 C         -26.1550   -3.2320   30.0650 C.2     1  UNL1       -0.0042
      8 C         -25.3870   -0.6790   31.5710 C.3     1  UNL1        0.0785
      9 C         -25.1890    0.7730   32.0280 C.3     1  UNL1        0.0192
     10 C         -25.3360    0.6840   33.5440 C.3     1  UNL1        0.0202
     11 C         -24.8290   -0.7150   33.9050 C.3     1  UNL1        0.0887
     12 N         -24.7580   -1.4810   32.6460 N.3     1  UNL1       -0.2191
     13 C         -25.6880    1.6140   26.4610 C.3     1  UNL1        0.1057
     14 C         -26.2500    2.9200   26.3950 C.2     1  UNL1        0.0601
     15 C         -25.6420    4.0930   27.1230 C.2     1  UNL1        0.2628
     16 N         -25.6140    5.2520   26.4490 N.am    1  UNL1       -0.2000
     17 C         -25.0260    6.4790   26.9630 C.3     1  UNL1        0.1388
     18 O         -25.1430    3.9660   28.2430 O.2     1  UNL1       -0.2686
     19 C         -27.4380    3.0910   25.6450 C.2     1  UNL1        0.1025
     20 N         -28.0750    2.0890   25.0030 N.2     1  UNL1       -0.2118
     21 C         -27.5430    0.8490   25.0790 C.2     1  UNL1        0.2345
     22 O         -28.1930   -0.2080   24.4770 O.2     1  UNL1       -0.4585
     23 C         -29.4600    0.0050   23.8660 C.3     1  UNL1        0.2423
     24 C         -30.0650   -1.3770   23.5730 C.3     1  UNL1        0.2292
     25 O         -30.7290   -1.8780   24.7210 O.3     1  UNL1       -0.2162
     26 C         -26.3540    0.5760   25.7770 C.3     1  UNL1        0.2452
     27 F         -25.8600   -0.6810   25.7950 F       1  UNL1       -0.2265
     28 O         -22.6542   -0.0987   28.8719 O.2     1  UNL1       -0.2420
     29 O         -28.0415   -0.5020   28.6120 O.3     1  UNL1       -0.2164
     30 C         -28.2065    2.9865   29.5901 C.2     1  UNL1       -0.0021
     31 C         -29.6035    1.2856   30.6229 C.2     1  UNL1       -0.0021
     32 C         -28.5900    1.6464   29.6990 C.2     1  UNL1        0.0094
     33 C         -29.2114    4.2552   32.8940 C.3     1  UNL1        0.0310
     34 C         -26.3628    1.1544   29.1828 C.3     1  UNL1        0.1257
     35 C         -22.5028    0.7579   27.9591 C.2     1  UNL1        0.3743
     36 C         -27.7514    0.7062   28.9780 C.3     1  UNL1        0.1938
     37 C         -22.7799    2.0903   26.1976 C.3     1  UNL1        0.2296
     38 C         -23.4776    1.2830   27.2426 C.2     1  UNL1        0.0998
     39 N         -25.3276    0.7128   28.3918 N.pl3   1  UNL1       -0.3074
     40 C         -25.6332   -0.1958   29.1675 C.3     1  UNL1        0.0988
     41 C         -29.3023    3.4393   31.6717 C.2     1  UNL1       -0.0219
     42 C         -28.5559    3.8649   30.5954 C.2     1  UNL1       -0.0045
     43 O         -21.2956    1.2328   27.5133 O.3     1  UNL1       -0.2908
     44 C         -24.8283    1.1807   27.4094 C.2     1  UNL1        0.0369
     45 O         -21.4049    2.0387   26.3785 O.3     1  UNL1       -0.1642
     46 C         -29.9443    2.2072   31.6059 C.2     1  UNL1       -0.0045
@<TRIPOS>BOND
     1     1     2    1
     2     2     7    1
     3     3     2    2
     4     4     3    1
     5     4     5    2
     6     5     6    1
     7     6     7    2
     8     8     1    1
     9     8     9    1
    10     8    12    1
    11     9    10    1
    12    10    11    1
    13    12    11    1
    14    13    44    1
    15    14    13    1
    16    14    15    1
    17    15    18    2
    18    16    17    1
    19    16    15    1
    20    19    14    2
    21    20    21    2
    22    20    19    1
    23    21    26    1
    24    22    21    1
    25    23    22    1
    26    24    23    1
    27    24    25    1
    28    26    27    1
    29    26    13    1
    30    30    32    2
    31    30    42    1
    32    31    46    2
    33    32    31    1
    34    34    36    1
    35    35    28    2
    36    36    29    1
    37    36    32    1
    38    37    45    1
    39    37    38    1
    40    38    44    2
    41    38    35    1
    42    39    40    1
    43    39    34    1
    44    40    34    1
    45    40     1    1
    46    41    33    1
    47    42    41    2
    48    43    35    1
    49    44    39    1
    50    45    43    1
    51    46    41    1
