@<TRIPOS>MOLECULE
outputs/IAG933/test6/raw/output_6445_IAG933_linker_design_.xyz
 42 45 0 0 0
SMALL
GASTEIGER

@<TRIPOS>ATOM
      1 C         -24.8550   -1.0120   30.1430 C.3     1  UNL1        0.2057
      2 C         -24.9730   -2.5050   29.7880 C.2     1  UNL1        0.0218
      3 C         -23.9060   -3.1730   29.1460 C.2     1  UNL1       -0.0004
      4 C         -23.9890   -4.5490   28.8530 C.2     1  UNL1       -0.0002
      5 C         -25.1370   -5.2800   29.2050 C.2     1  UNL1       -0.0000
      6 C         -26.2320   -4.6110   29.7840 C.2     1  UNL1       -0.0002
      7 C         -26.1550   -3.2320   30.0650 C.2     1  UNL1       -0.0004
      8 C         -25.3870   -0.6790   31.5710 C.3     1  UNL1        0.1202
      9 C         -25.1890    0.7730   32.0280 C.3     1  UNL1        0.0233
     10 C         -25.3360    0.6840   33.5440 C.3     1  UNL1        0.0204
     11 C         -24.8290   -0.7150   33.9050 C.3     1  UNL1        0.0889
     12 N         -24.7580   -1.4810   32.6460 N.3     1  UNL1       -0.2150
     13 C         -25.6880    1.6140   26.4610 C.2     1  UNL1        0.0434
     14 C         -26.2500    2.9200   26.3950 C.2     1  UNL1        0.0765
     15 C         -25.6420    4.0930   27.1230 C.2     1  UNL1        0.2664
     16 N         -25.6140    5.2520   26.4490 N.am    1  UNL1       -0.1997
     17 C         -25.0260    6.4790   26.9630 C.3     1  UNL1        0.1388
     18 O         -25.1430    3.9660   28.2430 O.2     1  UNL1       -0.2683
     19 C         -27.4380    3.0910   25.6450 C.2     1  UNL1        0.1067
     20 N         -28.0750    2.0890   25.0030 N.2     1  UNL1       -0.2081
     21 C         -27.5430    0.8490   25.0790 C.2     1  UNL1        0.2533
     22 O         -28.1930   -0.2080   24.4770 O.2     1  UNL1       -0.4558
     23 C         -29.4600    0.0050   23.8660 C.3     1  UNL1        0.2426
     24 C         -30.0650   -1.3770   23.5730 C.3     1  UNL1        0.2292
     25 O         -30.7290   -1.8780   24.7210 O.3     1  UNL1       -0.2162
     26 C         -26.3540    0.5760   25.7770 C.2     1  UNL1        0.1931
     27 F         -25.8600   -0.6810   25.7950 F       1  UNL1       -0.1992
     28 C         -29.5784    2.2015   30.0016 C.3     1  UNL1        0.0006
     29 C         -24.4611    0.5121   28.2958 C.2     1  UNL1        0.3190
     30 C         -22.2128    0.2108   28.9148 C.2     1  UNL1        0.2191
     31 N         -23.4276    0.2429   28.7110 N.pl3   1  UNL1       -0.0076
     32 C         -23.0463    3.1169   24.8138 C.3     1  UNL1        0.1745
     33 C         -23.0592    1.6079   26.5356 C.3     1  UNL1        0.1490
     34 C         -21.7556    1.7086   27.1289 C.3     1  UNL1        0.0642
     35 C         -24.3785    1.2192   27.1647 C.2     1  UNL1        0.0880
     36 O         -27.5623   -0.7174   28.7799 O.2     1  UNL1       -0.2467
     37 N         -25.3925   -0.0697   29.1589 N.am    1  UNL1       -0.1412
     38 C         -26.7807    0.1835   28.9964 C.2     1  UNL1        0.3134
     39 C         -21.2831    0.8788   28.1676 C.2     1  UNL1        0.0248
     40 C         -27.3389    1.5699   29.1412 C.3     1  UNL1        0.1128
     41 C         -28.1323    2.3688   29.8140 C.3     1  UNL1        0.0121
     42 O         -22.8140    1.7076   25.1860 O.3     1  UNL1       -0.3486
@<TRIPOS>BOND
     1     1    37    1
     2     2     7    1
     3     2     1    1
     4     3     2    2
     5     4     3    1
     6     4     5    2
     7     5     6    1
     8     6     7    2
     9     8     1    1
    10     8     9    1
    11     8    12    1
    12     9    10    1
    13    10    11    1
    14    12    11    1
    15    13    35    1
    16    14    13    1
    17    14    15    1
    18    15    18    2
    19    16    17    1
    20    16    15    1
    21    19    14    2
    22    20    21    2
    23    20    19    1
    24    21    26    1
    25    22    21    1
    26    23    22    1
    27    24    23    1
    28    24    25    1
    29    26    27    1
    30    26    13    2
    31    29    31    1
    32    29    37    1
    33    31    30    1
    34    32    42    1
    35    33    42    1
    36    33    34    1
    37    33    35    1
    38    34    39    1
    39    35    29    2
    40    36    38    2
    41    38    40    1
    42    38    37   am
    43    39    30    2
    44    40    41    1
    45    41    28    1
