@<TRIPOS>MOLECULE
outputs/IAG933/test6/raw/output_6446_IAG933_linker_design_.xyz
 46 49 0 0 0
SMALL
GASTEIGER

@<TRIPOS>ATOM
      1 C         -24.8550   -1.0120   30.1430 C.3     1  UNL1        0.1141
      2 C         -24.9730   -2.5050   29.7880 C.2     1  UNL1       -0.0029
      3 C         -23.9060   -3.1730   29.1460 C.2     1  UNL1       -0.0026
      4 C         -23.9890   -4.5490   28.8530 C.2     1  UNL1       -0.0003
      5 C         -25.1370   -5.2800   29.2050 C.2     1  UNL1       -0.0000
      6 C         -26.2320   -4.6110   29.7840 C.2     1  UNL1       -0.0003
      7 C         -26.1550   -3.2320   30.0650 C.2     1  UNL1       -0.0026
      8 C         -25.3870   -0.6790   31.5710 C.3     1  UNL1        0.0951
      9 C         -25.1890    0.7730   32.0280 C.3     1  UNL1        0.0209
     10 C         -25.3360    0.6840   33.5440 C.3     1  UNL1        0.0203
     11 C         -24.8290   -0.7150   33.9050 C.3     1  UNL1        0.0888
     12 N         -24.7580   -1.4810   32.6460 N.3     1  UNL1       -0.2174
     13 C         -25.6880    1.6140   26.4610 C.3     1  UNL1        0.1650
     14 C         -26.2500    2.9200   26.3950 C.2     1  UNL1        0.0748
     15 C         -25.6420    4.0930   27.1230 C.2     1  UNL1        0.2641
     16 N         -25.6140    5.2520   26.4490 N.am    1  UNL1       -0.1999
     17 C         -25.0260    6.4790   26.9630 C.3     1  UNL1        0.1388
     18 O         -25.1430    3.9660   28.2430 O.2     1  UNL1       -0.2686
     19 C         -27.4380    3.0910   25.6450 C.2     1  UNL1        0.1038
     20 N         -28.0750    2.0890   25.0030 N.2     1  UNL1       -0.2118
     21 C         -27.5430    0.8490   25.0790 C.2     1  UNL1        0.2359
     22 O         -28.1930   -0.2080   24.4770 O.2     1  UNL1       -0.4585
     23 C         -29.4600    0.0050   23.8660 C.3     1  UNL1        0.2423
     24 C         -30.0650   -1.3770   23.5730 C.3     1  UNL1        0.2292
     25 O         -30.7290   -1.8780   24.7210 O.3     1  UNL1       -0.2162
     26 C         -26.3540    0.5760   25.7770 C.3     1  UNL1        0.2598
     27 F         -25.8600   -0.6810   25.7950 F       1  UNL1       -0.2250
     28 N         -30.4349    4.3861   28.1392 N.am    1  UNL1       -0.2792
     29 C         -29.2057    5.0133   28.4442 C.3     1  UNL1        0.0938
     30 C         -23.2522    0.3064   28.9688 C.2     1  UNL1        0.2527
     31 C         -31.1121    6.2801   26.8343 C.3     1  UNL1        0.0948
     32 C         -23.2059    1.6125   26.7386 C.2     1  UNL1        0.2682
     33 C         -27.7221    1.9891   28.7170 C.2     1  UNL1       -0.0276
     34 C         -22.4465    1.1990   28.0128 C.3     1  UNL1        0.2448
     35 O         -22.5336   -0.2410   29.8276 O.2     1  UNL1       -0.2728
     36 C         -31.3975    4.9239   27.4281 C.2     1  UNL1        0.2261
     37 C         -30.3254    2.8907   28.3111 C.3     1  UNL1        0.0977
     38 C         -28.7590    4.2221   29.4627 C.3     1  UNL1        0.0275
     39 C         -26.1044   -0.1259   28.3463 C.3     1  UNL1        0.1199
     40 C         -28.9738    2.6450   29.0841 C.3     1  UNL1        0.0433
     41 N         -24.5141    1.4441   26.7971 N.am    1  UNL1       -0.1975
     42 N         -21.0011    1.4742   27.8454 N.3     1  UNL1       -0.1131
     43 N         -24.7552    0.0813   28.9924 N.am    1  UNL1       -0.2704
     44 O         -32.4329    4.3089   27.2096 O.2     1  UNL1       -0.2749
     45 C         -27.3814    0.5331   28.7568 C.2     1  UNL1       -0.0092
     46 O         -22.6089    2.0081   25.7303 O.2     1  UNL1       -0.2712
@<TRIPOS>BOND
     1     1    43    1
     2     2     7    1
     3     2     1    1
     4     3     2    2
     5     4     3    1
     6     4     5    2
     7     5     6    1
     8     6     7    2
     9     8     1    1
    10     8     9    1
    11     8    12    1
    12     9    10    1
    13    10    11    1
    14    12    11    1
    15    13    41    1
    16    14    13    1
    17    14    15    1
    18    15    18    2
    19    16    17    1
    20    16    15    1
    21    19    14    2
    22    20    21    2
    23    20    19    1
    24    21    26    1
    25    22    21    1
    26    23    22    1
    27    24    23    1
    28    24    25    1
    29    26    27    1
    30    26    13    1
    31    28    37    1
    32    28    29    1
    33    29    38    1
    34    30    43   am
    35    30    35    2
    36    31    36    1
    37    32    41    1
    38    32    34    1
    39    33    45    2
    40    34    42    1
    41    34    30    1
    42    36    28   am
    43    37    40    1
    44    39    45    1
    45    39    43    1
    46    40    33    1
    47    40    38    1
    48    44    36    2
    49    46    32    2
