@<TRIPOS>MOLECULE
outputs/IAG933/test6/raw/output_6447_IAG933_linker_design_.xyz
 44 48 0 0 0
SMALL
GASTEIGER

@<TRIPOS>ATOM
      1 C         -24.8550   -1.0120   30.1430 C.3     1  UNL1        0.0774
      2 C         -24.9730   -2.5050   29.7880 C.2     1  UNL1       -0.0178
      3 C         -23.9060   -3.1730   29.1460 C.2     1  UNL1       -0.0041
      4 C         -23.9890   -4.5490   28.8530 C.2     1  UNL1       -0.0003
      5 C         -25.1370   -5.2800   29.2050 C.2     1  UNL1       -0.0000
      6 C         -26.2320   -4.6110   29.7840 C.2     1  UNL1       -0.0003
      7 C         -26.1550   -3.2320   30.0650 C.2     1  UNL1       -0.0041
      8 C         -25.3870   -0.6790   31.5710 C.3     1  UNL1        0.0802
      9 C         -25.1890    0.7730   32.0280 C.3     1  UNL1        0.0193
     10 C         -25.3360    0.6840   33.5440 C.3     1  UNL1        0.0202
     11 C         -24.8290   -0.7150   33.9050 C.3     1  UNL1        0.0887
     12 N         -24.7580   -1.4810   32.6460 N.3     1  UNL1       -0.2190
     13 C         -25.6880    1.6140   26.4610 C.2     1  UNL1        0.0380
     14 C         -26.2500    2.9200   26.3950 C.2     1  UNL1        0.0744
     15 C         -25.6420    4.0930   27.1230 C.2     1  UNL1        0.2662
     16 N         -25.6140    5.2520   26.4490 N.am    1  UNL1       -0.1997
     17 C         -25.0260    6.4790   26.9630 C.3     1  UNL1        0.1388
     18 O         -25.1430    3.9660   28.2430 O.2     1  UNL1       -0.2683
     19 C         -27.4380    3.0910   25.6450 C.2     1  UNL1        0.1065
     20 N         -28.0750    2.0890   25.0030 N.2     1  UNL1       -0.2081
     21 C         -27.5430    0.8490   25.0790 C.2     1  UNL1        0.2530
     22 O         -28.1930   -0.2080   24.4770 O.2     1  UNL1       -0.4558
     23 C         -29.4600    0.0050   23.8660 C.3     1  UNL1        0.2426
     24 C         -30.0650   -1.3770   23.5730 C.3     1  UNL1        0.2292
     25 O         -30.7290   -1.8780   24.7210 O.3     1  UNL1       -0.2162
     26 C         -26.3540    0.5760   25.7770 C.2     1  UNL1        0.1910
     27 F         -25.8600   -0.6810   25.7950 F       1  UNL1       -0.1995
     28 N         -24.2107    0.4878   28.0856 N.am    1  UNL1       -0.2540
     29 O         -26.0624    4.8788   32.4539 O.2     1  UNL1       -0.2733
     30 C         -22.1212    1.2794   27.5670 C.2     1  UNL1        0.0294
     31 C         -20.6771    1.4917   27.7486 C.3     1  UNL1        0.0355
     32 C         -27.5424    2.4744   30.4759 C.3     1  UNL1        0.1090
     33 C         -23.0739    2.0136   26.7599 C.2     1  UNL1       -0.0018
     34 C         -26.9799    4.1496   31.8475 C.2     1  UNL1        0.2419
     35 C         -24.3729    1.4332   27.0628 C.3     1  UNL1        0.1243
     36 C         -27.2469    1.1588   29.7418 C.2     1  UNL1        0.2446
     37 C         -28.5153    2.6052   31.4138 C.3     1  UNL1        0.1247
     38 C         -26.7206    3.6404   30.5081 C.3     1  UNL1        0.0977
     39 N         -28.1248    3.6063   32.3016 N.am    1  UNL1       -0.2049
     40 C         -22.8365    0.3938   28.2611 C.2     1  UNL1        0.2464
     41 O         -28.0589    0.3164   29.4463 O.2     1  UNL1       -0.2732
     42 N         -25.9227    1.0420   29.4750 N.am    1  UNL1       -0.1862
     43 C         -25.3183   -0.1078   28.8972 C.3     1  UNL1        0.1779
     44 O         -22.1638   -0.3544   28.9099 O.2     1  UNL1       -0.2702
@<TRIPOS>BOND
     1     1    43    1
     2     2     7    1
     3     2     1    1
     4     3     2    2
     5     4     3    1
     6     4     5    2
     7     5     6    1
     8     6     7    2
     9     8     1    1
    10     8     9    1
    11     8    12    1
    12     9    10    1
    13    10    11    1
    14    12    11    1
    15    14    13    1
    16    14    15    1
    17    15    18    2
    18    16    17    1
    19    16    15    1
    20    19    14    2
    21    20    21    2
    22    20    19    1
    23    21    26    1
    24    22    21    1
    25    23    22    1
    26    24    23    1
    27    24    25    1
    28    26    27    1
    29    26    13    2
    30    28    40   am
    31    28    43    1
    32    30    31    1
    33    30    40    1
    34    32    36    1
    35    32    38    1
    36    32    37    1
    37    33    35    1
    38    33    30    2
    39    34    39    1
    40    34    29    2
    41    35    13    1
    42    35    28    1
    43    37    39    1
    44    38    34    1
    45    40    44    2
    46    41    36    2
    47    42    36    1
    48    43    42    1
