@<TRIPOS>MOLECULE
outputs/IAG933/test6/raw/output_6449_IAG933_linker_design_.xyz
 45 49 0 0 0
SMALL
GASTEIGER

@<TRIPOS>ATOM
      1 C         -24.8550   -1.0120   30.1430 C.3     1  UNL1        0.0438
      2 C         -24.9730   -2.5050   29.7880 C.2     1  UNL1       -0.0208
      3 C         -23.9060   -3.1730   29.1460 C.2     1  UNL1       -0.0042
      4 C         -23.9890   -4.5490   28.8530 C.2     1  UNL1       -0.0003
      5 C         -25.1370   -5.2800   29.2050 C.2     1  UNL1       -0.0000
      6 C         -26.2320   -4.6110   29.7840 C.2     1  UNL1       -0.0003
      7 C         -26.1550   -3.2320   30.0650 C.2     1  UNL1       -0.0042
      8 C         -25.3870   -0.6790   31.5710 C.3     1  UNL1        0.0791
      9 C         -25.1890    0.7730   32.0280 C.3     1  UNL1        0.0419
     10 C         -25.3360    0.6840   33.5440 C.3     1  UNL1        0.0223
     11 C         -24.8290   -0.7150   33.9050 C.3     1  UNL1        0.0888
     12 N         -24.7580   -1.4810   32.6460 N.3     1  UNL1       -0.2191
     13 C         -25.6880    1.6140   26.4610 C.2     1  UNL1        0.0408
     14 C         -26.2500    2.9200   26.3950 C.2     1  UNL1        0.0766
     15 C         -25.6420    4.0930   27.1230 C.2     1  UNL1        0.2664
     16 N         -25.6140    5.2520   26.4490 N.am    1  UNL1       -0.1997
     17 C         -25.0260    6.4790   26.9630 C.3     1  UNL1        0.1388
     18 O         -25.1430    3.9660   28.2430 O.2     1  UNL1       -0.2683
     19 C         -27.4380    3.0910   25.6450 C.2     1  UNL1        0.1067
     20 N         -28.0750    2.0890   25.0030 N.2     1  UNL1       -0.2081
     21 C         -27.5430    0.8490   25.0790 C.2     1  UNL1        0.2533
     22 O         -28.1930   -0.2080   24.4770 O.2     1  UNL1       -0.4558
     23 C         -29.4600    0.0050   23.8660 C.3     1  UNL1        0.2426
     24 C         -30.0650   -1.3770   23.5730 C.3     1  UNL1        0.2292
     25 O         -30.7290   -1.8780   24.7210 O.3     1  UNL1       -0.2162
     26 C         -26.3540    0.5760   25.7770 C.2     1  UNL1        0.1931
     27 F         -25.8600   -0.6810   25.7950 F       1  UNL1       -0.1992
     28 C         -24.4386    1.6355   27.2580 C.2     1  UNL1        0.0365
     29 C         -24.3510    1.5582   28.7210 C.2     1  UNL1        0.0687
     30 C         -26.5859    5.4268   32.0994 C.2     1  UNL1       -0.0003
     31 C         -29.1723    3.5414   34.1407 C.3     1  UNL1        0.4186
     32 C         -27.4413    2.7732   32.5404 C.2     1  UNL1        0.0012
     33 C         -23.2503    1.8304   26.4740 C.2     1  UNL1        0.1002
     34 C         -23.1189    1.2239   29.2103 C.2     1  UNL1        0.0368
     35 F         -29.7839    2.4379   33.7791 F       1  UNL1       -0.1659
     36 C         -25.5662    1.8770   31.1561 C.3     1  UNL1        0.1159
     37 C         -26.2726    3.0134   31.8019 C.2     1  UNL1       -0.0027
     38 C         -25.8272    4.3398   31.6317 C.2     1  UNL1       -0.0026
     39 C         -28.1361    3.8474   33.1043 C.2     1  UNL1        0.0712
     40 N         -22.0641    1.6366   27.0906 N.2     1  UNL1       -0.2422
     41 F         -29.9944    4.5495   34.2679 F       1  UNL1       -0.1659
     42 C         -27.7747    5.1777   32.8161 C.2     1  UNL1        0.0038
     43 F         -28.5240    3.2399   35.2750 F       1  UNL1       -0.1659
     44 C         -21.9845    1.2635   28.3722 C.2     1  UNL1        0.1002
     45 N         -25.3330    1.8740   29.7346 N.pl3   1  UNL1       -0.2348
@<TRIPOS>BOND
     1     2     7    1
     2     2     1    1
     3     3     2    2
     4     4     3    1
     5     4     5    2
     6     5     6    1
     7     6     7    2
     8     8     1    1
     9     8     9    1
    10     8    12    1
    11     9    36    1
    12     9    10    1
    13    10    11    1
    14    12    11    1
    15    13    28    1
    16    14    13    1
    17    14    15    1
    18    15    18    2
    19    16    17    1
    20    16    15    1
    21    19    14    2
    22    20    21    2
    23    20    19    1
    24    21    26    1
    25    22    21    1
    26    23    22    1
    27    24    23    1
    28    24    25    1
    29    26    27    1
    30    26    13    2
    31    28    29    1
    32    29    34    2
    33    29    45    1
    34    30    42    1
    35    31    41    1
    36    31    43    1
    37    32    39    1
    38    33    40    1
    39    33    28    2
    40    35    31    1
    41    36    45    1
    42    36    37    1
    43    37    32    2
    44    38    37    1
    45    38    30    2
    46    39    31    1
    47    40    44    2
    48    42    39    2
    49    44    34    1
