@<TRIPOS>MOLECULE
outputs/IAG933/test6/raw/output_6450_IAG933_linker_design_.xyz
 42 45 0 0 0
SMALL
GASTEIGER

@<TRIPOS>ATOM
      1 C         -24.8550   -1.0120   30.1430 C.3     1  UNL1        0.1112
      2 C         -24.9730   -2.5050   29.7880 C.2     1  UNL1       -0.0030
      3 C         -23.9060   -3.1730   29.1460 C.2     1  UNL1       -0.0026
      4 C         -23.9890   -4.5490   28.8530 C.2     1  UNL1       -0.0003
      5 C         -25.1370   -5.2800   29.2050 C.2     1  UNL1       -0.0000
      6 C         -26.2320   -4.6110   29.7840 C.2     1  UNL1       -0.0003
      7 C         -26.1550   -3.2320   30.0650 C.2     1  UNL1       -0.0026
      8 C         -25.3870   -0.6790   31.5710 C.3     1  UNL1        0.0950
      9 C         -25.1890    0.7730   32.0280 C.3     1  UNL1        0.0209
     10 C         -25.3360    0.6840   33.5440 C.3     1  UNL1        0.0203
     11 C         -24.8290   -0.7150   33.9050 C.3     1  UNL1        0.0888
     12 N         -24.7580   -1.4810   32.6460 N.3     1  UNL1       -0.2174
     13 C         -25.6880    1.6140   26.4610 C.2     1  UNL1        0.0414
     14 C         -26.2500    2.9200   26.3950 C.2     1  UNL1        0.0766
     15 C         -25.6420    4.0930   27.1230 C.2     1  UNL1        0.2664
     16 N         -25.6140    5.2520   26.4490 N.am    1  UNL1       -0.1997
     17 C         -25.0260    6.4790   26.9630 C.3     1  UNL1        0.1388
     18 O         -25.1430    3.9660   28.2430 O.2     1  UNL1       -0.2683
     19 C         -27.4380    3.0910   25.6450 C.2     1  UNL1        0.1067
     20 N         -28.0750    2.0890   25.0030 N.2     1  UNL1       -0.2081
     21 C         -27.5430    0.8490   25.0790 C.2     1  UNL1        0.2533
     22 O         -28.1930   -0.2080   24.4770 O.2     1  UNL1       -0.4558
     23 C         -29.4600    0.0050   23.8660 C.3     1  UNL1        0.2426
     24 C         -30.0650   -1.3770   23.5730 C.3     1  UNL1        0.2292
     25 O         -30.7290   -1.8780   24.7210 O.3     1  UNL1       -0.2162
     26 C         -26.3540    0.5760   25.7770 C.2     1  UNL1        0.1932
     27 F         -25.8600   -0.6810   25.7950 F       1  UNL1       -0.1992
     28 N         -25.4181   -0.2313   28.9225 N.pl3   1  UNL1       -0.3032
     29 C         -28.3085   -0.3781   28.7916 C.3     1  UNL1        0.1354
     30 O         -29.1904    1.0346   30.6162 O.co2   1  UNL1       -0.2456
     31 C         -23.1790    0.4652   28.7088 C.3     1  UNL1        0.2915
     32 F         -22.6573    0.4672   29.8701 F       1  UNL1       -0.2066
     33 C         -24.3878    0.5475   28.2340 C.2     1  UNL1        0.0815
     34 C         -23.2832    1.8753   26.5755 C.2     1  UNL1        0.1841
     35 C         -22.1068    1.4642   27.0823 C.2     1  UNL1        0.2380
     36 F         -23.1968    2.5863   25.4403 F       1  UNL1       -0.2003
     37 N         -22.0640    0.6000   28.0586 N.pl3   1  UNL1       -0.1725
     38 O         -27.4719    1.8453   29.3616 O.co2   1  UNL1       -0.2456
     39 C         -24.4562    1.3923   27.0759 C.2     1  UNL1        0.0472
     40 F         -21.0280    1.8891   26.5982 F       1  UNL1       -0.1838
     41 C         -26.8254   -0.7293   28.4615 C.3     1  UNL1        0.1027
     42 C         -28.3800    0.9434   29.5186 C.2     1  UNL1        0.3666
@<TRIPOS>BOND
     1     1    28    1
     2     2     7    1
     3     2     1    1
     4     3     2    2
     5     4     3    1
     6     4     5    2
     7     5     6    1
     8     6     7    2
     9     8     1    1
    10     8     9    1
    11     8    12    1
    12     9    10    1
    13    10    11    1
    14    12    11    1
    15    13    39    1
    16    14    13    1
    17    14    15    1
    18    15    18    2
    19    16    17    1
    20    16    15    1
    21    19    14    2
    22    20    21    2
    23    20    19    1
    24    21    26    1
    25    22    21    1
    26    23    22    1
    27    24    23    1
    28    24    25    1
    29    26    27    1
    30    26    13    2
    31    29    42    1
    32    31    32    1
    33    33    31    1
    34    33    28    1
    35    34    39    1
    36    34    35    2
    37    35    37    1
    38    36    34    1
    39    37    31    1
    40    38    42   ar
    41    39    33    2
    42    40    35    1
    43    41    29    1
    44    41    28    1
    45    42    30   ar
