@<TRIPOS>MOLECULE
outputs/IAG933/test6/raw/output_6465_IAG933_linker_design_.xyz
 42 46 0 0 0
SMALL
GASTEIGER

@<TRIPOS>ATOM
      1 C         -24.8550   -1.0120   30.1430 C.3     1  UNL1        0.0455
      2 C         -24.9730   -2.5050   29.7880 C.2     1  UNL1       -0.0207
      3 C         -23.9060   -3.1730   29.1460 C.2     1  UNL1       -0.0042
      4 C         -23.9890   -4.5490   28.8530 C.2     1  UNL1       -0.0003
      5 C         -25.1370   -5.2800   29.2050 C.2     1  UNL1       -0.0000
      6 C         -26.2320   -4.6110   29.7840 C.2     1  UNL1       -0.0003
      7 C         -26.1550   -3.2320   30.0650 C.2     1  UNL1       -0.0042
      8 C         -25.3870   -0.6790   31.5710 C.3     1  UNL1        0.1006
      9 C         -25.1890    0.7730   32.0280 C.3     1  UNL1        0.1648
     10 C         -25.3360    0.6840   33.5440 C.3     1  UNL1        0.0455
     11 C         -24.8290   -0.7150   33.9050 C.3     1  UNL1        0.0906
     12 N         -24.7580   -1.4810   32.6460 N.3     1  UNL1       -0.2173
     13 C         -25.6880    1.6140   26.4610 C.2     1  UNL1        0.0203
     14 C         -26.2500    2.9200   26.3950 C.2     1  UNL1        0.0729
     15 C         -25.6420    4.0930   27.1230 C.2     1  UNL1        0.2661
     16 N         -25.6140    5.2520   26.4490 N.am    1  UNL1       -0.1997
     17 C         -25.0260    6.4790   26.9630 C.3     1  UNL1        0.1388
     18 O         -25.1430    3.9660   28.2430 O.2     1  UNL1       -0.2683
     19 C         -27.4380    3.0910   25.6450 C.2     1  UNL1        0.1064
     20 N         -28.0750    2.0890   25.0030 N.2     1  UNL1       -0.2081
     21 C         -27.5430    0.8490   25.0790 C.2     1  UNL1        0.2530
     22 O         -28.1930   -0.2080   24.4770 O.2     1  UNL1       -0.4558
     23 C         -29.4600    0.0050   23.8660 C.3     1  UNL1        0.2426
     24 C         -30.0650   -1.3770   23.5730 C.3     1  UNL1        0.2292
     25 O         -30.7290   -1.8780   24.7210 O.3     1  UNL1       -0.2162
     26 C         -26.3540    0.5760   25.7770 C.2     1  UNL1        0.1894
     27 F         -25.8600   -0.6810   25.7950 F       1  UNL1       -0.1996
     28 C         -22.8361    2.2363   25.9984 C.2     1  UNL1        0.1365
     29 C         -21.3476    1.3659   28.0994 C.2     1  UNL1        0.1381
     30 S         -24.7070    2.4046   31.6374 S.O2    1  UNL1        0.0571
     31 N         -24.7091    2.1895   30.0934 N.3     1  UNL1       -0.0778
     32 C         -23.5634    1.5710   27.0275 C.2     1  UNL1        0.0121
     33 C         -24.7918    1.1157   27.0282 C.3     1  UNL1        0.0574
     34 O         -23.4805    3.3206   31.7486 O.2     1  UNL1       -0.1561
     35 O         -21.7927    0.1124   29.0965 O.2     1  UNL1       -0.4733
     36 C         -20.6973    1.9662   26.9826 C.2     1  UNL1        0.0390
     37 F         -23.5796    2.6912   25.1034 F       1  UNL1       -0.2045
     38 C         -23.1207    0.4271   29.0231 C.3     1  UNL1        0.2100
     39 C         -22.5767    1.2553   27.9678 C.2     1  UNL1        0.0512
     40 C         -23.6466    1.2507   29.9979 C.3     1  UNL1        0.1631
     41 O         -25.5184    3.1362   32.5904 O.2     1  UNL1       -0.1561
     42 C         -21.4405    2.3404   25.8552 C.2     1  UNL1        0.0324
@<TRIPOS>BOND
     1     2     7    1
     2     2     1    1
     3     3     2    2
     4     4     3    1
     5     4     5    2
     6     5     6    1
     7     6     7    2
     8     8     1    1
     9     8     9    1
    10     8    12    1
    11     9    30    1
    12     9    10    1
    13    10    11    1
    14    12    11    1
    15    13    33    1
    16    14    13    1
    17    14    15    1
    18    15    18    2
    19    16    17    1
    20    16    15    1
    21    19    14    2
    22    20    21    2
    23    20    19    1
    24    21    26    1
    25    22    21    1
    26    23    22    1
    27    24    23    1
    28    24    25    1
    29    26    27    1
    30    26    13    2
    31    28    32    1
    32    29    35    1
    33    30    34    2
    34    30    41    2
    35    31    30    1
    36    32    33    1
    37    32    39    2
    38    36    29    2
    39    37    28    1
    40    38    35    1
    41    38    40    1
    42    39    29    1
    43    39    38    1
    44    40    31    1
    45    42    28    2
    46    42    36    1
