@<TRIPOS>MOLECULE
outputs/IAG933/test6/raw/output_6467_IAG933_linker_design_.xyz
 50 55 0 0 0
SMALL
GASTEIGER

@<TRIPOS>ATOM
      1 C         -24.8550   -1.0120   30.1430 C.3     1  UNL1        0.0582
      2 C         -24.9730   -2.5050   29.7880 C.2     1  UNL1       -0.0195
      3 C         -23.9060   -3.1730   29.1460 C.2     1  UNL1       -0.0042
      4 C         -23.9890   -4.5490   28.8530 C.2     1  UNL1       -0.0003
      5 C         -25.1370   -5.2800   29.2050 C.2     1  UNL1       -0.0000
      6 C         -26.2320   -4.6110   29.7840 C.2     1  UNL1       -0.0003
      7 C         -26.1550   -3.2320   30.0650 C.2     1  UNL1       -0.0042
      8 C         -25.3870   -0.6790   31.5710 C.3     1  UNL1        0.0785
      9 C         -25.1890    0.7730   32.0280 C.3     1  UNL1        0.0192
     10 C         -25.3360    0.6840   33.5440 C.3     1  UNL1        0.0202
     11 C         -24.8290   -0.7150   33.9050 C.3     1  UNL1        0.0887
     12 N         -24.7580   -1.4810   32.6460 N.3     1  UNL1       -0.2191
     13 C         -25.6880    1.6140   26.4610 C.3     1  UNL1        0.1076
     14 C         -26.2500    2.9200   26.3950 C.2     1  UNL1        0.0581
     15 C         -25.6420    4.0930   27.1230 C.2     1  UNL1        0.2626
     16 N         -25.6140    5.2520   26.4490 N.am    1  UNL1       -0.2000
     17 C         -25.0260    6.4790   26.9630 C.3     1  UNL1        0.1388
     18 O         -25.1430    3.9660   28.2430 O.2     1  UNL1       -0.2687
     19 C         -27.4380    3.0910   25.6450 C.2     1  UNL1        0.1023
     20 N         -28.0750    2.0890   25.0030 N.2     1  UNL1       -0.2119
     21 C         -27.5430    0.8490   25.0790 C.2     1  UNL1        0.2342
     22 O         -28.1930   -0.2080   24.4770 O.2     1  UNL1       -0.4585
     23 C         -29.4600    0.0050   23.8660 C.3     1  UNL1        0.2423
     24 C         -30.0650   -1.3770   23.5730 C.3     1  UNL1        0.2292
     25 O         -30.7290   -1.8780   24.7210 O.3     1  UNL1       -0.2162
     26 C         -26.3540    0.5760   25.7770 C.3     1  UNL1        0.2433
     27 F         -25.8600   -0.6810   25.7950 F       1  UNL1       -0.2268
     28 O         -25.2098    7.0841   32.8318 O.3     1  UNL1       -0.2200
     29 C         -25.2605    5.8251   32.1141 C.3     1  UNL1        0.1879
     30 C         -24.5070    4.9393   33.0225 C.3     1  UNL1        0.0675
     31 N         -28.7098    2.2778   29.7589 N.3     1  UNL1       -0.1172
     32 C         -22.9789    1.6791   26.3400 C.2     1  UNL1        0.1059
     33 C         -27.4563    1.9982   30.5530 C.3     1  UNL1        0.2279
     34 C         -25.2153   -0.6660   28.7397 C.3     1  UNL1        0.1006
     35 C         -21.7997    2.0064   26.6403 C.2     1  UNL1        0.1904
     36 O         -28.9032    3.3897   32.0073 O.3     1  UNL1       -0.1859
     37 O         -26.6234    3.8487   33.7068 O.3     1  UNL1       -0.2802
     38 C         -25.4035    4.8952   35.5121 C.3     1  UNL1        0.0343
     39 C         -27.7333    3.4077   31.5484 C.3     1  UNL1        0.2844
     40 O         -21.5376    2.1135   27.9825 O.2     1  UNL1       -0.4506
     41 N         -23.6129    1.5228   27.6814 N.pl3   1  UNL1       -0.2521
     42 C         -24.9406    1.2537   27.8939 C.3     1  UNL1        0.1622
     43 N         -26.9654    4.1278   32.4127 N.3     1  UNL1       -0.1077
     44 C         -26.9266    0.8917   29.4628 C.2     1  UNL1        0.2497
     45 N         -27.3731    4.6065   30.5719 N.3     1  UNL1       -0.1560
     46 N         -25.7143    0.8608   28.9705 N.am    1  UNL1       -0.2628
     47 O         -27.7166    0.0260   29.0811 O.2     1  UNL1       -0.2731
     48 C         -22.7157    1.8686   28.5010 C.3     1  UNL1        0.3068
     49 C         -26.6077    5.3155   31.6319 C.3     1  UNL1        0.1938
     50 C         -25.3659    4.3931   34.1105 C.3     1  UNL1        0.1405
@<TRIPOS>BOND
     1     1    34    1
     2     2     7    1
     3     2     1    1
     4     3     2    2
     5     4     3    1
     6     4     5    2
     7     5     6    1
     8     6     7    2
     9     8     1    1
    10     8     9    1
    11     8    12    1
    12     9    10    1
    13    10    11    1
    14    12    11    1
    15    13    42    1
    16    14    13    1
    17    14    15    1
    18    15    18    2
    19    16    17    1
    20    16    15    1
    21    19    14    2
    22    20    21    2
    23    20    19    1
    24    21    26    1
    25    22    21    1
    26    23    22    1
    27    24    23    1
    28    24    25    1
    29    26    27    1
    30    26    13    1
    31    29    28    1
    32    29    30    1
    33    30    50    1
    34    32    35    2
    35    32    41    1
    36    33    31    1
    37    33    39    1
    38    34    46    1
    39    35    40    1
    40    37    50    1
    41    39    36    1
    42    39    43    1
    43    40    48    1
    44    41    42    1
    45    41    48    1
    46    42    46    1
    47    43    37    1
    48    44    33    1
    49    45    39    1
    50    46    44   am
    51    47    44    2
    52    49    45    1
    53    49    29    1
    54    49    43    1
    55    50    38    1
