@<TRIPOS>MOLECULE
outputs/IAG933/test6/raw/output_647_IAG933_linker_design_.xyz
 45 48 0 0 0
SMALL
GASTEIGER

@<TRIPOS>ATOM
      1 C         -24.8550   -1.0120   30.1430 C.3     1  UNL1        0.1082
      2 C         -24.9730   -2.5050   29.7880 C.2     1  UNL1       -0.0055
      3 C         -23.9060   -3.1730   29.1460 C.2     1  UNL1       -0.0029
      4 C         -23.9890   -4.5490   28.8530 C.2     1  UNL1       -0.0003
      5 C         -25.1370   -5.2800   29.2050 C.2     1  UNL1       -0.0000
      6 C         -26.2320   -4.6110   29.7840 C.2     1  UNL1       -0.0003
      7 C         -26.1550   -3.2320   30.0650 C.2     1  UNL1       -0.0029
      8 C         -25.3870   -0.6790   31.5710 C.3     1  UNL1        0.0925
      9 C         -25.1890    0.7730   32.0280 C.3     1  UNL1        0.0206
     10 C         -25.3360    0.6840   33.5440 C.3     1  UNL1        0.0203
     11 C         -24.8290   -0.7150   33.9050 C.3     1  UNL1        0.0888
     12 N         -24.7580   -1.4810   32.6460 N.3     1  UNL1       -0.2177
     13 C         -25.6880    1.6140   26.4610 C.2     1  UNL1        0.0930
     14 C         -26.2500    2.9200   26.3950 C.2     1  UNL1        0.0903
     15 C         -25.6420    4.0930   27.1230 C.2     1  UNL1        0.2676
     16 N         -25.6140    5.2520   26.4490 N.am    1  UNL1       -0.1997
     17 C         -25.0260    6.4790   26.9630 C.3     1  UNL1        0.1388
     18 O         -25.1430    3.9660   28.2430 O.2     1  UNL1       -0.2683
     19 C         -27.4380    3.0910   25.6450 C.2     1  UNL1        0.1080
     20 N         -28.0750    2.0890   25.0030 N.2     1  UNL1       -0.2080
     21 C         -27.5430    0.8490   25.0790 C.2     1  UNL1        0.2546
     22 O         -28.1930   -0.2080   24.4770 O.2     1  UNL1       -0.4558
     23 C         -29.4600    0.0050   23.8660 C.3     1  UNL1        0.2426
     24 C         -30.0650   -1.3770   23.5730 C.3     1  UNL1        0.2292
     25 O         -30.7290   -1.8780   24.7210 O.3     1  UNL1       -0.2162
     26 C         -26.3540    0.5760   25.7770 C.2     1  UNL1        0.2066
     27 F         -25.8600   -0.6810   25.7950 F       1  UNL1       -0.1979
     28 O         -27.0584    1.7579   29.2616 O.3     1  UNL1       -0.1543
     29 CA        -30.8941    1.0011   28.4119 C.3     1  UNL1        0.1256
     30 C         -28.3566   -0.3491   30.2621 C.3     1  UNL1        0.2628
     31 O         -22.8137    2.4213   25.8741 O.2     1  UNL1       -0.2745
     32 C         -21.1573    1.7115   27.9309 C.3     1  UNL1        0.0097
     33 C         -32.0561    0.8460   27.4287 C.3     1  UNL1        0.2010
     34 C         -24.6250    0.4563   28.4193 C.3     1  UNL1        0.1507
     35 N         -31.3546    0.5419   29.7724 N.3     1  UNL1       -0.1301
     36 C         -23.1965    0.2908   28.7587 C.3     1  UNL1        0.0471
     37 O         -28.9456   -1.3432   29.6566 O.3     1  UNL1       -0.2053
     38 O         -32.3830   -0.5432   27.2397 O.3     1  UNL1       -0.2188
     39 N         -24.6094    1.3454   27.3101 N.am    1  UNL1       -0.2432
     40 C         -23.3434    1.8997   27.0254 C.2     1  UNL1        0.2300
     41 C         -28.3563   -0.0300   27.7085 C.3     1  UNL1        0.0863
     42 C         -29.7140    0.6321   27.5487 C.3     1  UNL1        0.0354
     43 N         -25.5028   -0.1682   29.2229 N.3     1  UNL1       -0.1995
     44 C         -22.6290    1.6569   28.3110 C.3     1  UNL1        0.0802
     45 S         -27.2323    0.2695   29.0995 S.3     1  UNL1        0.0115
@<TRIPOS>BOND
     1     1    43    1
     2     2     7    1
     3     2     1    1
     4     3     2    2
     5     4     3    1
     6     4     5    2
     7     5     6    1
     8     6     7    2
     9     8     1    1
    10     8     9    1
    11     8    12    1
    12     9    10    1
    13    10    11    1
    14    12    11    1
    15    13    39    1
    16    14    13    1
    17    14    15    1
    18    15    18    2
    19    16    17    1
    20    16    15    1
    21    19    14    2
    22    20    21    2
    23    20    19    1
    24    21    26    1
    25    22    21    1
    26    23    22    1
    27    24    23    1
    28    24    25    1
    29    26    27    1
    30    26    13    2
    31    29    35    1
    32    31    40    2
    33    33    29    1
    34    34    36    1
    35    34    43    1
    36    37    30    1
    37    38    33    1
    38    39    34    1
    39    40    39   am
    40    40    44    1
    41    41    45    1
    42    42    41    1
    43    42    29    1
    44    44    32    1
    45    44    36    1
    46    45    43    1
    47    45    28    1
    48    45    30    1
