@<TRIPOS>MOLECULE
outputs/IAG933/test6/raw/output_6475_IAG933_linker_design_.xyz
 41 44 0 0 0
SMALL
GASTEIGER

@<TRIPOS>ATOM
      1 C         -24.8550   -1.0120   30.1430 C.3     1  UNL1        0.0544
      2 C         -24.9730   -2.5050   29.7880 C.2     1  UNL1       -0.0198
      3 C         -23.9060   -3.1730   29.1460 C.2     1  UNL1       -0.0042
      4 C         -23.9890   -4.5490   28.8530 C.2     1  UNL1       -0.0003
      5 C         -25.1370   -5.2800   29.2050 C.2     1  UNL1       -0.0000
      6 C         -26.2320   -4.6110   29.7840 C.2     1  UNL1       -0.0003
      7 C         -26.1550   -3.2320   30.0650 C.2     1  UNL1       -0.0042
      8 C         -25.3870   -0.6790   31.5710 C.3     1  UNL1        0.0782
      9 C         -25.1890    0.7730   32.0280 C.3     1  UNL1        0.0192
     10 C         -25.3360    0.6840   33.5440 C.3     1  UNL1        0.0202
     11 C         -24.8290   -0.7150   33.9050 C.3     1  UNL1        0.0887
     12 N         -24.7580   -1.4810   32.6460 N.3     1  UNL1       -0.2191
     13 C         -25.6880    1.6140   26.4610 C.3     1  UNL1        0.0702
     14 C         -26.2500    2.9200   26.3950 C.2     1  UNL1        0.0548
     15 C         -25.6420    4.0930   27.1230 C.2     1  UNL1        0.2624
     16 N         -25.6140    5.2520   26.4490 N.am    1  UNL1       -0.2000
     17 C         -25.0260    6.4790   26.9630 C.3     1  UNL1        0.1388
     18 O         -25.1430    3.9660   28.2430 O.2     1  UNL1       -0.2687
     19 C         -27.4380    3.0910   25.6450 C.2     1  UNL1        0.1021
     20 N         -28.0750    2.0890   25.0030 N.2     1  UNL1       -0.2119
     21 C         -27.5430    0.8490   25.0790 C.2     1  UNL1        0.2341
     22 O         -28.1930   -0.2080   24.4770 O.2     1  UNL1       -0.4585
     23 C         -29.4600    0.0050   23.8660 C.3     1  UNL1        0.2423
     24 C         -30.0650   -1.3770   23.5730 C.3     1  UNL1        0.2292
     25 O         -30.7290   -1.8780   24.7210 O.3     1  UNL1       -0.2162
     26 C         -26.3540    0.5760   25.7770 C.3     1  UNL1        0.2400
     27 F         -25.8600   -0.6810   25.7950 F       1  UNL1       -0.2269
     28 N         -22.5589    0.6281   29.9483 N.3     1  UNL1       -0.1329
     29 C         -22.7340    0.3579   28.4859 C.3     1  UNL1        0.0931
     30 C         -28.7612    0.5441   31.4142 C.3     1  UNL1        0.0000
     31 C         -22.0216    1.4145   27.6532 C.3     1  UNL1        0.0191
     32 C         -24.2217    0.5232   28.1675 C.3     1  UNL1        0.0344
     33 C         -22.5198    2.4795   25.4358 C.3     1  UNL1        0.0001
     34 N         -26.5063   -0.2003   28.8441 N.3     1  UNL1       -0.2190
     35 C         -27.7239   -0.6437   28.7579 C.3     1  UNL1        0.0887
     36 C         -23.0998    2.1525   26.8007 C.3     1  UNL1        0.0019
     37 C         -24.2914    1.1948   26.7767 C.3     1  UNL1        0.0102
     38 C         -28.5698    0.6445   28.8928 C.3     1  UNL1        0.0188
     39 C         -25.1290   -0.1452   28.9093 C.3     1  UNL1        0.0795
     40 C         -28.1546    1.2499   30.1612 C.3     1  UNL1        0.0014
     41 C         -27.2523    2.5195   30.1333 C.3     1  UNL1        0.0000
@<TRIPOS>BOND
     1     1    39    1
     2     2     7    1
     3     2     1    1
     4     3     2    2
     5     4     3    1
     6     4     5    2
     7     5     6    1
     8     6     7    2
     9     8     1    1
    10     8     9    1
    11     8    12    1
    12     9    10    1
    13    10    11    1
    14    12    11    1
    15    13    14    1
    16    14    15    1
    17    15    18    2
    18    16    17    1
    19    16    15    1
    20    19    14    2
    21    20    21    2
    22    20    19    1
    23    21    26    1
    24    22    21    1
    25    23    22    1
    26    24    23    1
    27    24    25    1
    28    26    27    1
    29    26    13    1
    30    29    28    1
    31    31    29    1
    32    32    29    1
    33    32    39    1
    34    35    34    1
    35    35    38    1
    36    36    33    1
    37    36    31    1
    38    37    13    1
    39    37    36    1
    40    37    32    1
    41    38    40    1
    42    39    34    1
    43    40    30    1
    44    41    40    1
