@<TRIPOS>MOLECULE
outputs/IAG933/test6/raw/output_6484_IAG933_linker_design_.xyz
 46 50 0 0 0
SMALL
GASTEIGER

@<TRIPOS>ATOM
      1 C         -24.8550   -1.0120   30.1430 C.3     1  UNL1        0.0384
      2 C         -24.9730   -2.5050   29.7880 C.2     1  UNL1       -0.0212
      3 C         -23.9060   -3.1730   29.1460 C.2     1  UNL1       -0.0042
      4 C         -23.9890   -4.5490   28.8530 C.2     1  UNL1       -0.0003
      5 C         -25.1370   -5.2800   29.2050 C.2     1  UNL1       -0.0000
      6 C         -26.2320   -4.6110   29.7840 C.2     1  UNL1       -0.0003
      7 C         -26.1550   -3.2320   30.0650 C.2     1  UNL1       -0.0042
      8 C         -25.3870   -0.6790   31.5710 C.3     1  UNL1        0.0768
      9 C         -25.1890    0.7730   32.0280 C.3     1  UNL1        0.0192
     10 C         -25.3360    0.6840   33.5440 C.3     1  UNL1        0.0202
     11 C         -24.8290   -0.7150   33.9050 C.3     1  UNL1        0.0887
     12 N         -24.7580   -1.4810   32.6460 N.3     1  UNL1       -0.2191
     13 C         -25.6880    1.6140   26.4610 C.2     1  UNL1        0.0205
     14 C         -26.2500    2.9200   26.3950 C.2     1  UNL1        0.0729
     15 C         -25.6420    4.0930   27.1230 C.2     1  UNL1        0.2661
     16 N         -25.6140    5.2520   26.4490 N.am    1  UNL1       -0.1997
     17 C         -25.0260    6.4790   26.9630 C.3     1  UNL1        0.1388
     18 O         -25.1430    3.9660   28.2430 O.2     1  UNL1       -0.2683
     19 C         -27.4380    3.0910   25.6450 C.2     1  UNL1        0.1064
     20 N         -28.0750    2.0890   25.0030 N.2     1  UNL1       -0.2081
     21 C         -27.5430    0.8490   25.0790 C.2     1  UNL1        0.2530
     22 O         -28.1930   -0.2080   24.4770 O.2     1  UNL1       -0.4558
     23 C         -29.4600    0.0050   23.8660 C.3     1  UNL1        0.2426
     24 C         -30.0650   -1.3770   23.5730 C.3     1  UNL1        0.2292
     25 O         -30.7290   -1.8780   24.7210 O.3     1  UNL1       -0.2162
     26 C         -26.3540    0.5760   25.7770 C.2     1  UNL1        0.1894
     27 F         -25.8600   -0.6810   25.7950 F       1  UNL1       -0.1996
     28 C         -29.1578    2.8710   30.0800 C.3     1  UNL1        0.0272
     29 C         -23.3330    1.6685   27.0543 C.2     1  UNL1        0.0349
     30 C         -29.7728    1.7775   27.8006 C.3     1  UNL1        0.0272
     31 C         -25.2786    0.8433   28.6909 C.3     1  UNL1        0.0094
     32 CL        -23.0842    2.7284   25.5550 Cl      1  UNL1       -0.0869
     33 O         -31.3285    3.3145   28.9523 O.3     1  UNL1       -0.3559
     34 C         -24.1501   -0.0792   29.1859 C.3     1  UNL1        0.0064
     35 C         -31.8614    4.6332   29.2773 C.3     1  UNL1        0.1739
     36 C         -29.9197    3.0278   28.7478 C.3     1  UNL1        0.0929
     37 C         -21.7005    0.4094   28.4833 C.3     1  UNL1        0.0226
     38 C         -26.6167    0.0493   28.5570 C.3     1  UNL1        0.0007
     39 C         -24.6099    1.2503   27.3116 C.3     1  UNL1        0.0575
     40 C         -22.6461   -0.1108   29.3458 C.3     1  UNL1        0.0047
     41 C         -22.0567    1.3254   27.5212 C.2     1  UNL1       -0.0191
     42 C         -28.6505    1.4970   30.4527 C.3     1  UNL1        0.0024
     43 C         -29.0100    0.5850   28.1153 C.3     1  UNL1        0.0024
     44 C         -29.3400    4.3143   28.0882 C.3     1  UNL1        0.0296
     45 C         -20.3158   -0.0193   28.6047 C.3     1  UNL1        0.0047
     46 C         -27.9510    0.6342   29.2453 C.3     1  UNL1        0.0002
@<TRIPOS>BOND
     1     1     2    1
     2     2     7    1
     3     3     2    2
     4     4     3    1
     5     4     5    2
     6     5     6    1
     7     6     7    2
     8     8     1    1
     9     8     9    1
    10     8    12    1
    11     9    10    1
    12    10    11    1
    13    12    11    1
    14    14    13    1
    15    14    15    1
    16    15    18    2
    17    16    17    1
    18    16    15    1
    19    19    14    2
    20    20    21    2
    21    20    19    1
    22    21    26    1
    23    22    21    1
    24    23    22    1
    25    24    23    1
    26    24    25    1
    27    26    27    1
    28    26    13    2
    29    28    42    1
    30    29    39    1
    31    29    41    2
    32    30    43    1
    33    30    36    1
    34    31    38    1
    35    31    34    1
    36    32    29    1
    37    33    35    1
    38    34    40    1
    39    34     1    1
    40    36    44    1
    41    36    33    1
    42    36    28    1
    43    37    45    1
    44    37    40    1
    45    39    13    1
    46    39    31    1
    47    41    37    1
    48    43    46    1
    49    46    38    1
    50    46    42    1
