@<TRIPOS>MOLECULE
outputs/IAG933/test6/raw/output_6487_IAG933_linker_design_.xyz
 44 49 0 0 0
SMALL
GASTEIGER

@<TRIPOS>ATOM
      1 C         -24.8550   -1.0120   30.1430 C.3     1  UNL1        0.0980
      2 C         -24.9730   -2.5050   29.7880 C.2     1  UNL1       -0.0064
      3 C         -23.9060   -3.1730   29.1460 C.2     1  UNL1       -0.0029
      4 C         -23.9890   -4.5490   28.8530 C.2     1  UNL1       -0.0003
      5 C         -25.1370   -5.2800   29.2050 C.2     1  UNL1       -0.0000
      6 C         -26.2320   -4.6110   29.7840 C.2     1  UNL1       -0.0003
      7 C         -26.1550   -3.2320   30.0650 C.2     1  UNL1       -0.0029
      8 C         -25.3870   -0.6790   31.5710 C.3     1  UNL1        0.0916
      9 C         -25.1890    0.7730   32.0280 C.3     1  UNL1        0.0206
     10 C         -25.3360    0.6840   33.5440 C.3     1  UNL1        0.0203
     11 C         -24.8290   -0.7150   33.9050 C.3     1  UNL1        0.0888
     12 N         -24.7580   -1.4810   32.6460 N.3     1  UNL1       -0.2178
     13 C         -25.6880    1.6140   26.4610 C.3     1  UNL1        0.0908
     14 C         -26.2500    2.9200   26.3950 C.2     1  UNL1        0.0565
     15 C         -25.6420    4.0930   27.1230 C.2     1  UNL1        0.2625
     16 N         -25.6140    5.2520   26.4490 N.am    1  UNL1       -0.2000
     17 C         -25.0260    6.4790   26.9630 C.3     1  UNL1        0.1388
     18 O         -25.1430    3.9660   28.2430 O.2     1  UNL1       -0.2687
     19 C         -27.4380    3.0910   25.6450 C.2     1  UNL1        0.1022
     20 N         -28.0750    2.0890   25.0030 N.2     1  UNL1       -0.2119
     21 C         -27.5430    0.8490   25.0790 C.2     1  UNL1        0.2341
     22 O         -28.1930   -0.2080   24.4770 O.2     1  UNL1       -0.4585
     23 C         -29.4600    0.0050   23.8660 C.3     1  UNL1        0.2423
     24 C         -30.0650   -1.3770   23.5730 C.3     1  UNL1        0.2292
     25 O         -30.7290   -1.8780   24.7210 O.3     1  UNL1       -0.2162
     26 C         -26.3540    0.5760   25.7770 C.3     1  UNL1        0.2417
     27 F         -25.8600   -0.6810   25.7950 F       1  UNL1       -0.2268
     28 C         -28.7983    3.1872   30.3650 C.3     1  UNL1        0.0308
     29 N         -25.2034    0.0806   29.2250 N.3     1  UNL1       -0.2466
     30 C         -21.6024    1.0695   27.9802 C.2     1  UNL1        0.2312
     31 F         -20.3549    0.9491   28.4424 F       1  UNL1       -0.1844
     32 C         -28.2251    2.0073   29.6719 C.2     1  UNL1       -0.0219
     33 N         -27.2412   -0.2796   28.5498 N.pl3   1  UNL1       -0.2189
     34 C         -28.5984    0.0419   28.3174 C.2     1  UNL1        0.0816
     35 C         -26.8490    1.7822   29.5983 C.2     1  UNL1        0.0057
     36 N         -21.8212    1.7574   26.8768 N.am    1  UNL1       -0.1465
     37 C         -29.1146    1.1781   28.9552 C.2     1  UNL1        0.0130
     38 N         -22.6299   -0.2269   29.5109 N.pl3   1  UNL1       -0.1244
     39 C         -26.3413    0.5813   28.9697 C.3     1  UNL1        0.1578
     40 O         -23.5586    2.5716   25.6193 O.2     1  UNL1       -0.2682
     41 C         -22.7862    0.5519   28.4960 C.2     1  UNL1        0.1342
     42 C         -23.0992    1.8772   26.5663 C.2     1  UNL1        0.2697
     43 C         -23.7148    1.0374   27.6674 C.2     1  UNL1        0.0700
     44 C         -25.1095    0.8446   28.0595 C.3     1  UNL1        0.1122
@<TRIPOS>BOND
     1     1     2    1
     2     2     7    1
     3     3     2    2
     4     4     3    1
     5     4     5    2
     6     5     6    1
     7     6     7    2
     8     8     1    1
     9     8     9    1
    10     8    12    1
    11     9    10    1
    12    10    11    1
    13    12    11    1
    14    13    14    1
    15    13    44    1
    16    14    15    1
    17    15    18    2
    18    16    17    1
    19    16    15    1
    20    19    14    2
    21    20    21    2
    22    20    19    1
    23    21    26    1
    24    22    21    1
    25    23    22    1
    26    24    23    1
    27    24    25    1
    28    26    27    1
    29    26    13    1
    30    29     1    1
    31    30    31    1
    32    30    41    1
    33    32    28    1
    34    33    39    1
    35    34    33    1
    36    34    37    2
    37    35    32    2
    38    36    30    2
    39    37    32    1
    40    39    29    1
    41    39    35    1
    42    40    42    2
    43    41    38    1
    44    42    36    1
    45    42    43    1
    46    43    41    2
    47    44    43    1
    48    44    39    1
    49    44    29    1
