@<TRIPOS>MOLECULE
outputs/IAG933/test6/raw/output_649_IAG933_linker_design_.xyz
 46 50 0 0 0
SMALL
GASTEIGER

@<TRIPOS>ATOM
      1 C         -24.8550   -1.0120   30.1430 C.3     1  UNL1        0.1248
      2 C         -24.9730   -2.5050   29.7880 C.2     1  UNL1       -0.0004
      3 C         -23.9060   -3.1730   29.1460 C.2     1  UNL1       -0.0024
      4 C         -23.9890   -4.5490   28.8530 C.2     1  UNL1       -0.0003
      5 C         -25.1370   -5.2800   29.2050 C.2     1  UNL1       -0.0000
      6 C         -26.2320   -4.6110   29.7840 C.2     1  UNL1       -0.0003
      7 C         -26.1550   -3.2320   30.0650 C.2     1  UNL1       -0.0024
      8 C         -25.3870   -0.6790   31.5710 C.3     1  UNL1        0.0977
      9 C         -25.1890    0.7730   32.0280 C.3     1  UNL1        0.0211
     10 C         -25.3360    0.6840   33.5440 C.3     1  UNL1        0.0203
     11 C         -24.8290   -0.7150   33.9050 C.3     1  UNL1        0.0888
     12 N         -24.7580   -1.4810   32.6460 N.3     1  UNL1       -0.2172
     13 C         -25.6880    1.6140   26.4610 C.3     1  UNL1        0.0965
     14 C         -26.2500    2.9200   26.3950 C.2     1  UNL1        0.0590
     15 C         -25.6420    4.0930   27.1230 C.2     1  UNL1        0.2628
     16 N         -25.6140    5.2520   26.4490 N.am    1  UNL1       -0.2000
     17 C         -25.0260    6.4790   26.9630 C.3     1  UNL1        0.1388
     18 O         -25.1430    3.9660   28.2430 O.2     1  UNL1       -0.2686
     19 C         -27.4380    3.0910   25.6450 C.2     1  UNL1        0.1025
     20 N         -28.0750    2.0890   25.0030 N.2     1  UNL1       -0.2118
     21 C         -27.5430    0.8490   25.0790 C.2     1  UNL1        0.2344
     22 O         -28.1930   -0.2080   24.4770 O.2     1  UNL1       -0.4585
     23 C         -29.4600    0.0050   23.8660 C.3     1  UNL1        0.2423
     24 C         -30.0650   -1.3770   23.5730 C.3     1  UNL1        0.2292
     25 O         -30.7290   -1.8780   24.7210 O.3     1  UNL1       -0.2162
     26 C         -26.3540    0.5760   25.7770 C.3     1  UNL1        0.2441
     27 F         -25.8600   -0.6810   25.7950 F       1  UNL1       -0.2265
     28 C         -23.4459    1.1197   27.6240 C.ar    1  UNL1        0.1690
     29 C         -28.7083    2.5023   31.2779 C.3     1  UNL1        0.0771
     30 C         -25.4558    0.4698   28.5435 C.ar    1  UNL1        0.0381
     31 C         -22.8766    2.3490   25.6203 C.3     1  UNL1        0.2526
     32 C         -26.8618    0.0222   28.7301 C.3     1  UNL1        0.0476
     33 C         -28.8480    1.7779   33.5462 C.2     1  UNL1       -0.0279
     34 N         -24.4991   -0.0177   29.2497 N.ar    1  UNL1       -0.3116
     35 N         -22.0621    0.2543   29.4440 N.pl3   1  UNL1       -0.1057
     36 C         -30.4738    1.0178   31.8622 C.3     1  UNL1        0.0986
     37 C         -27.9460    1.0149   29.3318 C.3     1  UNL1        0.0548
     38 O         -29.4971   -0.5515   28.5060 O.3     1  UNL1       -0.2204
     39 N         -29.5588    1.3451   30.8707 N.3     1  UNL1       -0.2686
     40 C         -24.8905    1.1386   27.4626 C.ar    1  UNL1        0.0335
     41 O         -22.5457    1.7669   26.9525 O.3     1  UNL1       -0.4688
     42 C         -29.3115    0.7827   28.5491 C.3     1  UNL1        0.1838
     43 C         -28.1377    2.2170   32.6527 C.3     1  UNL1        0.0431
     44 C         -28.4508    0.3761   30.6595 C.3     1  UNL1        0.0753
     45 C         -23.2473    0.4237   28.8482 C.ar    1  UNL1        0.1852
     46 C         -30.1185    1.1474   33.2716 C.2     1  UNL1       -0.0133
@<TRIPOS>BOND
     1     1     2    1
     2     2     7    1
     3     3     2    2
     4     4     3    1
     5     4     5    2
     6     5     6    1
     7     6     7    2
     8     8     1    1
     9     8     9    1
    10     8    12    1
    11     9    10    1
    12    10    11    1
    13    12    11    1
    14    13    40    1
    15    14    13    1
    16    14    15    1
    17    15    18    2
    18    16    17    1
    19    16    15    1
    20    19    14    2
    21    20    21    2
    22    20    19    1
    23    21    26    1
    24    22    21    1
    25    23    22    1
    26    24    23    1
    27    24    25    1
    28    26    27    1
    29    26    13    1
    30    28    45   ar
    31    29    43    1
    32    30    32    1
    33    30    34   ar
    34    31    41    1
    35    32    37    1
    36    34     1    1
    37    36    46    1
    38    37    42    1
    39    37    44    1
    40    38    42    1
    41    39    29    1
    42    39    36    1
    43    40    28   ar
    44    40    30   ar
    45    41    28    1
    46    43    33    1
    47    44    39    1
    48    45    34   ar
    49    45    35    1
    50    46    33    2
