@<TRIPOS>MOLECULE
outputs/IAG933/test6/raw/output_6491_IAG933_linker_design_.xyz
 44 48 0 0 0
SMALL
GASTEIGER

@<TRIPOS>ATOM
      1 C         -24.8550   -1.0120   30.1430 C.3     1  UNL1        0.0424
      2 C         -24.9730   -2.5050   29.7880 C.2     1  UNL1       -0.0208
      3 C         -23.9060   -3.1730   29.1460 C.2     1  UNL1       -0.0042
      4 C         -23.9890   -4.5490   28.8530 C.2     1  UNL1       -0.0003
      5 C         -25.1370   -5.2800   29.2050 C.2     1  UNL1       -0.0000
      6 C         -26.2320   -4.6110   29.7840 C.2     1  UNL1       -0.0003
      7 C         -26.1550   -3.2320   30.0650 C.2     1  UNL1       -0.0042
      8 C         -25.3870   -0.6790   31.5710 C.3     1  UNL1        0.0771
      9 C         -25.1890    0.7730   32.0280 C.3     1  UNL1        0.0192
     10 C         -25.3360    0.6840   33.5440 C.3     1  UNL1        0.0202
     11 C         -24.8290   -0.7150   33.9050 C.3     1  UNL1        0.0887
     12 N         -24.7580   -1.4810   32.6460 N.3     1  UNL1       -0.2191
     13 C         -25.6880    1.6140   26.4610 C.3     1  UNL1        0.1319
     14 C         -26.2500    2.9200   26.3950 C.2     1  UNL1        0.0622
     15 C         -25.6420    4.0930   27.1230 C.2     1  UNL1        0.2629
     16 N         -25.6140    5.2520   26.4490 N.am    1  UNL1       -0.2000
     17 C         -25.0260    6.4790   26.9630 C.3     1  UNL1        0.1388
     18 O         -25.1430    3.9660   28.2430 O.2     1  UNL1       -0.2686
     19 C         -27.4380    3.0910   25.6450 C.2     1  UNL1        0.1026
     20 N         -28.0750    2.0890   25.0030 N.2     1  UNL1       -0.2118
     21 C         -27.5430    0.8490   25.0790 C.2     1  UNL1        0.2345
     22 O         -28.1930   -0.2080   24.4770 O.2     1  UNL1       -0.4585
     23 C         -29.4600    0.0050   23.8660 C.3     1  UNL1        0.2423
     24 C         -30.0650   -1.3770   23.5730 C.3     1  UNL1        0.2292
     25 O         -30.7290   -1.8780   24.7210 O.3     1  UNL1       -0.2162
     26 C         -26.3540    0.5760   25.7770 C.3     1  UNL1        0.2473
     27 F         -25.8600   -0.6810   25.7950 F       1  UNL1       -0.2264
     28 F         -20.4392    2.4983   27.7173 F       1  UNL1        0.0153
     29 C         -29.5717    2.8360   29.2701 C.2     1  UNL1       -0.0000
     30 C         -26.7316   -0.2135   28.6097 C.3     1  UNL1        0.0308
     31 C         -23.5796    1.2236   27.5520 C.2     1  UNL1        0.0858
     32 C         -24.1459    0.5705   28.6236 C.2     1  UNL1       -0.0122
     33 C         -29.0203    0.6978   28.2457 C.2     1  UNL1       -0.0043
     34 N         -21.8242    1.1083   28.9243 N.2     1  UNL1       -0.2300
     35 O         -23.5865    2.2776   25.5040 O.2     1  UNL1       -0.2908
     36 C         -22.8769    0.5676   29.5979 C.3     1  UNL1        0.1512
     37 C         -27.4815    1.7727   29.8983 C.2     1  UNL1       -0.0043
     38 O         -21.4849    2.1172   26.9303 O.2     1  UNL1       -0.2723
     39 C         -22.2842    1.4636   27.7250 C.2     1  UNL1        0.2704
     40 C         -24.2060    1.6624   26.4264 C.2     1  UNL1        0.1841
     41 C         -28.3869    2.8470   30.0215 C.2     1  UNL1       -0.0003
     42 C         -27.7599    0.7084   28.9417 C.2     1  UNL1       -0.0219
     43 C         -25.2853   -0.0829   29.0476 C.3     1  UNL1        0.0302
     44 C         -29.8918    1.7814   28.3922 C.2     1  UNL1       -0.0003
@<TRIPOS>BOND
     1     1    43    1
     2     2     7    1
     3     2     1    1
     4     3     2    2
     5     4     3    1
     6     4     5    2
     7     5     6    1
     8     6     7    2
     9     8     1    1
    10     8     9    1
    11     8    12    1
    12     9    10    1
    13    10    11    1
    14    12    11    1
    15    13    40    1
    16    14    13    1
    17    14    15    1
    18    15    18    2
    19    16    17    1
    20    16    15    1
    21    19    14    2
    22    20    21    2
    23    20    19    1
    24    21    26    1
    25    22    21    1
    26    23    22    1
    27    24    23    1
    28    24    25    1
    29    26    27    1
    30    26    13    1
    31    29    41    1
    32    30    42    1
    33    31    39    1
    34    31    32    2
    35    32    43    1
    36    32    36    1
    37    33    44    1
    38    33    42    2
    39    34    36    1
    40    35    40    2
    41    37    41    2
    42    38    28    1
    43    38    39    1
    44    39    34    2
    45    40    31    1
    46    42    37    1
    47    43    30    1
    48    44    29    2
