@<TRIPOS>MOLECULE
outputs/IAG933/test6/raw/output_6494_IAG933_linker_design_.xyz
 38 42 0 0 0
SMALL
GASTEIGER

@<TRIPOS>ATOM
      1 C         -24.8550   -1.0120   30.1430 C.3     1  UNL1        0.1588
      2 C         -24.9730   -2.5050   29.7880 C.2     1  UNL1        0.0026
      3 C         -23.9060   -3.1730   29.1460 C.2     1  UNL1       -0.0023
      4 C         -23.9890   -4.5490   28.8530 C.2     1  UNL1       -0.0003
      5 C         -25.1370   -5.2800   29.2050 C.2     1  UNL1       -0.0000
      6 C         -26.2320   -4.6110   29.7840 C.2     1  UNL1       -0.0003
      7 C         -26.1550   -3.2320   30.0650 C.2     1  UNL1       -0.0023
      8 C         -25.3870   -0.6790   31.5710 C.3     1  UNL1        0.1008
      9 C         -25.1890    0.7730   32.0280 C.3     1  UNL1        0.0212
     10 C         -25.3360    0.6840   33.5440 C.3     1  UNL1        0.0203
     11 C         -24.8290   -0.7150   33.9050 C.3     1  UNL1        0.0888
     12 N         -24.7580   -1.4810   32.6460 N.3     1  UNL1       -0.2171
     13 C         -25.6880    1.6140   26.4610 C.2     1  UNL1        0.0427
     14 C         -26.2500    2.9200   26.3950 C.2     1  UNL1        0.0767
     15 C         -25.6420    4.0930   27.1230 C.2     1  UNL1        0.2664
     16 N         -25.6140    5.2520   26.4490 N.am    1  UNL1       -0.1997
     17 C         -25.0260    6.4790   26.9630 C.3     1  UNL1        0.1388
     18 O         -25.1430    3.9660   28.2430 O.2     1  UNL1       -0.2683
     19 C         -27.4380    3.0910   25.6450 C.2     1  UNL1        0.1067
     20 N         -28.0750    2.0890   25.0030 N.2     1  UNL1       -0.2081
     21 C         -27.5430    0.8490   25.0790 C.2     1  UNL1        0.2533
     22 O         -28.1930   -0.2080   24.4770 O.2     1  UNL1       -0.4558
     23 C         -29.4600    0.0050   23.8660 C.3     1  UNL1        0.2426
     24 C         -30.0650   -1.3770   23.5730 C.3     1  UNL1        0.2292
     25 O         -30.7290   -1.8780   24.7210 O.3     1  UNL1       -0.2162
     26 C         -26.3540    0.5760   25.7770 C.2     1  UNL1        0.1932
     27 F         -25.8600   -0.6810   25.7950 F       1  UNL1       -0.1992
     28 C         -21.6029   -0.0912   29.1017 C.ar    1  UNL1        0.2648
     29 C         -24.3652    1.3656   27.0808 C.ar    1  UNL1        0.0626
     30 O         -22.5541   -0.6581   29.9657 O.2     1  UNL1       -0.3568
     31 O         -23.2202    2.8985   25.4476 O.3     1  UNL1       -0.2841
     32 C         -22.1297    1.5251   27.0809 C.ar    1  UNL1        0.1847
     33 C         -22.4231    0.6417   28.2032 C.ar    1  UNL1        0.1040
     34 F         -20.9072    1.8154   26.6425 F       1  UNL1       -0.2006
     35 C         -23.2645    1.9852   26.4622 C.ar    1  UNL1        0.2245
     36 C         -23.8170    0.5239   28.3367 C.ar    1  UNL1        0.1034
     37 N         -20.2881   -0.0619   28.9390 N.pl3   1  UNL1       -0.0852
     38 N         -23.8077   -0.3108   29.5377 N.ar    1  UNL1       -0.1900
@<TRIPOS>BOND
     1     1     2    1
     2     2     7    1
     3     3     2    2
     4     4     3    1
     5     4     5    2
     6     5     6    1
     7     6     7    2
     8     8     1    1
     9     8     9    1
    10     8    12    1
    11     9    10    1
    12    10    11    1
    13    12    11    1
    14    13    29    1
    15    14    13    1
    16    14    15    1
    17    15    18    2
    18    16    17    1
    19    16    15    1
    20    19    14    2
    21    20    21    2
    22    20    19    1
    23    21    26    1
    24    22    21    1
    25    23    22    1
    26    24    23    1
    27    24    25    1
    28    26    27    1
    29    26    13    2
    30    28    30   ar
    31    29    36   ar
    32    31    35    1
    33    32    33   ar
    34    33    36    1
    35    33    28   ar
    36    34    32    1
    37    35    29   ar
    38    35    32   ar
    39    36    38   ar
    40    37    28    1
    41    38    30   ar
    42    38     1    1
