@<TRIPOS>MOLECULE
outputs/IAG933/test6/raw/output_6496_IAG933_linker_design_.xyz
 43 46 0 0 0
SMALL
GASTEIGER

@<TRIPOS>ATOM
      1 C         -24.8550   -1.0120   30.1430 C.3     1  UNL1        0.0438
      2 C         -24.9730   -2.5050   29.7880 C.2     1  UNL1       -0.0208
      3 C         -23.9060   -3.1730   29.1460 C.2     1  UNL1       -0.0042
      4 C         -23.9890   -4.5490   28.8530 C.2     1  UNL1       -0.0003
      5 C         -25.1370   -5.2800   29.2050 C.2     1  UNL1       -0.0000
      6 C         -26.2320   -4.6110   29.7840 C.2     1  UNL1       -0.0003
      7 C         -26.1550   -3.2320   30.0650 C.2     1  UNL1       -0.0042
      8 C         -25.3870   -0.6790   31.5710 C.3     1  UNL1        0.0789
      9 C         -25.1890    0.7730   32.0280 C.3     1  UNL1        0.0428
     10 C         -25.3360    0.6840   33.5440 C.3     1  UNL1        0.0221
     11 C         -24.8290   -0.7150   33.9050 C.3     1  UNL1        0.0888
     12 N         -24.7580   -1.4810   32.6460 N.3     1  UNL1       -0.2191
     13 C         -25.6880    1.6140   26.4610 C.3     1  UNL1        0.0876
     14 C         -26.2500    2.9200   26.3950 C.2     1  UNL1        0.0562
     15 C         -25.6420    4.0930   27.1230 C.2     1  UNL1        0.2625
     16 N         -25.6140    5.2520   26.4490 N.am    1  UNL1       -0.2000
     17 C         -25.0260    6.4790   26.9630 C.3     1  UNL1        0.1388
     18 O         -25.1430    3.9660   28.2430 O.2     1  UNL1       -0.2687
     19 C         -27.4380    3.0910   25.6450 C.2     1  UNL1        0.1022
     20 N         -28.0750    2.0890   25.0030 N.2     1  UNL1       -0.2119
     21 C         -27.5430    0.8490   25.0790 C.2     1  UNL1        0.2341
     22 O         -28.1930   -0.2080   24.4770 O.2     1  UNL1       -0.4585
     23 C         -29.4600    0.0050   23.8660 C.3     1  UNL1        0.2423
     24 C         -30.0650   -1.3770   23.5730 C.3     1  UNL1        0.2292
     25 O         -30.7290   -1.8780   24.7210 O.3     1  UNL1       -0.2162
     26 C         -26.3540    0.5760   25.7770 C.3     1  UNL1        0.2414
     27 F         -25.8600   -0.6810   25.7950 F       1  UNL1       -0.2268
     28 C         -24.9984    7.2107   32.0545 C.2     1  UNL1        0.0000
     29 O         -22.4745    1.1113   29.7834 O.3     1  UNL1       -0.2036
     30 C         -20.0789    1.5965   27.9215 C.3     1  UNL1        0.0043
     31 C         -24.4639    6.1571   32.8238 C.2     1  UNL1        0.0001
     32 N         -24.9003    1.7417   29.2677 N.3     1  UNL1       -0.1384
     33 C         -25.8453    2.9749   31.0743 C.2     1  UNL1        0.1903
     34 O         -27.0236    2.7457   30.9523 O.2     1  UNL1       -0.2898
     35 C         -24.2935    1.2583   26.7545 C.3     1  UNL1        0.1004
     36 N         -23.8169    1.7259   28.1110 N.3     1  UNL1       -0.1761
     37 C         -25.8250    6.9055   30.9576 C.2     1  UNL1        0.0001
     38 C         -24.8045    4.8550   32.5274 C.2     1  UNL1        0.0029
     39 C         -25.5487    4.5092   31.4240 C.2     1  UNL1        0.0361
     40 C         -21.5234    1.7023   27.4747 C.3     1  UNL1        0.0514
     41 C         -26.0800    5.5536   30.6129 C.2     1  UNL1        0.0029
     42 C         -24.8165    1.7923   30.8675 C.3     1  UNL1        0.1531
     43 C         -22.5780    1.0176   28.3907 C.3     1  UNL1        0.2266
@<TRIPOS>BOND
     1     2     7    1
     2     2     1    1
     3     3     2    2
     4     4     3    1
     5     4     5    2
     6     5     6    1
     7     6     7    2
     8     8     1    1
     9     8     9    1
    10     8    12    1
    11     9    42    1
    12     9    10    1
    13    10    11    1
    14    12    11    1
    15    13    35    1
    16    14    13    1
    17    14    15    1
    18    15    18    2
    19    16    17    1
    20    16    15    1
    21    19    14    2
    22    20    21    2
    23    20    19    1
    24    21    26    1
    25    22    21    1
    26    23    22    1
    27    24    23    1
    28    24    25    1
    29    26    27    1
    30    26    13    1
    31    28    31    1
    32    33    39    1
    33    34    33    2
    34    35    36    1
    35    36    43    1
    36    36    32    1
    37    37    28    2
    38    38    31    2
    39    39    38    1
    40    40    30    1
    41    40    43    1
    42    41    37    1
    43    41    39    2
    44    42    32    1
    45    42    33    1
    46    43    29    1
