@<TRIPOS>MOLECULE
outputs/IAG933/test6/raw/output_6499_IAG933_linker_design_.xyz
 45 49 0 0 0
SMALL
GASTEIGER

@<TRIPOS>ATOM
      1 C         -24.8550   -1.0120   30.1430 C.3     1  UNL1        0.1111
      2 C         -24.9730   -2.5050   29.7880 C.2     1  UNL1       -0.0030
      3 C         -23.9060   -3.1730   29.1460 C.2     1  UNL1       -0.0026
      4 C         -23.9890   -4.5490   28.8530 C.2     1  UNL1       -0.0003
      5 C         -25.1370   -5.2800   29.2050 C.2     1  UNL1       -0.0000
      6 C         -26.2320   -4.6110   29.7840 C.2     1  UNL1       -0.0003
      7 C         -26.1550   -3.2320   30.0650 C.2     1  UNL1       -0.0026
      8 C         -25.3870   -0.6790   31.5710 C.3     1  UNL1        0.0950
      9 C         -25.1890    0.7730   32.0280 C.3     1  UNL1        0.0209
     10 C         -25.3360    0.6840   33.5440 C.3     1  UNL1        0.0203
     11 C         -24.8290   -0.7150   33.9050 C.3     1  UNL1        0.0888
     12 N         -24.7580   -1.4810   32.6460 N.3     1  UNL1       -0.2174
     13 C         -25.6880    1.6140   26.4610 C.2     1  UNL1        0.0391
     14 C         -26.2500    2.9200   26.3950 C.2     1  UNL1        0.0766
     15 C         -25.6420    4.0930   27.1230 C.2     1  UNL1        0.2664
     16 N         -25.6140    5.2520   26.4490 N.am    1  UNL1       -0.1997
     17 C         -25.0260    6.4790   26.9630 C.3     1  UNL1        0.1388
     18 O         -25.1430    3.9660   28.2430 O.2     1  UNL1       -0.2683
     19 C         -27.4380    3.0910   25.6450 C.2     1  UNL1        0.1067
     20 N         -28.0750    2.0890   25.0030 N.2     1  UNL1       -0.2081
     21 C         -27.5430    0.8490   25.0790 C.2     1  UNL1        0.2533
     22 O         -28.1930   -0.2080   24.4770 O.2     1  UNL1       -0.4558
     23 C         -29.4600    0.0050   23.8660 C.3     1  UNL1        0.2426
     24 C         -30.0650   -1.3770   23.5730 C.3     1  UNL1        0.2292
     25 O         -30.7290   -1.8780   24.7210 O.3     1  UNL1       -0.2162
     26 C         -26.3540    0.5760   25.7770 C.2     1  UNL1        0.1931
     27 F         -25.8600   -0.6810   25.7950 F       1  UNL1       -0.1992
     28 C         -28.5759    1.6902   29.1463 C.3     1  UNL1        0.0064
     29 C         -27.7020    0.5772   29.6934 C.3     1  UNL1        0.0218
     30 C         -27.8613    3.7979   30.4984 C.2     1  UNL1       -0.0222
     31 C         -22.3874    1.7443   27.4006 C.2     1  UNL1        0.1556
     32 C         -25.6624    4.3441   31.4180 C.2     1  UNL1       -0.0003
     33 C         -22.8895    0.9822   28.4346 C.3     1  UNL1        0.2455
     34 C         -24.4860    1.4080   27.0133 C.2     1  UNL1        0.0168
     35 N         -25.2668   -0.1347   29.0178 N.pl3   1  UNL1       -0.3049
     36 F         -22.2618    0.5158   29.4603 F       1  UNL1       -0.2237
     37 C         -24.2335    0.6715   28.2150 C.2     1  UNL1        0.0645
     38 C         -26.7287   -0.0954   28.7253 C.3     1  UNL1        0.0909
     39 C         -27.2598    6.1038   30.9065 C.2     1  UNL1       -0.0003
     40 F         -21.0870    2.1336   27.2873 F       1  UNL1       -0.2056
     41 C         -28.9748    2.8203   30.1046 C.3     1  UNL1        0.0264
     42 C         -26.0185    5.6976   31.3978 C.2     1  UNL1       -0.0000
     43 C         -26.6016    3.4071   30.9745 C.2     1  UNL1       -0.0043
     44 C         -28.1656    5.1644   30.4295 C.2     1  UNL1       -0.0043
     45 C         -23.3442    1.9726   26.4924 C.2     1  UNL1        0.0294
@<TRIPOS>BOND
     1     1    35    1
     2     2     7    1
     3     2     1    1
     4     3     2    2
     5     4     3    1
     6     4     5    2
     7     5     6    1
     8     6     7    2
     9     8     1    1
    10     8     9    1
    11     8    12    1
    12     9    10    1
    13    10    11    1
    14    12    11    1
    15    13    34    1
    16    14    13    1
    17    14    15    1
    18    15    18    2
    19    16    17    1
    20    16    15    1
    21    19    14    2
    22    20    21    2
    23    20    19    1
    24    21    26    1
    25    22    21    1
    26    23    22    1
    27    24    23    1
    28    24    25    1
    29    26    27    1
    30    26    13    2
    31    28    29    1
    32    28    41    1
    33    30    43    1
    34    31    33    1
    35    33    36    1
    36    34    37    2
    37    37    33    1
    38    37    35    1
    39    38    35    1
    40    38    29    1
    41    39    42    2
    42    40    31    1
    43    41    30    1
    44    42    32    1
    45    43    32    2
    46    44    30    2
    47    44    39    1
    48    45    34    1
    49    45    31    2
