@<TRIPOS>MOLECULE
No_650-gen_results/8p0m/2024-11-27-11-27-31/
 16 17 0 0 0
SMALL
GASTEIGER

@<TRIPOS>ATOM
      1 C         -28.0162   -0.8135   28.8779 C.ar    1  UNL1        0.0066
      2 C         -28.4690   -0.7850   29.8287 C.ar    1  UNL1        0.0806
      3 C         -28.1816    0.4277   28.1134 C.ar    1  UNL1        0.0010
      4 C         -27.4498    0.6435   26.8500 C.ar    1  UNL1        0.0000
      5 C         -27.8596    1.4573   25.9076 C.ar    1  UNL1        0.0000
      6 C         -29.4263    0.1097   30.4178 C.ar    1  UNL1        0.0180
      7 C         -29.6233    1.2198   29.7351 C.ar    1  UNL1        0.0579
      8 C         -28.9609    1.4529   28.5513 C.ar    1  UNL1        0.0114
      9 C         -27.1733    1.5743   24.7028 C.ar    1  UNL1        0.0000
     10 C         -26.2980    0.6788   24.4655 C.ar    1  UNL1        0.0000
     11 C         -25.7369   -0.2006   25.3237 C.ar    1  UNL1        0.0000
     12 C         -26.3413   -0.2721   26.5414 C.ar    1  UNL1        0.0000
     13 CL        -30.6712    2.4799   30.3261 Cl      1  UNL1       -0.0822
     14 C         -28.2861   -2.1346   30.7073 C.2     1  UNL1        0.3878
     15 O         -27.4502   -2.8944   30.3276 O.co2   1  UNL1       -0.2406
     16 O         -29.0358   -2.3394   31.6837 O.co2   1  UNL1       -0.2406
@<TRIPOS>BOND
     1     3     4    1
     2     7    13    1
     3     2    14    1
     4    14    15   ar
     5    14    16   ar
     6     4     5   ar
     7     5     9   ar
     8     9    10   ar
     9    10    11   ar
    10    11    12   ar
    11    12     4   ar
    12     1     2   ar
    13     2     6   ar
    14     6     7   ar
    15     7     8   ar
    16     8     3   ar
    17     3     1   ar
