@<TRIPOS>MOLECULE
outputs/IAG933/test6/raw/output_6504_IAG933_linker_design_.xyz
 40 44 0 0 0
SMALL
GASTEIGER

@<TRIPOS>ATOM
      1 C         -24.8550   -1.0120   30.1430 C.3     1  UNL1        0.0995
      2 C         -24.9730   -2.5050   29.7880 C.2     1  UNL1       -0.0063
      3 C         -23.9060   -3.1730   29.1460 C.2     1  UNL1       -0.0029
      4 C         -23.9890   -4.5490   28.8530 C.2     1  UNL1       -0.0003
      5 C         -25.1370   -5.2800   29.2050 C.2     1  UNL1       -0.0000
      6 C         -26.2320   -4.6110   29.7840 C.2     1  UNL1       -0.0003
      7 C         -26.1550   -3.2320   30.0650 C.2     1  UNL1       -0.0029
      8 C         -25.3870   -0.6790   31.5710 C.3     1  UNL1        0.0917
      9 C         -25.1890    0.7730   32.0280 C.3     1  UNL1        0.0206
     10 C         -25.3360    0.6840   33.5440 C.3     1  UNL1        0.0203
     11 C         -24.8290   -0.7150   33.9050 C.3     1  UNL1        0.0888
     12 N         -24.7580   -1.4810   32.6460 N.3     1  UNL1       -0.2178
     13 C         -25.6880    1.6140   26.4610 C.2     1  UNL1        0.0874
     14 C         -26.2500    2.9200   26.3950 C.2     1  UNL1        0.0899
     15 C         -25.6420    4.0930   27.1230 C.2     1  UNL1        0.2676
     16 N         -25.6140    5.2520   26.4490 N.am    1  UNL1       -0.1997
     17 C         -25.0260    6.4790   26.9630 C.3     1  UNL1        0.1388
     18 O         -25.1430    3.9660   28.2430 O.2     1  UNL1       -0.2683
     19 C         -27.4380    3.0910   25.6450 C.2     1  UNL1        0.1080
     20 N         -28.0750    2.0890   25.0030 N.2     1  UNL1       -0.2080
     21 C         -27.5430    0.8490   25.0790 C.2     1  UNL1        0.2546
     22 O         -28.1930   -0.2080   24.4770 O.2     1  UNL1       -0.4558
     23 C         -29.4600    0.0050   23.8660 C.3     1  UNL1        0.2426
     24 C         -30.0650   -1.3770   23.5730 C.3     1  UNL1        0.2292
     25 O         -30.7290   -1.8780   24.7210 O.3     1  UNL1       -0.2162
     26 C         -26.3540    0.5760   25.7770 C.2     1  UNL1        0.2063
     27 F         -25.8600   -0.6810   25.7950 F       1  UNL1       -0.1979
     28 C         -23.0416    1.2455   29.1988 C.3     1  UNL1        0.0716
     29 F         -23.0168    1.9259   24.4286 F       1  UNL1       -0.1991
     30 C         -26.5001   -0.2273   28.7678 C.3     1  UNL1        0.2215
     31 N         -25.1776   -0.1348   28.9935 N.3     1  UNL1       -0.2288
     32 C         -22.3673    1.9447   25.6184 C.3     1  UNL1        0.3298
     33 C         -24.4992    1.1347   28.6413 C.3     1  UNL1        0.1391
     34 O         -20.9538    1.6529   27.4244 O.3     1  UNL1       -0.2184
     35 N         -24.4765    1.3138   27.0535 N.pl3   1  UNL1       -0.2885
     36 C         -28.7788   -0.1176   29.0545 C.3     1  UNL1        0.1759
     37 O         -21.0995    1.7891   25.9009 O.3     1  UNL1       -0.1849
     38 C         -22.2084    1.3914   27.9362 C.3     1  UNL1        0.1785
     39 O         -27.5456   -0.7369   28.7451 O.3     1  UNL1       -0.3346
     40 C         -23.2353    1.7121   26.7934 C.3     1  UNL1        0.1693
@<TRIPOS>BOND
     1     1    31    1
     2     2     7    1
     3     2     1    1
     4     3     2    2
     5     4     3    1
     6     4     5    2
     7     5     6    1
     8     6     7    2
     9     8     1    1
    10     8     9    1
    11     8    12    1
    12     9    10    1
    13    10    11    1
    14    12    11    1
    15    13    35    1
    16    14    13    1
    17    14    15    1
    18    15    18    2
    19    16    17    1
    20    16    15    1
    21    19    14    2
    22    20    21    2
    23    20    19    1
    24    21    26    1
    25    22    21    1
    26    23    22    1
    27    24    23    1
    28    24    25    1
    29    26    27    1
    30    26    13    2
    31    30    31    1
    32    32    29    1
    33    32    37    1
    34    32    40    1
    35    33    31    1
    36    33    28    1
    37    34    38    1
    38    35    33    1
    39    37    34    1
    40    38    28    1
    41    39    30    1
    42    39    36    1
    43    40    35    1
    44    40    38    1
