@<TRIPOS>MOLECULE
outputs/IAG933/test6/raw/output_6507_IAG933_linker_design_.xyz
 45 49 0 0 0
SMALL
GASTEIGER

@<TRIPOS>ATOM
      1 C         -24.8550   -1.0120   30.1430 C.3     1  UNL1        0.1183
      2 C         -24.9730   -2.5050   29.7880 C.2     1  UNL1       -0.0026
      3 C         -23.9060   -3.1730   29.1460 C.2     1  UNL1       -0.0026
      4 C         -23.9890   -4.5490   28.8530 C.2     1  UNL1       -0.0003
      5 C         -25.1370   -5.2800   29.2050 C.2     1  UNL1       -0.0000
      6 C         -26.2320   -4.6110   29.7840 C.2     1  UNL1       -0.0003
      7 C         -26.1550   -3.2320   30.0650 C.2     1  UNL1       -0.0026
      8 C         -25.3870   -0.6790   31.5710 C.3     1  UNL1        0.0955
      9 C         -25.1890    0.7730   32.0280 C.3     1  UNL1        0.0209
     10 C         -25.3360    0.6840   33.5440 C.3     1  UNL1        0.0203
     11 C         -24.8290   -0.7150   33.9050 C.3     1  UNL1        0.0888
     12 N         -24.7580   -1.4810   32.6460 N.3     1  UNL1       -0.2174
     13 C         -25.6880    1.6140   26.4610 C.2     1  UNL1        0.0244
     14 C         -26.2500    2.9200   26.3950 C.2     1  UNL1        0.0730
     15 C         -25.6420    4.0930   27.1230 C.2     1  UNL1        0.2661
     16 N         -25.6140    5.2520   26.4490 N.am    1  UNL1       -0.1997
     17 C         -25.0260    6.4790   26.9630 C.3     1  UNL1        0.1388
     18 O         -25.1430    3.9660   28.2430 O.2     1  UNL1       -0.2683
     19 C         -27.4380    3.0910   25.6450 C.2     1  UNL1        0.1064
     20 N         -28.0750    2.0890   25.0030 N.2     1  UNL1       -0.2081
     21 C         -27.5430    0.8490   25.0790 C.2     1  UNL1        0.2530
     22 O         -28.1930   -0.2080   24.4770 O.2     1  UNL1       -0.4558
     23 C         -29.4600    0.0050   23.8660 C.3     1  UNL1        0.2426
     24 C         -30.0650   -1.3770   23.5730 C.3     1  UNL1        0.2292
     25 O         -30.7290   -1.8780   24.7210 O.3     1  UNL1       -0.2162
     26 C         -26.3540    0.5760   25.7770 C.2     1  UNL1        0.1896
     27 F         -25.8600   -0.6810   25.7950 F       1  UNL1       -0.1996
     28 C         -28.3395    2.1539   30.6192 C.2     1  UNL1        0.0945
     29 C         -24.6094    1.2110   27.3470 C.3     1  UNL1        0.1044
     30 C         -23.3379    1.2998   27.7831 C.3     1  UNL1        0.2013
     31 C         -20.9783    1.8085   27.4253 C.3     1  UNL1        0.1747
     32 C         -28.0123    1.4955   29.2899 C.2     1  UNL1        0.0592
     33 N         -24.3396   -0.0460   29.2378 N.am    1  UNL1       -0.2499
     34 C         -23.1594    0.3700   28.8979 C.2     1  UNL1        0.2577
     35 C         -26.5592    0.9691   29.1235 C.1     1  UNL1       -0.0889
     36 C         -29.7126    2.4279   30.9801 C.3     1  UNL1        0.2077
     37 C         -29.5734    5.5213   32.6100 C.3     1  UNL1        0.0913
     38 N         -27.3682    2.9265   31.4202 N.2     1  UNL1       -0.2535
     39 C         -30.0988    3.1933   32.0350 C.3     1  UNL1        0.1132
     40 C         -27.8576    3.7348   32.3229 C.3     1  UNL1        0.2007
     41 O         -22.3361    2.2080   27.2911 O.3     1  UNL1       -0.3436
     42 N         -29.1488    4.1571   32.4019 N.3     1  UNL1       -0.2481
     43 O         -30.5976    2.4301   29.8286 O.3     1  UNL1       -0.2151
     44 O         -22.0257    0.1049   29.4461 O.2     1  UNL1       -0.2719
     45 C         -25.3035    0.5053   28.6655 C.2     1  UNL1        0.0730
@<TRIPOS>BOND
     1     1     2    1
     2     2     7    1
     3     3     2    2
     4     4     3    1
     5     4     5    2
     6     5     6    1
     7     6     7    2
     8     8     1    1
     9     8     9    1
    10     8    12    1
    11     9    10    1
    12    10    11    1
    13    12    11    1
    14    14    13    1
    15    14    15    1
    16    15    18    2
    17    16    17    1
    18    16    15    1
    19    19    14    2
    20    20    21    2
    21    20    19    1
    22    21    26    1
    23    22    21    1
    24    23    22    1
    25    24    23    1
    26    24    25    1
    27    26    27    1
    28    26    13    2
    29    28    36    1
    30    28    38    2
    31    29    13    1
    32    29    30    1
    33    29    45    1
    34    30    41    1
    35    30    34    1
    36    32    28    1
    37    33     1    1
    38    34    33   am
    39    34    44    2
    40    35    32    2
    41    36    43    1
    42    36    39    1
    43    38    40    1
    44    39    42    1
    45    40    42    1
    46    41    31    1
    47    42    37    1
    48    45    35    2
    49    45    33    1
