@<TRIPOS>MOLECULE
outputs/IAG933/test6/raw/output_6509_IAG933_linker_design_.xyz
 42 44 0 0 0
SMALL
GASTEIGER

@<TRIPOS>ATOM
      1 C         -24.8550   -1.0120   30.1430 C.3     1  UNL1        0.0456
      2 C         -24.9730   -2.5050   29.7880 C.2     1  UNL1       -0.0207
      3 C         -23.9060   -3.1730   29.1460 C.2     1  UNL1       -0.0042
      4 C         -23.9890   -4.5490   28.8530 C.2     1  UNL1       -0.0003
      5 C         -25.1370   -5.2800   29.2050 C.2     1  UNL1       -0.0000
      6 C         -26.2320   -4.6110   29.7840 C.2     1  UNL1       -0.0003
      7 C         -26.1550   -3.2320   30.0650 C.2     1  UNL1       -0.0042
      8 C         -25.3870   -0.6790   31.5710 C.3     1  UNL1        0.0772
      9 C         -25.1890    0.7730   32.0280 C.3     1  UNL1        0.0192
     10 C         -25.3360    0.6840   33.5440 C.3     1  UNL1        0.0202
     11 C         -24.8290   -0.7150   33.9050 C.3     1  UNL1        0.0887
     12 N         -24.7580   -1.4810   32.6460 N.3     1  UNL1       -0.2191
     13 C         -25.6880    1.6140   26.4610 C.2     1  UNL1        0.0162
     14 C         -26.2500    2.9200   26.3950 C.2     1  UNL1        0.0726
     15 C         -25.6420    4.0930   27.1230 C.2     1  UNL1        0.2661
     16 N         -25.6140    5.2520   26.4490 N.am    1  UNL1       -0.1997
     17 C         -25.0260    6.4790   26.9630 C.3     1  UNL1        0.1388
     18 O         -25.1430    3.9660   28.2430 O.2     1  UNL1       -0.2683
     19 C         -27.4380    3.0910   25.6450 C.2     1  UNL1        0.1064
     20 N         -28.0750    2.0890   25.0030 N.2     1  UNL1       -0.2081
     21 C         -27.5430    0.8490   25.0790 C.2     1  UNL1        0.2530
     22 O         -28.1930   -0.2080   24.4770 O.2     1  UNL1       -0.4558
     23 C         -29.4600    0.0050   23.8660 C.3     1  UNL1        0.2426
     24 C         -30.0650   -1.3770   23.5730 C.3     1  UNL1        0.2292
     25 O         -30.7290   -1.8780   24.7210 O.3     1  UNL1       -0.2162
     26 C         -26.3540    0.5760   25.7770 C.2     1  UNL1        0.1891
     27 F         -25.8600   -0.6810   25.7950 F       1  UNL1       -0.1996
     28 N         -30.4189   -0.5847   31.0413 N.3     1  UNL1       -0.1286
     29 O         -29.3538    1.4855   29.1011 O.3     1  UNL1       -0.2215
     30 C         -27.2703   -0.2939   28.6073 C.3     1  UNL1        0.0031
     31 C         -26.0892    0.6874   28.9369 C.3     1  UNL1        0.0081
     32 O         -20.8768    2.3832   27.4503 O.3     1  UNL1       -0.2154
     33 C         -21.2024    1.0877   27.8055 C.3     1  UNL1        0.2072
     34 C         -22.7472    1.0264   27.8786 C.2     1  UNL1        0.0234
     35 C         -24.6934    0.0488   29.2302 C.3     1  UNL1        0.0667
     36 C         -23.3886    1.6602   26.8789 C.3     1  UNL1        0.0322
     37 C         -28.4011   -0.6957   29.6074 C.3     1  UNL1        0.0345
     38 C         -30.9047   -0.5188   29.3938 C.3     1  UNL1        0.1420
     39 C         -24.5458    1.4658   26.8776 C.3     1  UNL1        0.0335
     40 C         -23.2389    0.3125   28.9800 C.2     1  UNL1        0.1676
     41 O         -22.2627   -0.1757   29.8707 O.2     1  UNL1       -0.2919
     42 C         -29.5088    0.1467   29.1762 C.3     1  UNL1        0.1709
@<TRIPOS>BOND
     1     1    35    1
     2     2     7    1
     3     2     1    1
     4     3     2    2
     5     4     3    1
     6     4     5    2
     7     5     6    1
     8     6     7    2
     9     8     1    1
    10     8     9    1
    11     8    12    1
    12     9    10    1
    13    10    11    1
    14    12    11    1
    15    13    39    1
    16    14    13    1
    17    14    15    1
    18    15    18    2
    19    16    17    1
    20    16    15    1
    21    19    14    2
    22    20    21    2
    23    20    19    1
    24    21    26    1
    25    22    21    1
    26    23    22    1
    27    24    23    1
    28    24    25    1
    29    26    27    1
    30    26    13    2
    31    30    31    1
    32    30    37    1
    33    32    33    1
    34    33    34    1
    35    34    40    2
    36    35    31    1
    37    36    34    1
    38    38    28    1
    39    39    36    1
    40    40    35    1
    41    40    41    1
    42    42    29    1
    43    42    38    1
    44    42    37    1
