@<TRIPOS>MOLECULE
outputs/IAG933/test6/raw/output_6510_IAG933_linker_design_.xyz
 45 49 0 0 0
SMALL
GASTEIGER

@<TRIPOS>ATOM
      1 C         -24.8550   -1.0120   30.1430 C.3     1  UNL1        0.0976
      2 C         -24.9730   -2.5050   29.7880 C.2     1  UNL1       -0.0141
      3 C         -23.9060   -3.1730   29.1460 C.2     1  UNL1       -0.0038
      4 C         -23.9890   -4.5490   28.8530 C.2     1  UNL1       -0.0003
      5 C         -25.1370   -5.2800   29.2050 C.2     1  UNL1       -0.0000
      6 C         -26.2320   -4.6110   29.7840 C.2     1  UNL1       -0.0003
      7 C         -26.1550   -3.2320   30.0650 C.2     1  UNL1       -0.0038
      8 C         -25.3870   -0.6790   31.5710 C.3     1  UNL1        0.0838
      9 C         -25.1890    0.7730   32.0280 C.3     1  UNL1        0.0183
     10 C         -25.3360    0.6840   33.5440 C.3     1  UNL1        0.0202
     11 C         -24.8290   -0.7150   33.9050 C.3     1  UNL1        0.0887
     12 N         -24.7580   -1.4810   32.6460 N.3     1  UNL1       -0.2187
     13 C         -25.6880    1.6140   26.4610 C.2     1  UNL1        0.1038
     14 C         -26.2500    2.9200   26.3950 C.2     1  UNL1        0.0914
     15 C         -25.6420    4.0930   27.1230 C.2     1  UNL1        0.2677
     16 N         -25.6140    5.2520   26.4490 N.am    1  UNL1       -0.1997
     17 C         -25.0260    6.4790   26.9630 C.3     1  UNL1        0.1388
     18 O         -25.1430    3.9660   28.2430 O.2     1  UNL1       -0.2683
     19 C         -27.4380    3.0910   25.6450 C.2     1  UNL1        0.1080
     20 N         -28.0750    2.0890   25.0030 N.2     1  UNL1       -0.2080
     21 C         -27.5430    0.8490   25.0790 C.2     1  UNL1        0.2546
     22 O         -28.1930   -0.2080   24.4770 O.2     1  UNL1       -0.4558
     23 C         -29.4600    0.0050   23.8660 C.3     1  UNL1        0.2426
     24 C         -30.0650   -1.3770   23.5730 C.3     1  UNL1        0.2292
     25 O         -30.7290   -1.8780   24.7210 O.3     1  UNL1       -0.2162
     26 C         -26.3540    0.5760   25.7770 C.2     1  UNL1        0.2078
     27 F         -25.8600   -0.6810   25.7950 F       1  UNL1       -0.1979
     28 O         -22.6577    1.9170   28.8019 O.3     1  UNL1       -0.3488
     29 C         -21.7558    1.6621   27.6764 C.3     1  UNL1        0.1742
     30 C         -26.5252    7.6282   32.0841 C.3     1  UNL1        0.0187
     31 C         -24.1669    0.2495   28.0774 C.3     1  UNL1        0.1792
     32 C         -24.9953    3.3206   31.9720 C.3     1  UNL1        0.0332
     33 C         -25.4474    5.6251   32.4376 C.3     1  UNL1        0.0577
     34 N         -24.5761    1.3453   27.1618 N.pl3   1  UNL1       -0.2267
     35 C         -24.2764    2.0655   31.4641 C.3     1  UNL1        0.0041
     36 C         -26.3201    3.2444   31.5429 C.3     1  UNL1        0.1678
     37 N         -26.3294    5.5771   31.3760 N.3     1  UNL1       -0.2718
     38 C         -25.5714    6.9704   33.0844 C.3     1  UNL1        0.0174
     39 C         -26.7778    4.4169   30.7872 C.3     1  UNL1        0.1053
     40 C         -23.0066    0.5492   29.0843 C.3     1  UNL1        0.1712
     41 C         -26.5073    6.8697   30.7884 C.3     1  UNL1        0.0722
     42 O         -26.4778   -0.2878   28.6694 O.2     1  UNL1       -0.2938
     43 O         -27.1204    2.8955   32.7635 O.3     1  UNL1       -0.2217
     44 C         -24.6157    4.4914   32.7136 C.3     1  UNL1        0.0185
     45 C         -25.3351   -0.2963   29.0164 C.2     1  UNL1        0.1777
@<TRIPOS>BOND
     1     1    45    1
     2     2     7    1
     3     2     1    1
     4     3     2    2
     5     4     3    1
     6     4     5    2
     7     5     6    1
     8     6     7    2
     9     8     1    1
    10     8     9    1
    11     8    12    1
    12     9    35    1
    13     9    10    1
    14    10    11    1
    15    12    11    1
    16    13    34    1
    17    14    13    1
    18    14    15    1
    19    15    18    2
    20    16    17    1
    21    16    15    1
    22    19    14    2
    23    20    21    2
    24    20    19    1
    25    21    26    1
    26    22    21    1
    27    23    22    1
    28    24    23    1
    29    24    25    1
    30    26    27    1
    31    26    13    2
    32    28    40    1
    33    29    28    1
    34    30    38    1
    35    31    45    1
    36    31    40    1
    37    32    35    1
    38    32    44    1
    39    33    44    1
    40    33    38    1
    41    34    31    1
    42    36    32    1
    43    36    43    1
    44    37    39    1
    45    37    33    1
    46    39    36    1
    47    41    37    1
    48    41    30    1
    49    42    45    2
