@<TRIPOS>MOLECULE
outputs/IAG933/test6/raw/output_6512_IAG933_linker_design_.xyz
 46 50 0 0 0
SMALL
GASTEIGER

@<TRIPOS>ATOM
      1 C         -24.8550   -1.0120   30.1430 C.3     1  UNL1        0.0981
      2 C         -24.9730   -2.5050   29.7880 C.2     1  UNL1       -0.0064
      3 C         -23.9060   -3.1730   29.1460 C.2     1  UNL1       -0.0029
      4 C         -23.9890   -4.5490   28.8530 C.2     1  UNL1       -0.0003
      5 C         -25.1370   -5.2800   29.2050 C.2     1  UNL1       -0.0000
      6 C         -26.2320   -4.6110   29.7840 C.2     1  UNL1       -0.0003
      7 C         -26.1550   -3.2320   30.0650 C.2     1  UNL1       -0.0029
      8 C         -25.3870   -0.6790   31.5710 C.3     1  UNL1        0.0916
      9 C         -25.1890    0.7730   32.0280 C.3     1  UNL1        0.0206
     10 C         -25.3360    0.6840   33.5440 C.3     1  UNL1        0.0203
     11 C         -24.8290   -0.7150   33.9050 C.3     1  UNL1        0.0888
     12 N         -24.7580   -1.4810   32.6460 N.3     1  UNL1       -0.2178
     13 C         -25.6880    1.6140   26.4610 C.3     1  UNL1        0.0706
     14 C         -26.2500    2.9200   26.3950 C.2     1  UNL1        0.0548
     15 C         -25.6420    4.0930   27.1230 C.2     1  UNL1        0.2624
     16 N         -25.6140    5.2520   26.4490 N.am    1  UNL1       -0.2000
     17 C         -25.0260    6.4790   26.9630 C.3     1  UNL1        0.1388
     18 O         -25.1430    3.9660   28.2430 O.2     1  UNL1       -0.2687
     19 C         -27.4380    3.0910   25.6450 C.2     1  UNL1        0.1021
     20 N         -28.0750    2.0890   25.0030 N.2     1  UNL1       -0.2119
     21 C         -27.5430    0.8490   25.0790 C.2     1  UNL1        0.2341
     22 O         -28.1930   -0.2080   24.4770 O.2     1  UNL1       -0.4585
     23 C         -29.4600    0.0050   23.8660 C.3     1  UNL1        0.2423
     24 C         -30.0650   -1.3770   23.5730 C.3     1  UNL1        0.2292
     25 O         -30.7290   -1.8780   24.7210 O.3     1  UNL1       -0.2162
     26 C         -26.3540    0.5760   25.7770 C.3     1  UNL1        0.2400
     27 F         -25.8600   -0.6810   25.7950 F       1  UNL1       -0.2269
     28 C         -23.6083    0.6373   29.0221 C.3     1  UNL1        0.0221
     29 O         -26.7788    1.4303   29.7039 O.3     1  UNL1       -0.3191
     30 C         -29.9164    1.9001   28.4391 C.2     1  UNL1        0.3042
     31 C         -26.9589    0.1991   29.2236 C.3     1  UNL1        0.1993
     32 C         -24.2828    1.7284   26.0288 C.3     1  UNL1        0.0149
     33 C         -28.4327    0.0819   29.6097 C.3     1  UNL1        0.1521
     34 C         -22.1635    1.5154   27.2917 C.2     1  UNL1        0.1134
     35 C         -21.6258    0.8266   28.3629 C.2     1  UNL1       -0.0010
     36 S         -30.4175    0.7635   27.2912 S.3     1  UNL1        0.0899
     37 C         -22.4384    0.4754   29.3908 C.3     1  UNL1        0.0295
     38 N         -28.8579    1.4521   29.2077 N.am    1  UNL1       -0.2390
     39 N         -25.5213   -0.0728   29.2290 N.3     1  UNL1       -0.2456
     40 C         -24.6266    0.6599   28.6076 C.3     1  UNL1        0.0749
     41 O         -29.4003   -0.6113   27.8212 O.3     1  UNL1       -0.2903
     42 C         -27.8301    2.2366   29.7660 C.3     1  UNL1        0.2444
     43 F         -21.5153    2.1371   26.3095 F       1  UNL1       -0.2092
     44 C         -29.2028   -1.0533   28.9684 C.3     1  UNL1        0.1823
     45 O         -30.4436    2.8707   28.7021 O.2     1  UNL1       -0.2603
     46 C         -23.3543    1.7162   27.0559 C.3     1  UNL1        0.0566
@<TRIPOS>BOND
     1     1    39    1
     2     2     7    1
     3     2     1    1
     4     3     2    2
     5     4     3    1
     6     4     5    2
     7     5     6    1
     8     6     7    2
     9     8     1    1
    10     8     9    1
    11     8    12    1
    12     9    10    1
    13    10    11    1
    14    12    11    1
    15    13    32    1
    16    14    13    1
    17    14    15    1
    18    15    18    2
    19    16    17    1
    20    16    15    1
    21    19    14    2
    22    20    21    2
    23    20    19    1
    24    21    26    1
    25    22    21    1
    26    23    22    1
    27    24    23    1
    28    24    25    1
    29    26    27    1
    30    26    13    1
    31    28    37    1
    32    29    42    1
    33    30    45    2
    34    30    38   am
    35    31    39    1
    36    31    33    1
    37    31    29    1
    38    32    46    1
    39    33    44    1
    40    34    35    2
    41    35    37    1
    42    36    41    1
    43    36    30    1
    44    38    33    1
    45    38    42    1
    46    40    28    1
    47    40    39    1
    48    41    44    1
    49    43    34    1
    50    46    34    1
