@<TRIPOS>MOLECULE
outputs/IAG933/test6/raw/output_6515_IAG933_linker_design_.xyz
 49 53 0 0 0
SMALL
GASTEIGER

@<TRIPOS>ATOM
      1 C         -24.8550   -1.0120   30.1430 C.3     1  UNL1        0.1299
      2 C         -24.9730   -2.5050   29.7880 C.2     1  UNL1       -0.0015
      3 C         -23.9060   -3.1730   29.1460 C.2     1  UNL1       -0.0026
      4 C         -23.9890   -4.5490   28.8530 C.2     1  UNL1       -0.0003
      5 C         -25.1370   -5.2800   29.2050 C.2     1  UNL1       -0.0000
      6 C         -26.2320   -4.6110   29.7840 C.2     1  UNL1       -0.0003
      7 C         -26.1550   -3.2320   30.0650 C.2     1  UNL1       -0.0026
      8 C         -25.3870   -0.6790   31.5710 C.3     1  UNL1        0.0966
      9 C         -25.1890    0.7730   32.0280 C.3     1  UNL1        0.0210
     10 C         -25.3360    0.6840   33.5440 C.3     1  UNL1        0.0203
     11 C         -24.8290   -0.7150   33.9050 C.3     1  UNL1        0.0888
     12 N         -24.7580   -1.4810   32.6460 N.3     1  UNL1       -0.2174
     13 C         -25.6880    1.6140   26.4610 C.2     1  UNL1        0.0605
     14 C         -26.2500    2.9200   26.3950 C.2     1  UNL1        0.0760
     15 C         -25.6420    4.0930   27.1230 C.2     1  UNL1        0.2243
     16 N         -25.6140    5.2520   26.4490 N.2     1  UNL1       -0.2356
     17 C         -25.0260    6.4790   26.9630 C.3     1  UNL1        0.1550
     18 O         -25.1430    3.9660   28.2430 O.2     1  UNL1       -0.4315
     19 C         -27.4380    3.0910   25.6450 C.2     1  UNL1        0.1068
     20 N         -28.0750    2.0890   25.0030 N.2     1  UNL1       -0.2081
     21 C         -27.5430    0.8490   25.0790 C.2     1  UNL1        0.2533
     22 O         -28.1930   -0.2080   24.4770 O.2     1  UNL1       -0.4558
     23 C         -29.4600    0.0050   23.8660 C.3     1  UNL1        0.2426
     24 C         -30.0650   -1.3770   23.5730 C.3     1  UNL1        0.2292
     25 O         -30.7290   -1.8780   24.7210 O.3     1  UNL1       -0.2162
     26 C         -26.3540    0.5760   25.7770 C.2     1  UNL1        0.1947
     27 F         -25.8600   -0.6810   25.7950 F       1  UNL1       -0.1992
     28 C         -23.3001    1.7500   27.0638 C.2     1  UNL1        0.2394
     29 F         -21.2253    2.0013   27.9511 F       1  UNL1       -0.2036
     30 C         -25.5119    5.7050   34.8009 C.3     1  UNL1        0.0853
     31 C         -25.9384    5.6188   30.7371 C.3     1  UNL1        0.1675
     32 C         -22.8250    0.5746   29.1774 C.3     1  UNL1        0.1708
     33 O         -24.9134    4.6896   30.3860 O.3     1  UNL1       -0.3140
     34 C         -27.6822    5.0273   33.7676 C.3     1  UNL1        0.0905
     35 C         -25.2742    5.4636   33.3641 C.2     1  UNL1        0.2257
     36 N         -24.1271   -0.0419   29.1851 N.pl3   1  UNL1       -0.2219
     37 C         -26.8314    5.1746   31.6496 C.3     1  UNL1        0.1255
     38 C         -25.5428    3.7505   29.5307 C.3     1  UNL1        0.3620
     39 N         -28.6334    2.2579   32.3345 N.1     1  UNL1       -0.1958
     40 O         -22.9719    2.4679   26.0192 O.2     1  UNL1       -0.2828
     41 C         -26.0085    4.4668   35.3646 C.3     1  UNL1        0.0113
     42 C         -27.3603    4.3920   35.0441 C.3     1  UNL1        0.0214
     43 C         -28.9476    4.4994   33.1704 C.3     1  UNL1        0.1251
     44 O         -24.0981    4.8003   32.7779 O.2     1  UNL1       -0.2749
     45 C         -28.8699    3.2725   32.6845 C.1     1  UNL1        0.0749
     46 C         -22.4328    1.4295   28.0818 C.2     1  UNL1        0.1794
     47 N         -26.6413    5.1828   32.8780 N.am    1  UNL1       -0.2775
     48 C         -24.5619    1.2124   27.2863 C.2     1  UNL1        0.1417
     49 N         -24.8925    0.3089   28.1876 N.2     1  UNL1       -0.1780
@<TRIPOS>BOND
     1     1     2    1
     2     2     7    1
     3     3     2    2
     4     4     3    1
     5     4     5    2
     6     5     6    1
     7     6     7    2
     8     8     1    1
     9     8     9    1
    10     8    12    1
    11     9    10    1
    12    10    11    1
    13    12    11    1
    14    13    48    1
    15    14    13    1
    16    14    15    1
    17    15    18    1
    18    16    17    1
    19    16    15    2
    20    18    38    1
    21    19    14    2
    22    20    21    2
    23    20    19    1
    24    21    26    1
    25    22    21    1
    26    23    22    1
    27    24    23    1
    28    24    25    1
    29    26    27    1
    30    26    13    2
    31    28    48    1
    32    28    46    2
    33    29    46    1
    34    30    41    1
    35    31    37    1
    36    32    36    1
    37    33    31    1
    38    34    43    1
    39    34    42    1
    40    35    30    1
    41    36     1    1
    42    37    47    1
    43    38    33    1
    44    39    45    3
    45    40    28    1
    46    42    41    1
    47    44    35    2
    48    45    43    1
    49    46    32    1
    50    47    35   am
    51    47    34    1
    52    48    49    2
    53    49    36    1
