@<TRIPOS>MOLECULE
outputs/IAG933/test6/raw/output_6518_IAG933_linker_design_.xyz
 42 46 0 0 0
SMALL
GASTEIGER

@<TRIPOS>ATOM
      1 C         -24.8550   -1.0120   30.1430 C.3     1  UNL1        0.0637
      2 C         -24.9730   -2.5050   29.7880 C.2     1  UNL1       -0.0191
      3 C         -23.9060   -3.1730   29.1460 C.2     1  UNL1       -0.0042
      4 C         -23.9890   -4.5490   28.8530 C.2     1  UNL1       -0.0003
      5 C         -25.1370   -5.2800   29.2050 C.2     1  UNL1       -0.0000
      6 C         -26.2320   -4.6110   29.7840 C.2     1  UNL1       -0.0003
      7 C         -26.1550   -3.2320   30.0650 C.2     1  UNL1       -0.0042
      8 C         -25.3870   -0.6790   31.5710 C.3     1  UNL1        0.0788
      9 C         -25.1890    0.7730   32.0280 C.3     1  UNL1        0.0193
     10 C         -25.3360    0.6840   33.5440 C.3     1  UNL1        0.0202
     11 C         -24.8290   -0.7150   33.9050 C.3     1  UNL1        0.0887
     12 N         -24.7580   -1.4810   32.6460 N.3     1  UNL1       -0.2191
     13 C         -25.6880    1.6140   26.4610 C.2     1  UNL1        0.0389
     14 C         -26.2500    2.9200   26.3950 C.2     1  UNL1        0.0766
     15 C         -25.6420    4.0930   27.1230 C.2     1  UNL1        0.2664
     16 N         -25.6140    5.2520   26.4490 N.am    1  UNL1       -0.1997
     17 C         -25.0260    6.4790   26.9630 C.3     1  UNL1        0.1388
     18 O         -25.1430    3.9660   28.2430 O.2     1  UNL1       -0.2683
     19 C         -27.4380    3.0910   25.6450 C.2     1  UNL1        0.1067
     20 N         -28.0750    2.0890   25.0030 N.2     1  UNL1       -0.2081
     21 C         -27.5430    0.8490   25.0790 C.2     1  UNL1        0.2533
     22 O         -28.1930   -0.2080   24.4770 O.2     1  UNL1       -0.4558
     23 C         -29.4600    0.0050   23.8660 C.3     1  UNL1        0.2426
     24 C         -30.0650   -1.3770   23.5730 C.3     1  UNL1        0.2292
     25 O         -30.7290   -1.8780   24.7210 O.3     1  UNL1       -0.2162
     26 C         -26.3540    0.5760   25.7770 C.2     1  UNL1        0.1931
     27 F         -25.8600   -0.6810   25.7950 F       1  UNL1       -0.1992
     28 C         -29.9018   -0.3868   30.8120 C.2     1  UNL1        0.0013
     29 C         -24.4151    0.4698   28.1818 C.2     1  UNL1        0.0704
     30 N         -26.8529   -0.1956   28.6941 N.pl3   1  UNL1       -0.2332
     31 C         -28.9167   -0.7135   29.8930 C.2     1  UNL1        0.0161
     32 N         -23.0712    0.4480   28.5138 N.pl3   1  UNL1       -0.1885
     33 C         -29.0551    1.8993   30.9500 C.2     1  UNL1        0.0013
     34 C         -28.0273    1.5890   30.0367 C.2     1  UNL1        0.0161
     35 C         -25.4424   -0.1472   29.0103 C.3     1  UNL1        0.1351
     36 C         -22.4585    1.1607   27.5667 C.2     1  UNL1        0.2077
     37 C         -22.9662    2.5350   25.3979 C.3     1  UNL1        0.0349
     38 F         -21.1893    1.4250   27.5334 F       1  UNL1       -0.1863
     39 C         -24.5766    1.2783   27.1009 C.2     1  UNL1        0.0149
     40 C         -27.9454    0.2442   29.5217 C.2     1  UNL1        0.0657
     41 C         -23.3390    1.7544   26.6103 C.2     1  UNL1        0.0227
     42 C         -29.9814    0.9115   31.3280 C.2     1  UNL1        0.0001
@<TRIPOS>BOND
     1     1    35    1
     2     2     7    1
     3     2     1    1
     4     3     2    2
     5     4     3    1
     6     4     5    2
     7     5     6    1
     8     6     7    2
     9     8     1    1
    10     8     9    1
    11     8    12    1
    12     9    10    1
    13    10    11    1
    14    12    11    1
    15    13    39    1
    16    14    13    1
    17    14    15    1
    18    15    18    2
    19    16    17    1
    20    16    15    1
    21    19    14    2
    22    20    21    2
    23    20    19    1
    24    21    26    1
    25    22    21    1
    26    23    22    1
    27    24    23    1
    28    24    25    1
    29    26    27    1
    30    26    13    2
    31    28    42    1
    32    29    32    1
    33    29    35    1
    34    30    40    1
    35    31    28    2
    36    33    42    2
    37    34    33    1
    38    35    30    1
    39    36    32    1
    40    37    41    1
    41    38    36    1
    42    39    29    2
    43    40    31    1
    44    40    34    2
    45    41    39    1
    46    41    36    2
