@<TRIPOS>MOLECULE
outputs/IAG933/test6/raw/output_6521_IAG933_linker_design_.xyz
 43 46 0 0 0
SMALL
GASTEIGER

@<TRIPOS>ATOM
      1 C         -24.8550   -1.0120   30.1430 C.3     1  UNL1        0.0449
      2 C         -24.9730   -2.5050   29.7880 C.2     1  UNL1       -0.0208
      3 C         -23.9060   -3.1730   29.1460 C.2     1  UNL1       -0.0042
      4 C         -23.9890   -4.5490   28.8530 C.2     1  UNL1       -0.0003
      5 C         -25.1370   -5.2800   29.2050 C.2     1  UNL1       -0.0000
      6 C         -26.2320   -4.6110   29.7840 C.2     1  UNL1       -0.0003
      7 C         -26.1550   -3.2320   30.0650 C.2     1  UNL1       -0.0042
      8 C         -25.3870   -0.6790   31.5710 C.3     1  UNL1        0.0772
      9 C         -25.1890    0.7730   32.0280 C.3     1  UNL1        0.0192
     10 C         -25.3360    0.6840   33.5440 C.3     1  UNL1        0.0202
     11 C         -24.8290   -0.7150   33.9050 C.3     1  UNL1        0.0887
     12 N         -24.7580   -1.4810   32.6460 N.3     1  UNL1       -0.2191
     13 C         -25.6880    1.6140   26.4610 C.2     1  UNL1        0.0379
     14 C         -26.2500    2.9200   26.3950 C.2     1  UNL1        0.0765
     15 C         -25.6420    4.0930   27.1230 C.2     1  UNL1        0.2664
     16 N         -25.6140    5.2520   26.4490 N.am    1  UNL1       -0.1997
     17 C         -25.0260    6.4790   26.9630 C.3     1  UNL1        0.1388
     18 O         -25.1430    3.9660   28.2430 O.2     1  UNL1       -0.2683
     19 C         -27.4380    3.0910   25.6450 C.2     1  UNL1        0.1067
     20 N         -28.0750    2.0890   25.0030 N.2     1  UNL1       -0.2081
     21 C         -27.5430    0.8490   25.0790 C.2     1  UNL1        0.2533
     22 O         -28.1930   -0.2080   24.4770 O.2     1  UNL1       -0.4558
     23 C         -29.4600    0.0050   23.8660 C.3     1  UNL1        0.2426
     24 C         -30.0650   -1.3770   23.5730 C.3     1  UNL1        0.2292
     25 O         -30.7290   -1.8780   24.7210 O.3     1  UNL1       -0.2162
     26 C         -26.3540    0.5760   25.7770 C.2     1  UNL1        0.1930
     27 F         -25.8600   -0.6810   25.7950 F       1  UNL1       -0.1992
     28 F         -20.9495    1.7821   27.8455 F       1  UNL1       -0.2008
     29 C         -28.0327    0.5509   29.5384 C.3     1  UNL1        0.1824
     30 C         -28.5778    2.5071   31.0125 C.3     1  UNL1        0.0028
     31 C         -23.8242    1.6806   26.0345 C.2     1  UNL1        0.0434
     32 C         -23.0035    0.7495   28.4961 C.2     1  UNL1        0.0287
     33 O         -26.0601    2.1074   29.7932 O.3     1  UNL1       -0.2201
     34 C         -26.5623    0.8931   29.3005 C.3     1  UNL1        0.1864
     35 C         -24.3508    0.5970   28.1663 C.2     1  UNL1       -0.0171
     36 O         -21.6413    2.2386   25.5013 O.2     1  UNL1       -0.2896
     37 C         -28.7402    1.9201   29.6168 C.3     1  UNL1        0.0356
     38 C         -24.6583    1.2775   26.9548 C.2     1  UNL1        0.0019
     39 O         -28.5082   -0.6675   28.8815 O.3     1  UNL1       -0.2204
     40 C         -22.1880    1.3969   27.6019 C.2     1  UNL1        0.1777
     41 C         -22.5616    1.7490   26.3898 C.2     1  UNL1        0.2160
     42 F         -22.3052    2.7121   24.3721 F       1  UNL1        0.0139
     43 C         -25.4708   -0.1300   29.0418 C.3     1  UNL1        0.0607
@<TRIPOS>BOND
     1     1    43    1
     2     2     7    1
     3     2     1    1
     4     3     2    2
     5     4     3    1
     6     4     5    2
     7     5     6    1
     8     6     7    2
     9     8     1    1
    10     8     9    1
    11     8    12    1
    12     9    10    1
    13    10    11    1
    14    12    11    1
    15    13    38    1
    16    14    13    1
    17    14    15    1
    18    15    18    2
    19    16    17    1
    20    16    15    1
    21    19    14    2
    22    20    21    2
    23    20    19    1
    24    21    26    1
    25    22    21    1
    26    23    22    1
    27    24    23    1
    28    24    25    1
    29    26    27    1
    30    26    13    2
    31    29    39    1
    32    29    37    1
    33    31    41    2
    34    31    38    1
    35    34    29    1
    36    34    33    1
    37    35    32    1
    38    35    43    1
    39    36    41    1
    40    37    30    1
    41    38    35    2
    42    40    28    1
    43    40    32    2
    44    41    40    1
    45    42    36    1
    46    43    34    1
