@<TRIPOS>MOLECULE
outputs/IAG933/test6/raw/output_6531_IAG933_linker_design_.xyz
 41 44 0 0 0
SMALL
GASTEIGER

@<TRIPOS>ATOM
      1 C         -24.8550   -1.0120   30.1430 C.3     1  UNL1        0.0651
      2 C         -24.9730   -2.5050   29.7880 C.2     1  UNL1       -0.0189
      3 C         -23.9060   -3.1730   29.1460 C.2     1  UNL1       -0.0042
      4 C         -23.9890   -4.5490   28.8530 C.2     1  UNL1       -0.0003
      5 C         -25.1370   -5.2800   29.2050 C.2     1  UNL1       -0.0000
      6 C         -26.2320   -4.6110   29.7840 C.2     1  UNL1       -0.0003
      7 C         -26.1550   -3.2320   30.0650 C.2     1  UNL1       -0.0042
      8 C         -25.3870   -0.6790   31.5710 C.3     1  UNL1        0.0790
      9 C         -25.1890    0.7730   32.0280 C.3     1  UNL1        0.0193
     10 C         -25.3360    0.6840   33.5440 C.3     1  UNL1        0.0202
     11 C         -24.8290   -0.7150   33.9050 C.3     1  UNL1        0.0887
     12 N         -24.7580   -1.4810   32.6460 N.3     1  UNL1       -0.2191
     13 C         -25.6880    1.6140   26.4610 C.2     1  UNL1        0.0725
     14 C         -26.2500    2.9200   26.3950 C.2     1  UNL1        0.0795
     15 C         -25.6420    4.0930   27.1230 C.2     1  UNL1        0.2665
     16 N         -25.6140    5.2520   26.4490 N.am    1  UNL1       -0.1997
     17 C         -25.0260    6.4790   26.9630 C.3     1  UNL1        0.1388
     18 O         -25.1430    3.9660   28.2430 O.2     1  UNL1       -0.2683
     19 C         -27.4380    3.0910   25.6450 C.2     1  UNL1        0.1068
     20 N         -28.0750    2.0890   25.0030 N.2     1  UNL1       -0.2081
     21 C         -27.5430    0.8490   25.0790 C.2     1  UNL1        0.2534
     22 O         -28.1930   -0.2080   24.4770 O.2     1  UNL1       -0.4558
     23 C         -29.4600    0.0050   23.8660 C.3     1  UNL1        0.2426
     24 C         -30.0650   -1.3770   23.5730 C.3     1  UNL1        0.2292
     25 O         -30.7290   -1.8780   24.7210 O.3     1  UNL1       -0.2162
     26 C         -26.3540    0.5760   25.7770 C.2     1  UNL1        0.1960
     27 F         -25.8600   -0.6810   25.7950 F       1  UNL1       -0.1991
     28 N         -26.8733   -0.1866   28.7654 N.2     1  UNL1       -0.2699
     29 C         -28.3902    0.9900   30.5020 C.3     1  UNL1        0.1604
     30 F         -22.3342    0.1936   29.8023 F       1  UNL1       -0.1986
     31 C         -22.2420    1.3356   27.7098 C.ar    1  UNL1        0.3154
     32 C         -28.5471    2.4980   30.3286 C.2     1  UNL1        0.3708
     33 C         -24.3057    0.6057   28.2990 C.ar    1  UNL1        0.0678
     34 C         -28.2637    0.2262   29.1741 C.2     1  UNL1        0.0790
     35 C         -24.3945    1.3652   27.1167 C.ar    1  UNL1        0.1505
     36 O         -27.5591    3.2257   30.0280 O.co2   1  UNL1       -0.2452
     37 F         -20.9758    1.5296   27.6497 F       1  UNL1       -0.1604
     38 C         -22.9556    0.6853   28.6862 C.ar    1  UNL1        0.2041
     39 O         -23.1702    1.8186   26.7642 O.2     1  UNL1       -0.4278
     40 O         -29.6697    2.9418   30.4483 O.co2   1  UNL1       -0.2452
     41 C         -25.4919   -0.1814   28.9924 C.3     1  UNL1        0.1357
@<TRIPOS>BOND
     1     1    41    1
     2     2     7    1
     3     2     1    1
     4     3     2    2
     5     4     3    1
     6     4     5    2
     7     5     6    1
     8     6     7    2
     9     8     1    1
    10     8     9    1
    11     8    12    1
    12     9    10    1
    13    10    11    1
    14    12    11    1
    15    13    35    1
    16    14    13    1
    17    14    15    1
    18    15    18    2
    19    16    17    1
    20    16    15    1
    21    19    14    2
    22    20    21    2
    23    20    19    1
    24    21    26    1
    25    22    21    1
    26    23    22    1
    27    24    23    1
    28    24    25    1
    29    26    27    1
    30    26    13    2
    31    28    34    2
    32    31    38   ar
    33    32    40   ar
    34    32    29    1
    35    33    38   ar
    36    33    41    1
    37    34    29    1
    38    35    33   ar
    39    36    32   ar
    40    37    31    1
    41    38    30    1
    42    39    35   ar
    43    39    31   ar
    44    41    28    1
