@<TRIPOS>MOLECULE
outputs/IAG933/test6/raw/output_6532_IAG933_linker_design_.xyz
 48 52 0 0 0
SMALL
GASTEIGER

@<TRIPOS>ATOM
      1 C         -24.8550   -1.0120   30.1430 C.3     1  UNL1        0.0697
      2 C         -24.9730   -2.5050   29.7880 C.2     1  UNL1       -0.0184
      3 C         -23.9060   -3.1730   29.1460 C.2     1  UNL1       -0.0041
      4 C         -23.9890   -4.5490   28.8530 C.2     1  UNL1       -0.0003
      5 C         -25.1370   -5.2800   29.2050 C.2     1  UNL1       -0.0000
      6 C         -26.2320   -4.6110   29.7840 C.2     1  UNL1       -0.0003
      7 C         -26.1550   -3.2320   30.0650 C.2     1  UNL1       -0.0041
      8 C         -25.3870   -0.6790   31.5710 C.3     1  UNL1        0.0795
      9 C         -25.1890    0.7730   32.0280 C.3     1  UNL1        0.0193
     10 C         -25.3360    0.6840   33.5440 C.3     1  UNL1        0.0202
     11 C         -24.8290   -0.7150   33.9050 C.3     1  UNL1        0.0887
     12 N         -24.7580   -1.4810   32.6460 N.3     1  UNL1       -0.2190
     13 C         -25.6880    1.6140   26.4610 C.3     1  UNL1        0.0921
     14 C         -26.2500    2.9200   26.3950 C.2     1  UNL1        0.0589
     15 C         -25.6420    4.0930   27.1230 C.2     1  UNL1        0.2628
     16 N         -25.6140    5.2520   26.4490 N.am    1  UNL1       -0.2000
     17 C         -25.0260    6.4790   26.9630 C.3     1  UNL1        0.1388
     18 O         -25.1430    3.9660   28.2430 O.2     1  UNL1       -0.2686
     19 C         -27.4380    3.0910   25.6450 C.2     1  UNL1        0.1025
     20 N         -28.0750    2.0890   25.0030 N.2     1  UNL1       -0.2118
     21 C         -27.5430    0.8490   25.0790 C.2     1  UNL1        0.2344
     22 O         -28.1930   -0.2080   24.4770 O.2     1  UNL1       -0.4585
     23 C         -29.4600    0.0050   23.8660 C.3     1  UNL1        0.2423
     24 C         -30.0650   -1.3770   23.5730 C.3     1  UNL1        0.2292
     25 O         -30.7290   -1.8780   24.7210 O.3     1  UNL1       -0.2162
     26 C         -26.3540    0.5760   25.7770 C.3     1  UNL1        0.2440
     27 F         -25.8600   -0.6810   25.7950 F       1  UNL1       -0.2265
     28 O         -30.5160    1.5204   27.7620 O.2     1  UNL1       -0.2723
     29 C         -29.0476   -1.0813   31.9699 C.2     1  UNL1        0.0014
     30 C         -23.7800    0.7428   27.9500 C.2     1  UNL1        0.0013
     31 C         -28.4416    0.4006   27.6354 C.3     1  UNL1        0.1197
     32 C         -21.9557    2.0109   26.1430 C.2     1  UNL1       -0.0003
     33 C         -28.7079    3.9497   30.1527 C.3     1  UNL1        0.2063
     34 C         -24.2527    1.4209   26.7735 C.2     1  UNL1       -0.0168
     35 C         -29.4332    1.3171   28.3683 C.2     1  UNL1        0.2543
     36 C         -29.5593    1.6465   32.0014 C.2     1  UNL1        0.0172
     37 N         -28.9852    1.7085   29.5583 N.am    1  UNL1       -0.1457
     38 C         -23.3329    1.9593   25.8481 C.2     1  UNL1       -0.0041
     39 C         -27.2280   -0.1388   28.2198 C.3     1  UNL1        0.1522
     40 C         -22.3881    0.8544   28.2465 C.2     1  UNL1       -0.0022
     41 C         -29.2361    1.0419   30.7717 C.2     1  UNL1        0.0811
     42 C         -24.6617   -0.0424   28.9179 C.3     1  UNL1        0.1424
     43 C         -29.2693   -0.4469   33.1825 C.2     1  UNL1        0.0001
     44 C         -29.1124   -0.3401   30.7965 C.2     1  UNL1        0.0172
     45 O         -28.1000    2.7544   29.6025 O.3     1  UNL1       -0.2561
     46 C         -21.5025    1.4874   27.3751 C.2     1  UNL1       -0.0003
     47 C         -29.5494    0.9285   33.2080 C.2     1  UNL1        0.0014
     48 O         -26.0470    0.3783   28.8700 O.3     1  UNL1       -0.3510
@<TRIPOS>BOND
     1     1    42    1
     2     2     7    1
     3     2     1    1
     4     3     2    2
     5     4     3    1
     6     4     5    2
     7     5     6    1
     8     6     7    2
     9     8     1    1
    10     8     9    1
    11     8    12    1
    12     9    10    1
    13    10    11    1
    14    12    11    1
    15    13    34    1
    16    14    13    1
    17    14    15    1
    18    15    18    2
    19    16    17    1
    20    16    15    1
    21    19    14    2
    22    20    21    2
    23    20    19    1
    24    21    26    1
    25    22    21    1
    26    23    22    1
    27    24    23    1
    28    24    25    1
    29    26    27    1
    30    26    13    1
    31    28    35    2
    32    29    43    1
    33    30    40    1
    34    30    42    1
    35    31    39    1
    36    31    35    1
    37    32    46    1
    38    34    30    2
    39    35    37   am
    40    36    47    1
    41    37    45    1
    42    37    41    1
    43    38    32    2
    44    38    34    1
    45    39    48    1
    46    41    44    1
    47    41    36    2
    48    42    48    1
    49    43    47    2
    50    44    29    2
    51    45    33    1
    52    46    40    2
