@<TRIPOS>MOLECULE
outputs/IAG933/test6/raw/output_6533_IAG933_linker_design_.xyz
 44 47 0 0 0
SMALL
GASTEIGER

@<TRIPOS>ATOM
      1 C         -24.8550   -1.0120   30.1430 C.3     1  UNK1        0.1569
      2 C         -24.9730   -2.5050   29.7880 C.2     1  UNK1        0.0060
      3 C         -23.9060   -3.1730   29.1460 C.2     1  UNK1       -0.0019
      4 C         -23.9890   -4.5490   28.8530 C.2     1  UNK1       -0.0002
      5 C         -25.1370   -5.2800   29.2050 C.2     1  UNK1       -0.0000
      6 C         -26.2320   -4.6110   29.7840 C.2     1  UNK1       -0.0002
      7 C         -26.1550   -3.2320   30.0650 C.2     1  UNK1       -0.0019
      8 C         -25.3870   -0.6790   31.5710 C.3     1  UNK1        0.1438
      9 C         -25.1890    0.7730   32.0280 C.3     1  UNK1        0.1859
     10 C         -25.3360    0.6840   33.5440 C.3     1  UNK1        0.0639
     11 C         -24.8290   -0.7150   33.9050 C.3     1  UNK1        0.0926
     12 N         -24.7580   -1.4810   32.6460 N.3     1  UNK1       -0.2128
     13 C         -25.6880    1.6140   26.4610 C.3     0  UNK0        0.0875
     14 C         -26.2500    2.9200   26.3950 C.2     0  UNK0        0.0562
     15 C         -25.6420    4.0930   27.1230 C.2     0  UNK0        0.2625
     16 N         -25.6140    5.2520   26.4490 N.am    0  UNK0       -0.2000
     17 C         -25.0260    6.4790   26.9630 C.3     0  UNK0        0.1388
     18 O         -25.1430    3.9660   28.2430 O.2     0  UNK0       -0.2687
     19 C         -27.4380    3.0910   25.6450 C.2     0  UNK0        0.1022
     20 N         -28.0750    2.0890   25.0030 N.2     0  UNK0       -0.2119
     21 C         -27.5430    0.8490   25.0790 C.2     0  UNK0        0.2341
     22 O         -28.1930   -0.2080   24.4770 O.2     0  UNK0       -0.4585
     23 C         -29.4600    0.0050   23.8660 C.3     0  UNK0        0.2423
     24 C         -30.0650   -1.3770   23.5730 C.3     0  UNK0        0.2292
     25 O         -30.7290   -1.8780   24.7210 O.3     0  UNK0       -0.2162
     26 C         -26.3540    0.5760   25.7770 C.3     0  UNK0        0.2414
     27 F         -25.8600   -0.6810   25.7950 F       0  UNK0       -0.2268
     28 O         -24.6397    1.9946   31.4447 O.2     1  UNK1       -0.4774
     29 C         -21.1842    1.5018   27.7117 C.3     1  UNK1        0.2019
     30 C         -22.4795    0.7568   28.1158 C.3     1  UNK1        0.1352
     31 C         -22.9277    0.7448   29.5411 C.3     1  UNK1        0.1625
     32 C         -24.9188    3.3674   31.9503 C.2     1  UNK1        0.1437
     33 O         -23.3440    6.5301   33.2557 O.2     1  UNK1       -0.4712
     34 C         -26.5846    4.9043   32.8363 C.2     1  UNK1        0.1462
     35 N         -23.5663    1.6109   27.4790 N.3     1  UNK1       -0.2138
     36 C         -23.9074    4.3034   32.3555 C.2     1  UNK1        0.0739
     37 C         -21.9401    6.3452   33.1755 C.3     1  UNK1        0.2525
     38 C         -24.2565    5.5520   32.9377 C.2     1  UNK1        0.1440
     39 C         -26.2440    3.7414   32.1176 C.2     1  UNK1        0.0667
     40 O         -23.5774   -0.4799   30.1237 O.3     1  UNK1       -0.3487
     41 C         -25.6061    5.8388   33.1685 C.2     1  UNK1        0.0667
     42 C         -24.1487    1.4035   26.3958 C.3     0  UNK0        0.0966
     43 O         -21.3842    2.2041   26.4478 O.3     1  UNK1       -0.2188
     44 F         -27.8358    5.1697   33.2723 F       1  UNK1       -0.2040
@<TRIPOS>BOND
     1     1    40    1
     2     2     7    1
     3     2     1    1
     4     3     2    2
     5     4     3    1
     6     4     5    2
     7     5     6    1
     8     6     7    2
     9     8     1    1
    10     8     9    1
    11     8    12    1
    12     9    28    1
    13     9    10    1
    14    10    11    1
    15    12    11    1
    16    13    42    1
    17    14    13    1
    18    14    15    1
    19    15    18    2
    20    16    17    1
    21    16    15    1
    22    19    14    2
    23    20    21    2
    24    20    19    1
    25    21    26    1
    26    22    21    1
    27    23    22    1
    28    24    23    1
    29    24    25    1
    30    26    27    1
    31    26    13    1
    32    28    32    1
    33    30    29    1
    34    30    31    1
    35    31    40    1
    36    32    39    2
    37    32    36    1
    38    34    41    2
    39    34    44    1
    40    35    30    1
    41    36    38    2
    42    37    33    1
    43    38    41    1
    44    38    33    1
    45    39    34    1
    46    42    35    1
    47    43    29    1
