@<TRIPOS>MOLECULE
outputs/IAG933/test6/raw/output_6536_IAG933_linker_design_.xyz
 48 53 0 0 0
SMALL
GASTEIGER

@<TRIPOS>ATOM
      1 C         -24.8550   -1.0120   30.1430 C.3     1  UNL1        0.0437
      2 C         -24.9730   -2.5050   29.7880 C.2     1  UNL1       -0.0208
      3 C         -23.9060   -3.1730   29.1460 C.2     1  UNL1       -0.0042
      4 C         -23.9890   -4.5490   28.8530 C.2     1  UNL1       -0.0003
      5 C         -25.1370   -5.2800   29.2050 C.2     1  UNL1       -0.0000
      6 C         -26.2320   -4.6110   29.7840 C.2     1  UNL1       -0.0003
      7 C         -26.1550   -3.2320   30.0650 C.2     1  UNL1       -0.0042
      8 C         -25.3870   -0.6790   31.5710 C.3     1  UNL1        0.0776
      9 C         -25.1890    0.7730   32.0280 C.3     1  UNL1        0.0266
     10 C         -25.3360    0.6840   33.5440 C.3     1  UNL1        0.0207
     11 C         -24.8290   -0.7150   33.9050 C.3     1  UNL1        0.0887
     12 N         -24.7580   -1.4810   32.6460 N.3     1  UNL1       -0.2191
     13 C         -25.6880    1.6140   26.4610 C.2     1  UNL1        0.0301
     14 C         -26.2500    2.9200   26.3950 C.2     1  UNL1        0.0738
     15 C         -25.6420    4.0930   27.1230 C.2     1  UNL1        0.2662
     16 N         -25.6140    5.2520   26.4490 N.am    1  UNL1       -0.1997
     17 C         -25.0260    6.4790   26.9630 C.3     1  UNL1        0.1388
     18 O         -25.1430    3.9660   28.2430 O.2     1  UNL1       -0.2683
     19 C         -27.4380    3.0910   25.6450 C.2     1  UNL1        0.1065
     20 N         -28.0750    2.0890   25.0030 N.2     1  UNL1       -0.2081
     21 C         -27.5430    0.8490   25.0790 C.2     1  UNL1        0.2530
     22 O         -28.1930   -0.2080   24.4770 O.2     1  UNL1       -0.4558
     23 C         -29.4600    0.0050   23.8660 C.3     1  UNL1        0.2426
     24 C         -30.0650   -1.3770   23.5730 C.3     1  UNL1        0.2292
     25 O         -30.7290   -1.8780   24.7210 O.3     1  UNL1       -0.2162
     26 C         -26.3540    0.5760   25.7770 C.2     1  UNL1        0.1904
     27 F         -25.8600   -0.6810   25.7950 F       1  UNL1       -0.1995
     28 N         -24.0683    1.1536   28.3448 N.3     1  UNL1       -0.2551
     29 N         -26.2661    4.9594   35.7765 N.pl3   1  UNL1       -0.1388
     30 C         -26.6032    3.8710   34.8986 C.3     1  UNL1        0.2322
     31 C         -23.0777    1.4757   29.1822 C.3     1  UNL1        0.1517
     32 C         -25.7045    5.9780   35.0761 C.2     1  UNL1        0.3090
     33 C         -24.9295    1.8029   31.0141 C.3     1  UNL1        0.0824
     34 O         -26.8602    4.5157   38.2672 O.2     1  UNL1       -0.4394
     35 C         -25.2095    3.1999   31.7012 C.2     1  UNL1        0.2411
     36 N         -21.7345    1.3612   28.7461 N.3     1  UNL1       -0.1150
     37 N         -25.4012    3.1861   32.9835 N.am    1  UNL1       -0.2023
     38 C         -25.2082    5.5689   33.8149 C.3     1  UNL1        0.1435
     39 C         -26.2432    5.2650   37.2311 C.2     1  UNL1        0.3374
     40 N         -25.2264    6.8182   36.0281 N.2     1  UNL1       -0.0329
     41 C         -23.2919    2.1999   25.9812 C.3     1  UNL1        0.0221
     42 C         -24.3678    1.4213   26.9653 C.3     1  UNL1        0.0828
     43 O         -25.1499    4.2036   31.0479 O.2     1  UNL1       -0.2734
     44 C         -23.8075    0.1812   27.3470 C.3     1  UNL1        0.0925
     45 C         -25.5425    6.3916   37.3789 C.2     1  UNL1        0.3155
     46 C         -26.0451    4.3429   33.5356 C.3     1  UNL1        0.1544
     47 C         -23.4857    2.0671   30.4659 C.3     1  UNL1        0.0449
     48 C         -26.2573    4.8860   39.5285 C.3     1  UNL1        0.2563
@<TRIPOS>BOND
     1     2     7    1
     2     2     1    1
     3     3     2    2
     4     4     3    1
     5     4     5    2
     6     5     6    1
     7     6     7    2
     8     8     1    1
     9     8     9    1
    10     8    12    1
    11     9    33    1
    12     9    10    1
    13    10    11    1
    14    12    11    1
    15    13    42    1
    16    14    13    1
    17    14    15    1
    18    15    18    2
    19    16    17    1
    20    16    15    1
    21    19    14    2
    22    20    21    2
    23    20    19    1
    24    21    26    1
    25    22    21    1
    26    23    22    1
    27    24    23    1
    28    24    25    1
    29    26    27    1
    30    26    13    2
    31    28    31    1
    32    29    39    1
    33    30    29    1
    34    31    36    1
    35    31    47    1
    36    32    29    1
    37    32    40    2
    38    33    47    1
    39    33    35    1
    40    34    48    1
    41    35    37    1
    42    38    32    1
    43    39    45    2
    44    39    34    1
    45    40    45    1
    46    42    41    1
    47    42    44    1
    48    42    28    1
    49    43    35    2
    50    44    28    1
    51    46    37    1
    52    46    38    1
    53    46    30    1
