@<TRIPOS>MOLECULE
outputs/IAG933/test6/raw/output_6538_IAG933_linker_design_.xyz
 43 47 0 0 0
SMALL
GASTEIGER

@<TRIPOS>ATOM
      1 C         -24.8550   -1.0120   30.1430 C.3     1  UNL1        0.0439
      2 C         -24.9730   -2.5050   29.7880 C.2     1  UNL1       -0.0208
      3 C         -23.9060   -3.1730   29.1460 C.2     1  UNL1       -0.0042
      4 C         -23.9890   -4.5490   28.8530 C.2     1  UNL1       -0.0003
      5 C         -25.1370   -5.2800   29.2050 C.2     1  UNL1       -0.0000
      6 C         -26.2320   -4.6110   29.7840 C.2     1  UNL1       -0.0003
      7 C         -26.1550   -3.2320   30.0650 C.2     1  UNL1       -0.0042
      8 C         -25.3870   -0.6790   31.5710 C.3     1  UNL1        0.0815
      9 C         -25.1890    0.7730   32.0280 C.3     1  UNL1        0.0691
     10 C         -25.3360    0.6840   33.5440 C.3     1  UNL1        0.0247
     11 C         -24.8290   -0.7150   33.9050 C.3     1  UNL1        0.0889
     12 N         -24.7580   -1.4810   32.6460 N.3     1  UNL1       -0.2190
     13 C         -25.6880    1.6140   26.4610 C.2     1  UNL1        0.0300
     14 C         -26.2500    2.9200   26.3950 C.2     1  UNL1        0.0732
     15 C         -25.6420    4.0930   27.1230 C.2     1  UNL1        0.2661
     16 N         -25.6140    5.2520   26.4490 N.am    1  UNL1       -0.1997
     17 C         -25.0260    6.4790   26.9630 C.3     1  UNL1        0.1388
     18 O         -25.1430    3.9660   28.2430 O.2     1  UNL1       -0.2683
     19 C         -27.4380    3.0910   25.6450 C.2     1  UNL1        0.1064
     20 N         -28.0750    2.0890   25.0030 N.2     1  UNL1       -0.2081
     21 C         -27.5430    0.8490   25.0790 C.2     1  UNL1        0.2530
     22 O         -28.1930   -0.2080   24.4770 O.2     1  UNL1       -0.4558
     23 C         -29.4600    0.0050   23.8660 C.3     1  UNL1        0.2426
     24 C         -30.0650   -1.3770   23.5730 C.3     1  UNL1        0.2292
     25 O         -30.7290   -1.8780   24.7210 O.3     1  UNL1       -0.2162
     26 C         -26.3540    0.5760   25.7770 C.2     1  UNL1        0.1898
     27 F         -25.8600   -0.6810   25.7950 F       1  UNL1       -0.1996
     28 C         -25.9431    3.2327   31.4998 C.2     1  UNL1        0.0237
     29 N         -22.8681    1.0278   29.0631 N.2     1  UNL1       -0.0369
     30 C         -24.0948    1.4032   28.6619 C.2     1  UNL1        0.3439
     31 O         -23.3079    2.9295   25.4992 O.3     1  UNL1       -0.2172
     32 C         -29.4363    4.1004   32.5445 C.3     1  UNL1        0.0310
     33 C         -21.9241    1.4934   26.8902 C.2     1  UNL1        0.0575
     34 C         -27.2609    3.1257   31.9949 C.2     1  UNL1       -0.0046
     35 C         -24.3881    1.6162   27.2185 C.3     1  UNL1        0.1687
     36 C         -27.9849    4.2823   32.2654 C.2     1  UNL1       -0.0220
     37 C         -25.2771    1.8870   31.0333 C.3     1  UNL1        0.2281
     38 C         -26.0368    5.6810   31.7248 C.2     1  UNL1       -0.0005
     39 C         -25.3020    4.5034   31.4234 C.2     1  UNL1       -0.0003
     40 C         -27.3967    5.5632   32.1620 C.2     1  UNL1       -0.0043
     41 C         -21.8193    0.9832   28.1913 C.2     1  UNL1        0.2335
     42 C         -23.2132    1.9886   26.4701 C.3     1  UNL1        0.1935
     43 N         -25.0096    1.6715   29.6822 N.pl3   1  UNL1       -0.0346
@<TRIPOS>BOND
     1     2     7    1
     2     2     1    1
     3     3     2    2
     4     4     3    1
     5     4     5    2
     6     5     6    1
     7     6     7    2
     8     8     1    1
     9     8     9    1
    10     8    12    1
    11     9    37    1
    12     9    10    1
    13    10    11    1
    14    12    11    1
    15    14    13    1
    16    14    15    1
    17    15    18    2
    18    16    17    1
    19    16    15    1
    20    19    14    2
    21    20    21    2
    22    20    19    1
    23    21    26    1
    24    22    21    1
    25    23    22    1
    26    24    23    1
    27    24    25    1
    28    26    27    1
    29    26    13    2
    30    28    34    1
    31    30    29    2
    32    30    43    1
    33    33    41    2
    34    34    36    2
    35    35    13    1
    36    35    30    1
    37    36    32    1
    38    37    43    1
    39    37    28    1
    40    38    40    2
    41    39    28    2
    42    39    38    1
    43    40    36    1
    44    41    29    1
    45    42    31    1
    46    42    33    1
    47    42    35    1
