@<TRIPOS>MOLECULE
outputs/IAG933/test6/raw/output_6546_IAG933_linker_design_.xyz
 48 53 0 0 0
SMALL
GASTEIGER

@<TRIPOS>ATOM
      1 C         -24.8550   -1.0120   30.1430 C.3     1  UNL1        0.0776
      2 C         -24.9730   -2.5050   29.7880 C.2     1  UNL1       -0.0178
      3 C         -23.9060   -3.1730   29.1460 C.2     1  UNL1       -0.0041
      4 C         -23.9890   -4.5490   28.8530 C.2     1  UNL1       -0.0003
      5 C         -25.1370   -5.2800   29.2050 C.2     1  UNL1       -0.0000
      6 C         -26.2320   -4.6110   29.7840 C.2     1  UNL1       -0.0003
      7 C         -26.1550   -3.2320   30.0650 C.2     1  UNL1       -0.0041
      8 C         -25.3870   -0.6790   31.5710 C.3     1  UNL1        0.0802
      9 C         -25.1890    0.7730   32.0280 C.3     1  UNL1        0.0193
     10 C         -25.3360    0.6840   33.5440 C.3     1  UNL1        0.0202
     11 C         -24.8290   -0.7150   33.9050 C.3     1  UNL1        0.0887
     12 N         -24.7580   -1.4810   32.6460 N.3     1  UNL1       -0.2190
     13 C         -25.6880    1.6140   26.4610 C.2     1  UNL1        0.0517
     14 C         -26.2500    2.9200   26.3950 C.2     1  UNL1        0.0777
     15 C         -25.6420    4.0930   27.1230 C.2     1  UNL1        0.2665
     16 N         -25.6140    5.2520   26.4490 N.am    1  UNL1       -0.1997
     17 C         -25.0260    6.4790   26.9630 C.3     1  UNL1        0.1388
     18 O         -25.1430    3.9660   28.2430 O.2     1  UNL1       -0.2683
     19 C         -27.4380    3.0910   25.6450 C.2     1  UNL1        0.1068
     20 N         -28.0750    2.0890   25.0030 N.2     1  UNL1       -0.2081
     21 C         -27.5430    0.8490   25.0790 C.2     1  UNL1        0.2533
     22 O         -28.1930   -0.2080   24.4770 O.2     1  UNL1       -0.4560
     23 C         -29.4600    0.0050   23.8660 C.3     1  UNL1        0.2392
     24 C         -30.0650   -1.3770   23.5730 C.3     1  UNL1        0.1932
     25 O         -30.7290   -1.8780   24.7210 O.3     1  UNL1       -0.3145
     26 C         -26.3540    0.5760   25.7770 C.2     1  UNL1        0.1942
     27 F         -25.8600   -0.6810   25.7950 F       1  UNL1       -0.1992
     28 C         -31.2961    0.2369   27.6618 C.2     1  UNL1        0.3188
     29 C         -28.8683   -0.9624   29.6256 C.3     1  UNL1        0.0888
     30 C         -28.7354   -1.4259   31.1449 C.3     1  UNL1        0.0097
     31 C         -30.0676   -2.3005   31.5302 C.3     1  UNL1        0.0005
     32 C         -32.7750   -0.8914   25.5194 C.3     1  UNL1        0.2580
     33 O         -33.7900   -0.7280   26.4865 O.3     1  UNL1       -0.2133
     34 C         -23.1891    1.9398   26.4934 C.2     1  UNL1        0.0163
     35 O         -31.9008    1.3146   27.2537 O.2     1  UNL1       -0.2500
     36 C         -22.8639    0.4503   28.4620 C.2     1  UNL1        0.0666
     37 C         -25.3197   -0.1535   28.9545 C.3     1  UNL1        0.1791
     38 C         -30.1708   -0.1040   29.1295 C.3     1  UNL1        0.1077
     39 N         -26.5913   -0.6947   28.5075 N.am    1  UNL1       -0.1860
     40 C         -31.2056   -0.3427   30.1098 C.3     1  UNL1        0.0116
     41 O         -27.9476    0.9894   28.5117 O.2     1  UNL1       -0.2733
     42 C         -31.3369   -1.5149   31.0108 C.3     1  UNL1        0.0006
     43 O         -30.9838   -0.8891   27.1760 O.3     1  UNL1       -0.4216
     44 C         -27.7169   -0.2159   28.8959 C.2     1  UNL1        0.2429
     45 C         -24.3448    1.4813   27.0356 C.2     1  UNL1        0.0554
     46 C         -22.1736    1.3629   27.4669 C.2     1  UNL1        0.0174
     47 N         -24.2779    0.4963   28.1134 N.pl3   1  UNL1       -0.2693
     48 C         -31.3269   -1.0579   25.8584 C.3     1  UNL1        0.3241
@<TRIPOS>BOND
     1     1     2    1
     2     2     7    1
     3     3     2    2
     4     4     3    1
     5     4     5    2
     6     5     6    1
     7     6     7    2
     8     8     1    1
     9     8     9    1
    10     8    12    1
    11     9    10    1
    12    10    11    1
    13    12    11    1
    14    13    45    1
    15    14    13    1
    16    14    15    1
    17    15    18    2
    18    16    17    1
    19    16    15    1
    20    19    14    2
    21    20    21    2
    22    20    19    1
    23    21    26    1
    24    22    21    1
    25    23    22    1
    26    24    23    1
    27    24    25    1
    28    25    48    1
    29    26    27    1
    30    26    13    2
    31    28    38    1
    32    29    30    1
    33    30    31    1
    34    32    33    1
    35    34    45    2
    36    34    46    1
    37    35    28    2
    38    37     1    1
    39    38    29    1
    40    38    40    1
    41    39    44    1
    42    39    37    1
    43    40    42    1
    44    41    44    2
    45    42    31    1
    46    43    28    1
    47    44    29    1
    48    45    47    1
    49    46    36    2
    50    47    36    1
    51    47    37    1
    52    48    32    1
    53    48    43    1
