@<TRIPOS>MOLECULE
outputs/IAG933/test6/raw/output_6550_IAG933_linker_design_.xyz
 42 45 0 0 0
SMALL
GASTEIGER

@<TRIPOS>ATOM
      1 C         -24.8550   -1.0120   30.1430 C.3     1  UNL1        0.1158
      2 C         -24.9730   -2.5050   29.7880 C.2     1  UNL1       -0.0029
      3 C         -23.9060   -3.1730   29.1460 C.2     1  UNL1       -0.0026
      4 C         -23.9890   -4.5490   28.8530 C.2     1  UNL1       -0.0003
      5 C         -25.1370   -5.2800   29.2050 C.2     1  UNL1       -0.0000
      6 C         -26.2320   -4.6110   29.7840 C.2     1  UNL1       -0.0003
      7 C         -26.1550   -3.2320   30.0650 C.2     1  UNL1       -0.0026
      8 C         -25.3870   -0.6790   31.5710 C.3     1  UNL1        0.0952
      9 C         -25.1890    0.7730   32.0280 C.3     1  UNL1        0.0209
     10 C         -25.3360    0.6840   33.5440 C.3     1  UNL1        0.0203
     11 C         -24.8290   -0.7150   33.9050 C.3     1  UNL1        0.0888
     12 N         -24.7580   -1.4810   32.6460 N.3     1  UNL1       -0.2174
     13 C         -25.6880    1.6140   26.4610 C.2     1  UNL1        0.0397
     14 C         -26.2500    2.9200   26.3950 C.2     1  UNL1        0.0764
     15 C         -25.6420    4.0930   27.1230 C.2     1  UNL1        0.2664
     16 N         -25.6140    5.2520   26.4490 N.am    1  UNL1       -0.1997
     17 C         -25.0260    6.4790   26.9630 C.3     1  UNL1        0.1388
     18 O         -25.1430    3.9660   28.2430 O.2     1  UNL1       -0.2683
     19 C         -27.4380    3.0910   25.6450 C.2     1  UNL1        0.1067
     20 N         -28.0750    2.0890   25.0030 N.2     1  UNL1       -0.2081
     21 C         -27.5430    0.8490   25.0790 C.2     1  UNL1        0.2533
     22 O         -28.1930   -0.2080   24.4770 O.2     1  UNL1       -0.4558
     23 C         -29.4600    0.0050   23.8660 C.3     1  UNL1        0.2426
     24 C         -30.0650   -1.3770   23.5730 C.3     1  UNL1        0.2292
     25 O         -30.7290   -1.8780   24.7210 O.3     1  UNL1       -0.2162
     26 C         -26.3540    0.5760   25.7770 C.2     1  UNL1        0.1929
     27 F         -25.8600   -0.6810   25.7950 F       1  UNL1       -0.1992
     28 C         -24.3099    1.4899   27.0492 C.2     1  UNL1        0.0489
     29 F         -23.5090    3.1724   25.4849 F       1  UNL1       -0.2044
     30 N         -25.1316    0.1205   29.1348 N.am    1  UNL1       -0.2513
     31 C         -24.0805    0.6268   28.1573 C.3     1  UNL1        0.2061
     32 C         -26.3769    0.5773   29.0534 C.2     1  UNL1        0.2736
     33 N         -22.8742    0.2995   28.7014 N.2     1  UNL1       -0.2461
     34 C         -21.9066    2.2740   26.7408 C.2     1  UNL1        0.0310
     35 C         -21.6435    0.6114   28.5053 C.2     1  UNL1        0.0955
     36 C         -23.2592    2.2805   26.4731 C.2     1  UNL1        0.1397
     37 N         -26.2524    2.9927   30.3048 N.3     1  UNL1       -0.0904
     38 O         -27.0444   -0.2114   28.5161 O.2     1  UNL1       -0.2705
     39 C         -28.4939    2.3488   31.4015 C.3     1  UNL1        0.1763
     40 C         -26.8189    1.7697   29.8456 C.3     1  UNL1        0.2845
     41 C         -21.2136    1.5105   27.5969 C.2     1  UNL1        0.0226
     42 O         -28.0307    1.5620   30.3527 O.3     1  UNL1       -0.3290
@<TRIPOS>BOND
     1     1    30    1
     2     2     7    1
     3     2     1    1
     4     3     2    2
     5     4     3    1
     6     4     5    2
     7     5     6    1
     8     6     7    2
     9     8     1    1
    10     8     9    1
    11     8    12    1
    12     9    10    1
    13    10    11    1
    14    12    11    1
    15    13    28    1
    16    14    13    1
    17    14    15    1
    18    15    18    2
    19    16    17    1
    20    16    15    1
    21    19    14    2
    22    20    21    2
    23    20    19    1
    24    21    26    1
    25    22    21    1
    26    23    22    1
    27    24    23    1
    28    24    25    1
    29    26    27    1
    30    26    13    2
    31    28    31    1
    32    29    36    1
    33    31    33    1
    34    31    30    1
    35    32    30   am
    36    32    40    1
    37    34    41    2
    38    35    33    2
    39    36    34    1
    40    36    28    2
    41    38    32    2
    42    40    37    1
    43    40    42    1
    44    41    35    1
    45    42    39    1
