@<TRIPOS>MOLECULE
outputs/IAG933/test6/raw/output_6557_IAG933_linker_design_.xyz
 41 44 0 0 0
SMALL
GASTEIGER

@<TRIPOS>ATOM
      1 C         -24.8550   -1.0120   30.1430 C.3     1  UNL1        0.0438
      2 C         -24.9730   -2.5050   29.7880 C.2     1  UNL1       -0.0208
      3 C         -23.9060   -3.1730   29.1460 C.2     1  UNL1       -0.0042
      4 C         -23.9890   -4.5490   28.8530 C.2     1  UNL1       -0.0003
      5 C         -25.1370   -5.2800   29.2050 C.2     1  UNL1       -0.0000
      6 C         -26.2320   -4.6110   29.7840 C.2     1  UNL1       -0.0003
      7 C         -26.1550   -3.2320   30.0650 C.2     1  UNL1       -0.0042
      8 C         -25.3870   -0.6790   31.5710 C.3     1  UNL1        0.0793
      9 C         -25.1890    0.7730   32.0280 C.3     1  UNL1        0.0488
     10 C         -25.3360    0.6840   33.5440 C.3     1  UNL1        0.0225
     11 C         -24.8290   -0.7150   33.9050 C.3     1  UNL1        0.0888
     12 N         -24.7580   -1.4810   32.6460 N.3     1  UNL1       -0.2190
     13 C         -25.6880    1.6140   26.4610 C.3     1  UNL1        0.0959
     14 C         -26.2500    2.9200   26.3950 C.2     1  UNL1        0.0590
     15 C         -25.6420    4.0930   27.1230 C.2     1  UNL1        0.2628
     16 N         -25.6140    5.2520   26.4490 N.am    1  UNL1       -0.2000
     17 C         -25.0260    6.4790   26.9630 C.3     1  UNL1        0.1388
     18 O         -25.1430    3.9660   28.2430 O.2     1  UNL1       -0.2686
     19 C         -27.4380    3.0910   25.6450 C.2     1  UNL1        0.1025
     20 N         -28.0750    2.0890   25.0030 N.2     1  UNL1       -0.2118
     21 C         -27.5430    0.8490   25.0790 C.2     1  UNL1        0.2344
     22 O         -28.1930   -0.2080   24.4770 O.2     1  UNL1       -0.4585
     23 C         -29.4600    0.0050   23.8660 C.3     1  UNL1        0.2423
     24 C         -30.0650   -1.3770   23.5730 C.3     1  UNL1        0.2292
     25 O         -30.7290   -1.8780   24.7210 O.3     1  UNL1       -0.2162
     26 C         -26.3540    0.5760   25.7770 C.3     1  UNL1        0.2441
     27 F         -25.8600   -0.6810   25.7950 F       1  UNL1       -0.2265
     28 C         -24.3042    1.6108   26.9510 C.2     1  UNL1        0.0296
     29 F         -20.2678    2.1381   27.9030 F       1  UNL1       -0.2017
     30 O         -25.2478    4.3178   31.0145 O.co2   1  UNL1       -0.2438
     31 F         -21.0349    2.0751   25.3288 F       1  UNL1       -0.1994
     32 F         -23.5621    2.0322   24.6533 F       1  UNL1       -0.2020
     33 N         -24.7178    1.7081   29.5840 N.pl3   1  UNL1       -0.2280
     34 C         -21.5394    1.8714   27.6177 C.2     1  UNL1        0.1709
     35 C         -22.5139    1.7062   28.7073 C.2     1  UNL1        0.0479
     36 C         -23.8941    1.6476   28.4322 C.2     1  UNL1        0.0668
     37 CA        -24.4192    1.7954   31.0419 C.3     1  UNL1        0.1962
     38 C         -24.9337    3.1834   31.5935 C.2     1  UNL1        0.3841
     39 C         -23.2840    1.8158   25.9184 C.2     1  UNL1        0.1673
     40 C         -21.9696    1.8852   26.2981 C.2     1  UNL1        0.1944
     41 OXT       -24.9435    3.2504   32.8385 O.co2   1  UNL1       -0.2438
@<TRIPOS>BOND
     1     2     7    1
     2     2     1    1
     3     3     2    2
     4     4     3    1
     5     4     5    2
     6     5     6    1
     7     6     7    2
     8     8     1    1
     9     8     9    1
    10     8    12    1
    11     9    37    1
    12     9    10    1
    13    10    11    1
    14    12    11    1
    15    13    28    1
    16    14    13    1
    17    14    15    1
    18    15    18    2
    19    16    17    1
    20    16    15    1
    21    19    14    2
    22    20    21    2
    23    20    19    1
    24    21    26    1
    25    22    21    1
    26    23    22    1
    27    24    23    1
    28    24    25    1
    29    26    27    1
    30    26    13    1
    31    28    36    1
    32    30    38   ar
    33    31    40    1
    34    32    39    1
    35    34    29    1
    36    34    35    1
    37    36    35    2
    38    36    33    1
    39    37    33    1
    40    37    38    1
    41    38    41   ar
    42    39    40    1
    43    39    28    2
    44    40    34    2
