@<TRIPOS>MOLECULE
outputs/IAG933/test6/raw/output_6559_IAG933_linker_design_.xyz
 52 56 0 0 0
SMALL
GASTEIGER

@<TRIPOS>ATOM
      1 C         -24.8550   -1.0120   30.1430 C.3     1  UNL1        0.0544
      2 C         -24.9730   -2.5050   29.7880 C.2     1  UNL1       -0.0198
      3 C         -23.9060   -3.1730   29.1460 C.2     1  UNL1       -0.0042
      4 C         -23.9890   -4.5490   28.8530 C.2     1  UNL1       -0.0003
      5 C         -25.1370   -5.2800   29.2050 C.2     1  UNL1       -0.0000
      6 C         -26.2320   -4.6110   29.7840 C.2     1  UNL1       -0.0003
      7 C         -26.1550   -3.2320   30.0650 C.2     1  UNL1       -0.0042
      8 C         -25.3870   -0.6790   31.5710 C.3     1  UNL1        0.0782
      9 C         -25.1890    0.7730   32.0280 C.3     1  UNL1        0.0192
     10 C         -25.3360    0.6840   33.5440 C.3     1  UNL1        0.0202
     11 C         -24.8290   -0.7150   33.9050 C.3     1  UNL1        0.0887
     12 N         -24.7580   -1.4810   32.6460 N.3     1  UNL1       -0.2191
     13 C         -25.6880    1.6140   26.4610 C.2     1  UNL1        0.0584
     14 C         -26.2500    2.9200   26.3950 C.2     1  UNL1        0.0740
     15 C         -25.6420    4.0930   27.1230 C.2     1  UNL1        0.2221
     16 N         -25.6140    5.2520   26.4490 N.2     1  UNL1       -0.2357
     17 C         -25.0260    6.4790   26.9630 C.3     1  UNL1        0.1550
     18 O         -25.1430    3.9660   28.2430 O.2     1  UNL1       -0.4552
     19 C         -27.4380    3.0910   25.6450 C.2     1  UNL1        0.1066
     20 N         -28.0750    2.0890   25.0030 N.2     1  UNL1       -0.2081
     21 C         -27.5430    0.8490   25.0790 C.2     1  UNL1        0.2531
     22 O         -28.1930   -0.2080   24.4770 O.2     1  UNL1       -0.4558
     23 C         -29.4600    0.0050   23.8660 C.3     1  UNL1        0.2426
     24 C         -30.0650   -1.3770   23.5730 C.3     1  UNL1        0.2292
     25 O         -30.7290   -1.8780   24.7210 O.3     1  UNL1       -0.2162
     26 C         -26.3540    0.5760   25.7770 C.2     1  UNL1        0.1927
     27 F         -25.8600   -0.6810   25.7950 F       1  UNL1       -0.1994
     28 C         -23.3216    0.1761   28.6094 C.3     1  UNL1        0.0770
     29 C         -22.4349    2.1275   27.2676 C.3     1  UNL1        0.1186
     30 C         -24.5767    1.2662   27.2508 C.3     1  UNL1        0.2022
     31 C         -25.6337    4.4564   32.0845 C.2     1  UNL1        0.2323
     32 O         -24.5118    3.8093   32.5336 O.2     1  UNL1       -0.2834
     33 C         -25.4002    6.0018   34.9726 C.2     1  UNL1        0.3381
     34 C         -28.8726    3.7022   28.9404 C.3     1  UNL1        0.2525
     35 C         -25.6192    3.9006   29.6157 C.3     1  UNL1        0.2400
     36 C         -27.8434    4.0643   31.0374 C.2     1  UNL1        0.1415
     37 C         -26.1769    5.4829   32.7992 C.2     1  UNL1        0.1871
     38 C         -27.5788    5.7107   32.7405 C.2     1  UNL1        0.0440
     39 C         -26.3551    4.1000   30.9744 C.2     1  UNL1        0.0971
     40 C         -23.4240    7.7412   34.8574 C.3     1  UNL1        0.0901
     41 O         -28.4616    3.2502   30.1955 O.2     1  UNL1       -0.4715
     42 O         -25.0675    6.3266   33.6176 O.3     1  UNL1       -0.4199
     43 C         -25.5613   -0.2366   29.0896 C.3     1  UNL1        0.0802
     44 C         -23.3529    7.9635   37.2306 C.3     1  UNL1        0.0901
     45 O         -26.3397    4.9558   35.2812 O.2     1  UNL1       -0.2481
     46 O         -23.7522    2.1860   27.6532 O.3     1  UNL1       -0.3393
     47 C         -28.4085    4.9625   31.8971 C.2     1  UNL1        0.0400
     48 C         -21.8945    2.3193   25.8493 C.3     1  UNL1        0.0322
     49 C         -22.0848    0.9070   28.0835 C.3     1  UNL1        0.0470
     50 N         -24.5564    0.7463   28.5078 N.3     1  UNL1       -0.2468
     51 N         -23.5229    7.0674   36.0103 N.3     1  UNL1       -0.2608
     52 C         -24.6427    6.1816   36.2770 C.3     1  UNL1        0.1837
@<TRIPOS>BOND
     1     1    43    1
     2     2     7    1
     3     2     1    1
     4     3     2    2
     5     4     3    1
     6     4     5    2
     7     5     6    1
     8     6     7    2
     9     8     1    1
    10     8     9    1
    11     8    12    1
    12     9    10    1
    13    10    11    1
    14    12    11    1
    15    14    13    1
    16    14    15    1
    17    15    18    1
    18    16    17    1
    19    16    15    2
    20    18    35    1
    21    19    14    2
    22    20    21    2
    23    20    19    1
    24    21    26    1
    25    22    21    1
    26    23    22    1
    27    24    23    1
    28    24    25    1
    29    26    27    1
    30    26    13    2
    31    29    48    1
    32    29    46    1
    33    29    49    1
    34    30    13    1
    35    30    46    1
    36    30    50    1
    37    31    32    1
    38    31    37    1
    39    33    45    2
    40    33    52    1
    41    34    41    1
    42    35    39    1
    43    36    47    2
    44    37    42    1
    45    38    37    2
    46    39    36    1
    47    39    31    2
    48    40    51    1
    49    41    36    1
    50    42    33    1
    51    47    38    1
    52    49    28    1
    53    50    28    1
    54    50    43    1
    55    51    52    1
    56    51    44    1
