@<TRIPOS>MOLECULE
outputs/IAG933/test6/raw/output_656_IAG933_linker_design_.xyz
 43 48 0 0 0
SMALL
GASTEIGER

@<TRIPOS>ATOM
      1 C         -24.8550   -1.0120   30.1430 C.3     1  UNL1        0.0997
      2 C         -24.9730   -2.5050   29.7880 C.2     1  UNL1       -0.0063
      3 C         -23.9060   -3.1730   29.1460 C.2     1  UNL1       -0.0029
      4 C         -23.9890   -4.5490   28.8530 C.2     1  UNL1       -0.0003
      5 C         -25.1370   -5.2800   29.2050 C.2     1  UNL1       -0.0000
      6 C         -26.2320   -4.6110   29.7840 C.2     1  UNL1       -0.0003
      7 C         -26.1550   -3.2320   30.0650 C.2     1  UNL1       -0.0029
      8 C         -25.3870   -0.6790   31.5710 C.3     1  UNL1        0.0917
      9 C         -25.1890    0.7730   32.0280 C.3     1  UNL1        0.0206
     10 C         -25.3360    0.6840   33.5440 C.3     1  UNL1        0.0203
     11 C         -24.8290   -0.7150   33.9050 C.3     1  UNL1        0.0888
     12 N         -24.7580   -1.4810   32.6460 N.3     1  UNL1       -0.2178
     13 C         -25.6880    1.6140   26.4610 C.3     1  UNL1        0.1501
     14 C         -26.2500    2.9200   26.3950 C.2     1  UNL1        0.0733
     15 C         -25.6420    4.0930   27.1230 C.2     1  UNL1        0.2640
     16 N         -25.6140    5.2520   26.4490 N.am    1  UNL1       -0.1999
     17 C         -25.0260    6.4790   26.9630 C.3     1  UNL1        0.1388
     18 O         -25.1430    3.9660   28.2430 O.2     1  UNL1       -0.2686
     19 C         -27.4380    3.0910   25.6450 C.2     1  UNL1        0.1038
     20 N         -28.0750    2.0890   25.0030 N.2     1  UNL1       -0.2118
     21 C         -27.5430    0.8490   25.0790 C.2     1  UNL1        0.2359
     22 O         -28.1930   -0.2080   24.4770 O.2     1  UNL1       -0.4585
     23 C         -29.4600    0.0050   23.8660 C.3     1  UNL1        0.2423
     24 C         -30.0650   -1.3770   23.5730 C.3     1  UNL1        0.2292
     25 O         -30.7290   -1.8780   24.7210 O.3     1  UNL1       -0.2162
     26 C         -26.3540    0.5760   25.7770 C.3     1  UNL1        0.2583
     27 F         -25.8600   -0.6810   25.7950 F       1  UNL1       -0.2251
     28 N         -23.4719   -0.6108   29.8189 N.3     1  UNL1       -0.2242
     29 F         -19.8490    2.0013   27.6596 F       1  UNL1       -0.2252
     30 C         -23.4609    0.6986   29.2701 C.3     1  UNL1        0.2837
     31 O         -22.0292    1.9195   26.0988 O.3     1  UNL1       -0.4315
     32 C         -22.0710    1.6243   27.1952 C.3     1  UNL1        0.2479
     33 O         -23.5186    3.1213   24.9335 O.2     1  UNL1       -0.2261
     34 C         -23.2704    2.2172   25.8087 C.2     1  UNL1        0.4064
     35 O         -19.9373   -0.3238   28.1380 O.2     1  UNL1       -0.2916
     36 N         -24.6160    1.0787   28.5362 N.3     1  UNL1       -0.0684
     37 O         -25.7872    0.9600   28.7899 O.3     1  UNL1       -0.1128
     38 C         -23.5172    1.2307   27.8699 C.3     1  UNL1        0.2346
     39 C         -21.9353   -0.8563   29.6221 C.3     1  UNL1        0.1438
     40 C         -20.9912    0.1259   28.6784 C.2     1  UNL1        0.2029
     41 O         -22.8739    1.6866   30.0001 O.3     1  UNL1       -0.1858
     42 N         -24.3468    1.5952   26.6071 N.am    1  UNL1       -0.2215
     43 C         -21.0606    1.5858   28.1566 C.3     1  UNL1        0.2618
@<TRIPOS>BOND
     1     1     2    1
     2     2     7    1
     3     3     2    2
     4     4     3    1
     5     4     5    2
     6     5     6    1
     7     6     7    2
     8     8     1    1
     9     8     9    1
    10     8    12    1
    11     9    10    1
    12    10    11    1
    13    12    11    1
    14    13    42    1
    15    14    13    1
    16    14    15    1
    17    15    18    2
    18    16    17    1
    19    16    15    1
    20    19    14    2
    21    20    21    2
    22    20    19    1
    23    21    26    1
    24    22    21    1
    25    23    22    1
    26    24    23    1
    27    24    25    1
    28    26    27    1
    29    26    13    1
    30    28     1    1
    31    30    28    1
    32    30    41    1
    33    32    31    1
    34    32    38    1
    35    32    43    1
    36    33    34    2
    37    34    31    1
    38    34    42   am
    39    35    40    2
    40    36    37    1
    41    36    30    1
    42    38    42    1
    43    38    36    1
    44    38    30    1
    45    39    28    1
    46    40    39    1
    47    43    29    1
    48    43    40    1
