@<TRIPOS>MOLECULE
outputs/IAG933/test6/raw/output_6560_IAG933_linker_design_.xyz
 41 46 0 0 0
SMALL
GASTEIGER

@<TRIPOS>ATOM
      1 C         -24.8550   -1.0120   30.1430 C.3     1  UNL1        0.1160
      2 C         -24.9730   -2.5050   29.7880 C.2     1  UNL1       -0.0029
      3 C         -23.9060   -3.1730   29.1460 C.2     1  UNL1       -0.0026
      4 C         -23.9890   -4.5490   28.8530 C.2     1  UNL1       -0.0003
      5 C         -25.1370   -5.2800   29.2050 C.2     1  UNL1       -0.0000
      6 C         -26.2320   -4.6110   29.7840 C.2     1  UNL1       -0.0003
      7 C         -26.1550   -3.2320   30.0650 C.2     1  UNL1       -0.0026
      8 C         -25.3870   -0.6790   31.5710 C.3     1  UNL1        0.0952
      9 C         -25.1890    0.7730   32.0280 C.3     1  UNL1        0.0209
     10 C         -25.3360    0.6840   33.5440 C.3     1  UNL1        0.0203
     11 C         -24.8290   -0.7150   33.9050 C.3     1  UNL1        0.0888
     12 N         -24.7580   -1.4810   32.6460 N.3     1  UNL1       -0.2174
     13 C         -25.6880    1.6140   26.4610 C.2     1  UNL1        0.0899
     14 C         -26.2500    2.9200   26.3950 C.2     1  UNL1        0.0900
     15 C         -25.6420    4.0930   27.1230 C.2     1  UNL1        0.2676
     16 N         -25.6140    5.2520   26.4490 N.am    1  UNL1       -0.1997
     17 C         -25.0260    6.4790   26.9630 C.3     1  UNL1        0.1388
     18 O         -25.1430    3.9660   28.2430 O.2     1  UNL1       -0.2683
     19 C         -27.4380    3.0910   25.6450 C.2     1  UNL1        0.1080
     20 N         -28.0750    2.0890   25.0030 N.2     1  UNL1       -0.2080
     21 C         -27.5430    0.8490   25.0790 C.2     1  UNL1        0.2546
     22 O         -28.1930   -0.2080   24.4770 O.2     1  UNL1       -0.4558
     23 C         -29.4600    0.0050   23.8660 C.3     1  UNL1        0.2426
     24 C         -30.0650   -1.3770   23.5730 C.3     1  UNL1        0.2292
     25 O         -30.7290   -1.8780   24.7210 O.3     1  UNL1       -0.2162
     26 C         -26.3540    0.5760   25.7770 C.2     1  UNL1        0.2064
     27 F         -25.8600   -0.6810   25.7950 F       1  UNL1       -0.1979
     28 O         -22.8721    2.4591   25.6752 O.3     1  UNL1       -0.1564
     29 N         -22.2474    0.1047   29.6715 N.2     1  UNL1       -0.2446
     30 C         -20.7901   -0.3635   29.4113 C.2     1  UNL1        0.0986
     31 C         -24.3362    0.6440   28.3997 C.3     1  UNL1        0.2295
     32 O         -26.5395    0.1560   28.2556 O.2     1  UNL1       -0.2708
     33 N         -24.7564   -0.2412   29.3112 N.am    1  UNL1       -0.2496
     34 C         -20.1152    0.2972   28.4623 C.2     1  UNL1        0.0205
     35 C         -22.1895    1.2784   27.5539 C.2     1  UNL1        0.0446
     36 C         -22.8964    0.7076   28.6687 C.2     1  UNL1        0.1014
     37 C         -25.4383    0.3511   28.6645 C.2     1  UNL1        0.2674
     38 C         -23.2408    1.6636   26.6691 C.3     1  UNL1        0.2595
     39 C         -20.7783    1.2072   27.5363 C.2     1  UNL1        0.0028
     40 N         -24.4464    1.3509   27.1267 N.pl3   1  UNL1       -0.2540
     41 F         -21.5398    2.5037   25.3770 F       1  UNL1       -0.0449
@<TRIPOS>BOND
     1     1     2    1
     2     2     7    1
     3     3     2    2
     4     4     3    1
     5     4     5    2
     6     5     6    1
     7     6     7    2
     8     8     1    1
     9     8     9    1
    10     8    12    1
    11     9    10    1
    12    10    11    1
    13    12    11    1
    14    13    40    1
    15    14    13    1
    16    14    15    1
    17    15    18    2
    18    16    17    1
    19    16    15    1
    20    19    14    2
    21    20    21    2
    22    20    19    1
    23    21    26    1
    24    22    21    1
    25    23    22    1
    26    24    23    1
    27    24    25    1
    28    26    27    1
    29    26    13    2
    30    30    29    1
    31    31    37    1
    32    31    36    1
    33    31    33    1
    34    32    37    2
    35    33     1    1
    36    34    30    2
    37    35    36    1
    38    36    29    2
    39    37    33   am
    40    38    28    1
    41    38    40    1
    42    38    35    1
    43    39    35    2
    44    39    34    1
    45    40    31    1
    46    41    28    1
