@<TRIPOS>MOLECULE
outputs/IAG933/test6/raw/output_6569_IAG933_linker_design_.xyz
 48 52 0 0 0
SMALL
GASTEIGER

@<TRIPOS>ATOM
      1 C         -24.8550   -1.0120   30.1430 C.3     1  UNL1        0.0438
      2 C         -24.9730   -2.5050   29.7880 C.2     1  UNL1       -0.0208
      3 C         -23.9060   -3.1730   29.1460 C.2     1  UNL1       -0.0042
      4 C         -23.9890   -4.5490   28.8530 C.2     1  UNL1       -0.0003
      5 C         -25.1370   -5.2800   29.2050 C.2     1  UNL1       -0.0000
      6 C         -26.2320   -4.6110   29.7840 C.2     1  UNL1       -0.0003
      7 C         -26.1550   -3.2320   30.0650 C.2     1  UNL1       -0.0042
      8 C         -25.3870   -0.6790   31.5710 C.3     1  UNL1        0.0795
      9 C         -25.1890    0.7730   32.0280 C.3     1  UNL1        0.0474
     10 C         -25.3360    0.6840   33.5440 C.3     1  UNL1        0.0227
     11 C         -24.8290   -0.7150   33.9050 C.3     1  UNL1        0.0888
     12 N         -24.7580   -1.4810   32.6460 N.3     1  UNL1       -0.2190
     13 C         -25.6880    1.6140   26.4610 C.2     1  UNL1        0.0320
     14 C         -26.2500    2.9200   26.3950 C.2     1  UNL1        0.0739
     15 C         -25.6420    4.0930   27.1230 C.2     1  UNL1        0.2662
     16 N         -25.6140    5.2520   26.4490 N.am    1  UNL1       -0.1997
     17 C         -25.0260    6.4790   26.9630 C.3     1  UNL1        0.1388
     18 O         -25.1430    3.9660   28.2430 O.2     1  UNL1       -0.2683
     19 C         -27.4380    3.0910   25.6450 C.2     1  UNL1        0.1065
     20 N         -28.0750    2.0890   25.0030 N.2     1  UNL1       -0.2081
     21 C         -27.5430    0.8490   25.0790 C.2     1  UNL1        0.2530
     22 O         -28.1930   -0.2080   24.4770 O.2     1  UNL1       -0.4558
     23 C         -29.4600    0.0050   23.8660 C.3     1  UNL1        0.2426
     24 C         -30.0650   -1.3770   23.5730 C.3     1  UNL1        0.2292
     25 O         -30.7290   -1.8780   24.7210 O.3     1  UNL1       -0.2162
     26 C         -26.3540    0.5760   25.7770 C.2     1  UNL1        0.1904
     27 F         -25.8600   -0.6810   25.7950 F       1  UNL1       -0.1995
     28 C         -25.3942    1.8140   31.0654 C.3     1  UNL1        0.1436
     29 C         -25.3925    4.0418   32.1248 C.3     1  UNL1        0.0345
     30 C         -23.7107    5.6884   33.1273 C.3     1  UNL1        0.1740
     31 O         -24.3258    2.4440   30.3211 O.3     1  UNL1       -0.3507
     32 O         -24.5315    6.6760   32.7188 O.3     1  UNL1       -0.3536
     33 C         -27.4103    4.2160   33.1171 C.3     1  UNL1        0.0345
     34 N         -23.3673    1.5289   27.5604 N.3     1  UNL1       -0.2446
     35 C         -22.6593    1.5999   28.7529 C.3     1  UNL1        0.1747
     36 C         -26.9103    7.4023   33.1196 C.3     1  UNL1        0.0320
     37 C         -26.2668    2.9798   31.6386 C.3     1  UNL1        0.1423
     38 S         -21.0038    1.8883   27.1464 S.3     1  UNL1       -0.0331
     39 O         -27.0316    2.9133   32.6801 O.3     1  UNL1       -0.3538
     40 N         -21.3109    1.5645   28.5788 N.3     1  UNL1       -0.1432
     41 C         -24.6789    1.1658   27.3755 C.3     1  UNL1        0.1035
     42 C         -28.3337    3.1202   32.2441 C.3     1  UNL1        0.1422
     43 C         -27.1475    5.5476   31.0428 C.3     1  UNL1        0.0026
     44 C         -22.8454    2.2344   25.2098 C.3     1  UNL1        0.0309
     45 C         -25.9545    6.2346   33.1296 C.3     1  UNL1        0.1154
     46 C         -26.4754    5.0747   32.4095 C.3     1  UNL1        0.0299
     47 C         -23.3307    1.7888   30.0590 C.3     1  UNL1        0.1770
     48 C         -22.5081    1.8679   26.5979 C.3     1  UNL1        0.1237
@<TRIPOS>BOND
     1     2     7    1
     2     2     1    1
     3     3     2    2
     4     4     3    1
     5     4     5    2
     6     5     6    1
     7     6     7    2
     8     8     1    1
     9     8     9    1
    10     8    12    1
    11     9    28    1
    12     9    10    1
    13    10    11    1
    14    12    11    1
    15    13    41    1
    16    14    13    1
    17    14    15    1
    18    15    18    2
    19    16    17    1
    20    16    15    1
    21    19    14    2
    22    20    21    2
    23    20    19    1
    24    21    26    1
    25    22    21    1
    26    23    22    1
    27    24    23    1
    28    24    25    1
    29    26    27    1
    30    26    13    2
    31    28    31    1
    32    29    46    1
    33    32    30    1
    34    32    45    1
    35    34    35    1
    36    35    47    1
    37    37    28    1
    38    37    29    1
    39    37    39    1
    40    38    40    1
    41    40    35    1
    42    41    34    1
    43    42    39    1
    44    42    33    1
    45    45    36    1
    46    46    43    1
    47    46    33    1
    48    46    45    1
    49    47    31    1
    50    48    44    1
    51    48    38    1
    52    48    34    1
