@<TRIPOS>MOLECULE
outputs/IAG933/test6/raw/output_6578_IAG933_linker_design_.xyz
 44 48 0 0 0
SMALL
GASTEIGER

@<TRIPOS>ATOM
      1 C         -24.8550   -1.0120   30.1430 C.3     1  UNL1        0.0507
      2 C         -24.9730   -2.5050   29.7880 C.2     1  UNL1       -0.0206
      3 C         -23.9060   -3.1730   29.1460 C.2     1  UNL1       -0.0042
      4 C         -23.9890   -4.5490   28.8530 C.2     1  UNL1       -0.0003
      5 C         -25.1370   -5.2800   29.2050 C.2     1  UNL1       -0.0000
      6 C         -26.2320   -4.6110   29.7840 C.2     1  UNL1       -0.0003
      7 C         -26.1550   -3.2320   30.0650 C.2     1  UNL1       -0.0042
      8 C         -25.3870   -0.6790   31.5710 C.3     1  UNL1        0.0774
      9 C         -25.1890    0.7730   32.0280 C.3     1  UNL1        0.0192
     10 C         -25.3360    0.6840   33.5440 C.3     1  UNL1        0.0202
     11 C         -24.8290   -0.7150   33.9050 C.3     1  UNL1        0.0887
     12 N         -24.7580   -1.4810   32.6460 N.3     1  UNL1       -0.2191
     13 C         -25.6880    1.6140   26.4610 C.2     1  UNL1        0.0407
     14 C         -26.2500    2.9200   26.3950 C.2     1  UNL1        0.0749
     15 C         -25.6420    4.0930   27.1230 C.2     1  UNL1        0.2309
     16 N         -25.6140    5.2520   26.4490 N.2     1  UNL1       -0.2352
     17 C         -25.0260    6.4790   26.9630 C.3     1  UNL1        0.1550
     18 O         -25.1430    3.9660   28.2430 O.2     1  UNL1       -0.4002
     19 C         -27.4380    3.0910   25.6450 C.2     1  UNL1        0.1068
     20 N         -28.0750    2.0890   25.0030 N.2     1  UNL1       -0.2081
     21 C         -27.5430    0.8490   25.0790 C.2     1  UNL1        0.2533
     22 O         -28.1930   -0.2080   24.4770 O.2     1  UNL1       -0.4558
     23 C         -29.4600    0.0050   23.8660 C.3     1  UNL1        0.2426
     24 C         -30.0650   -1.3770   23.5730 C.3     1  UNL1        0.2292
     25 O         -30.7290   -1.8780   24.7210 O.3     1  UNL1       -0.2162
     26 C         -26.3540    0.5760   25.7770 C.2     1  UNL1        0.1931
     27 F         -25.8600   -0.6810   25.7950 F       1  UNL1       -0.1992
     28 C         -28.8933    3.3671   31.1212 C.2     1  UNL1        0.0163
     29 N         -22.4250    1.6511   27.7419 N.am    1  UNL1        0.0341
     30 N         -25.5974    2.0836   29.5464 N.2     1  UNL1        0.0020
     31 C         -28.5243    6.1981   30.6303 C.2     1  UNL1        0.0657
     32 C         -30.3068    6.5262   32.3112 C.3     1  UNL1        0.1173
     33 C         -27.0660    4.1629   29.6573 C.2     1  UNL1        0.0819
     34 C         -21.8003    0.6086   28.4277 C.2     1  UNL1        0.2880
     35 O         -20.4476    0.4795   28.3746 O.2     1  UNL1       -0.2693
     36 N         -23.6825    1.9699   28.0442 N.2     1  UNL1        0.0739
     37 C         -24.3481    1.2678   29.0485 C.2     1  UNL1        0.3792
     38 C         -27.5156    5.6127   29.8720 C.2     1  UNL1        0.0231
     39 N         -29.4745    5.6753   31.5220 N.pl3   1  UNL1       -0.2832
     40 C         -23.9508    0.0009   29.4769 C.3     1  UNL1        0.1289
     41 C         -27.9964    3.3057   30.1116 C.2     1  UNL1        0.0084
     42 C         -25.9035    3.4052   29.1102 C.2     1  UNL1        0.3452
     43 C         -29.6278    4.3425   31.7630 C.2     1  UNL1        0.0655
     44 C         -22.6052   -0.2222   29.2815 C.3     1  UNL1        0.1038
@<TRIPOS>BOND
     1     1     2    1
     2     2     7    1
     3     3     2    2
     4     4     3    1
     5     4     5    2
     6     5     6    1
     7     6     7    2
     8     8     1    1
     9     8     9    1
    10     8    12    1
    11     9    10    1
    12    10    11    1
    13    12    11    1
    14    14    13    1
    15    14    15    1
    16    15    18    1
    17    16    17    1
    18    16    15    2
    19    18    42    1
    20    19    14    2
    21    20    21    2
    22    20    19    1
    23    21    26    1
    24    22    21    1
    25    23    22    1
    26    24    23    1
    27    24    25    1
    28    26    27    1
    29    26    13    2
    30    28    43    2
    31    29    36    1
    32    29    34    1
    33    31    39    1
    34    33    38    1
    35    33    41    2
    36    34    44    1
    37    35    34    2
    38    36    37    2
    39    37    40    1
    40    37    30    1
    41    38    31    2
    42    39    43    1
    43    39    32    1
    44    40     1    1
    45    41    28    1
    46    42    30    2
    47    42    33    1
    48    44    40    1
