@<TRIPOS>MOLECULE
outputs/IAG933/test6/raw/output_6580_IAG933_linker_design_.xyz
 44 48 0 0 0
SMALL
GASTEIGER

@<TRIPOS>ATOM
      1 C         -24.8550   -1.0120   30.1430 C.3     1  UNL1        0.1174
      2 C         -24.9730   -2.5050   29.7880 C.2     1  UNL1       -0.0028
      3 C         -23.9060   -3.1730   29.1460 C.2     1  UNL1       -0.0026
      4 C         -23.9890   -4.5490   28.8530 C.2     1  UNL1       -0.0003
      5 C         -25.1370   -5.2800   29.2050 C.2     1  UNL1       -0.0000
      6 C         -26.2320   -4.6110   29.7840 C.2     1  UNL1       -0.0003
      7 C         -26.1550   -3.2320   30.0650 C.2     1  UNL1       -0.0026
      8 C         -25.3870   -0.6790   31.5710 C.3     1  UNL1        0.0952
      9 C         -25.1890    0.7730   32.0280 C.3     1  UNL1        0.0209
     10 C         -25.3360    0.6840   33.5440 C.3     1  UNL1        0.0203
     11 C         -24.8290   -0.7150   33.9050 C.3     1  UNL1        0.0888
     12 N         -24.7580   -1.4810   32.6460 N.3     1  UNL1       -0.2174
     13 C         -25.6880    1.6140   26.4610 C.3     1  UNL1        0.1302
     14 C         -26.2500    2.9200   26.3950 C.2     1  UNL1        0.0696
     15 C         -25.6420    4.0930   27.1230 C.2     1  UNL1        0.2637
     16 N         -25.6140    5.2520   26.4490 N.am    1  UNL1       -0.2000
     17 C         -25.0260    6.4790   26.9630 C.3     1  UNL1        0.1388
     18 O         -25.1430    3.9660   28.2430 O.2     1  UNL1       -0.2686
     19 C         -27.4380    3.0910   25.6450 C.2     1  UNL1        0.1035
     20 N         -28.0750    2.0890   25.0030 N.2     1  UNL1       -0.2118
     21 C         -27.5430    0.8490   25.0790 C.2     1  UNL1        0.2355
     22 O         -28.1930   -0.2080   24.4770 O.2     1  UNL1       -0.4585
     23 C         -29.4600    0.0050   23.8660 C.3     1  UNL1        0.2423
     24 C         -30.0650   -1.3770   23.5730 C.3     1  UNL1        0.2292
     25 O         -30.7290   -1.8780   24.7210 O.3     1  UNL1       -0.2162
     26 C         -26.3540    0.5760   25.7770 C.3     1  UNL1        0.2546
     27 F         -25.8600   -0.6810   25.7950 F       1  UNL1       -0.2254
     28 C         -22.7793    1.6144   28.1223 C.3     1  UNL1        0.1276
     29 F         -20.3882    2.0321   27.6819 F       1  UNL1       -0.2038
     30 C         -24.2747    3.8874   31.7428 C.2     1  UNL1        0.0826
     31 N         -24.2567    1.4502   26.5266 N.3     1  UNL1       -0.2391
     32 O         -26.4062    1.9100   29.4816 O.2     1  UNL1       -0.2503
     33 N         -24.7263    0.2642   29.5806 N.am    1  UNL1       -0.2364
     34 C         -25.4942    4.5747   32.4283 C.3     1  UNL1        0.1304
     35 N         -24.4979    2.6829   30.6496 N.am    1  UNL1       -0.1640
     36 O         -21.8532    1.7053   25.9469 O.3     1  UNL1       -0.3092
     37 C         -21.5675    1.3582   27.0509 C.3     1  UNL1        0.2850
     38 C         -26.2634    5.1116   31.2125 C.3     1  UNL1        0.0268
     39 C         -23.4920    0.5871   28.8533 C.3     1  UNL1        0.2096
     40 C         -23.7577    0.5257   27.5650 C.3     1  UNL1        0.1153
     41 C         -25.3139    1.7292   29.8205 C.2     1  UNL1        0.3291
     42 C         -23.1644    1.3595   25.4582 C.3     1  UNL1        0.2227
     43 N         -25.1899    5.6958   33.3794 N.3     1  UNL1       -0.1267
     44 O         -22.8056    0.2918   30.0813 O.3     1  UNL1       -0.2033
@<TRIPOS>BOND
     1     1    33    1
     2     2     7    1
     3     2     1    1
     4     3     2    2
     5     4     3    1
     6     4     5    2
     7     5     6    1
     8     6     7    2
     9     8     1    1
    10     8     9    1
    11     8    12    1
    12     9    10    1
    13    10    11    1
    14    12    11    1
    15    13    14    1
    16    13    31    1
    17    14    15    1
    18    15    18    2
    19    16    17    1
    20    16    15    1
    21    19    14    2
    22    20    21    2
    23    20    19    1
    24    21    26    1
    25    22    21    1
    26    23    22    1
    27    24    23    1
    28    24    25    1
    29    26    27    1
    30    26    13    1
    31    28    39    1
    32    30    34    1
    33    31    40    1
    34    32    41    2
    35    33    41   am
    36    34    43    1
    37    35    30    2
    38    36    37    1
    39    37    29    1
    40    37    28    1
    41    38    34    1
    42    39    33    1
    43    39    44    1
    44    40    28    1
    45    40    39    1
    46    41    35    1
    47    42    36    1
    48    42    31    1
