@<TRIPOS>MOLECULE
outputs/IAG933/test6/raw/output_6585_IAG933_linker_design_.xyz
 47 51 0 0 0
SMALL
GASTEIGER

@<TRIPOS>ATOM
      1 C         -24.8550   -1.0120   30.1430 C.3     1  UNL1        0.0530
      2 C         -24.9730   -2.5050   29.7880 C.2     1  UNL1       -0.0198
      3 C         -23.9060   -3.1730   29.1460 C.2     1  UNL1       -0.0042
      4 C         -23.9890   -4.5490   28.8530 C.2     1  UNL1       -0.0003
      5 C         -25.1370   -5.2800   29.2050 C.2     1  UNL1       -0.0000
      6 C         -26.2320   -4.6110   29.7840 C.2     1  UNL1       -0.0003
      7 C         -26.1550   -3.2320   30.0650 C.2     1  UNL1       -0.0042
      8 C         -25.3870   -0.6790   31.5710 C.3     1  UNL1        0.0781
      9 C         -25.1890    0.7730   32.0280 C.3     1  UNL1        0.0192
     10 C         -25.3360    0.6840   33.5440 C.3     1  UNL1        0.0202
     11 C         -24.8290   -0.7150   33.9050 C.3     1  UNL1        0.0887
     12 N         -24.7580   -1.4810   32.6460 N.3     1  UNL1       -0.2191
     13 C         -25.6880    1.6140   26.4610 C.2     1  UNL1        0.0304
     14 C         -26.2500    2.9200   26.3950 C.2     1  UNL1        0.0738
     15 C         -25.6420    4.0930   27.1230 C.2     1  UNL1        0.2662
     16 N         -25.6140    5.2520   26.4490 N.am    1  UNL1       -0.1997
     17 C         -25.0260    6.4790   26.9630 C.3     1  UNL1        0.1388
     18 O         -25.1430    3.9660   28.2430 O.2     1  UNL1       -0.2683
     19 C         -27.4380    3.0910   25.6450 C.2     1  UNL1        0.1065
     20 N         -28.0750    2.0890   25.0030 N.2     1  UNL1       -0.2081
     21 C         -27.5430    0.8490   25.0790 C.2     1  UNL1        0.2530
     22 O         -28.1930   -0.2080   24.4770 O.2     1  UNL1       -0.4558
     23 C         -29.4600    0.0050   23.8660 C.3     1  UNL1        0.2426
     24 C         -30.0650   -1.3770   23.5730 C.3     1  UNL1        0.2292
     25 O         -30.7290   -1.8780   24.7210 O.3     1  UNL1       -0.2162
     26 C         -26.3540    0.5760   25.7770 C.2     1  UNL1        0.1904
     27 F         -25.8600   -0.6810   25.7950 F       1  UNL1       -0.1995
     28 C         -21.9925    0.5904   28.6962 C.3     1  UNL1        0.1594
     29 C         -29.4227    1.0897   28.5787 C.2     1  UNL1        0.0177
     30 N         -24.3598    0.7103   28.2104 N.3     1  UNL1       -0.2690
     31 C         -28.4253    1.3237   29.4975 C.2     1  UNL1       -0.0027
     32 N         -26.9504    3.1499   30.5109 N.pl3   1  UNL1       -0.1272
     33 N         -30.1039    3.2883   28.7645 N.2     1  UNL1       -0.2468
     34 C         -29.1104    3.5875   29.7156 C.2     1  UNL1        0.0768
     35 C         -25.2164   -0.0267   29.0079 C.3     1  UNL1        0.0635
     36 C         -27.5754    0.1271   29.8751 C.3     1  UNL1        0.0292
     37 C         -21.8025    2.2646   26.7951 C.3     1  UNL1        0.1440
     38 C         -23.0244    2.2012   27.0790 C.3     1  UNL1        0.0526
     39 N         -31.4776    5.0683   31.0944 N.3     1  UNL1       -0.1310
     40 C         -29.1424    4.9896   30.2402 C.3     1  UNL1        0.0677
     41 C         -22.9112   -0.0568   28.0251 C.3     1  UNL1        0.1047
     42 O         -21.3005    1.7308   28.0770 O.3     1  UNL1       -0.3522
     43 C         -26.7044   -0.2661   28.5972 C.3     1  UNL1        0.0211
     44 C         -30.2243    2.1093   28.1210 C.2     1  UNL1        0.0982
     45 C         -30.1588    5.5976   31.1782 C.3     1  UNL1        0.1156
     46 C         -28.1868    2.6748   29.9709 C.2     1  UNL1        0.0986
     47 C         -24.3075    1.4209   26.9415 C.3     1  UNL1        0.0852
@<TRIPOS>BOND
     1     1    35    1
     2     2     7    1
     3     2     1    1
     4     3     2    2
     5     4     3    1
     6     4     5    2
     7     5     6    1
     8     6     7    2
     9     8     1    1
    10     8     9    1
    11     8    12    1
    12     9    10    1
    13    10    11    1
    14    12    11    1
    15    14    13    1
    16    14    15    1
    17    15    18    2
    18    16    17    1
    19    16    15    1
    20    19    14    2
    21    20    21    2
    22    20    19    1
    23    21    26    1
    24    22    21    1
    25    23    22    1
    26    24    23    1
    27    24    25    1
    28    26    27    1
    29    26    13    2
    30    29    31    1
    31    30    35    1
    32    31    36    1
    33    31    46    2
    34    33    34    2
    35    34    46    1
    36    34    40    1
    37    35    43    1
    38    37    38    1
    39    37    42    1
    40    39    45    1
    41    40    45    1
    42    41    30    1
    43    41    28    1
    44    42    28    1
    45    43    36    1
    46    44    29    2
    47    44    33    1
    48    46    32    1
    49    47    13    1
    50    47    38    1
    51    47    30    1
