@<TRIPOS>MOLECULE
outputs/IAG933/test6/raw/output_6588_IAG933_linker_design_.xyz
 45 48 0 0 0
SMALL
GASTEIGER

@<TRIPOS>ATOM
      1 C         -24.8550   -1.0120   30.1430 C.3     1  UNL1        0.0386
      2 C         -24.9730   -2.5050   29.7880 C.2     1  UNL1       -0.0211
      3 C         -23.9060   -3.1730   29.1460 C.2     1  UNL1       -0.0042
      4 C         -23.9890   -4.5490   28.8530 C.2     1  UNL1       -0.0003
      5 C         -25.1370   -5.2800   29.2050 C.2     1  UNL1       -0.0000
      6 C         -26.2320   -4.6110   29.7840 C.2     1  UNL1       -0.0003
      7 C         -26.1550   -3.2320   30.0650 C.2     1  UNL1       -0.0042
      8 C         -25.3870   -0.6790   31.5710 C.3     1  UNL1        0.0768
      9 C         -25.1890    0.7730   32.0280 C.3     1  UNL1        0.0192
     10 C         -25.3360    0.6840   33.5440 C.3     1  UNL1        0.0202
     11 C         -24.8290   -0.7150   33.9050 C.3     1  UNL1        0.0887
     12 N         -24.7580   -1.4810   32.6460 N.3     1  UNL1       -0.2191
     13 C         -25.6880    1.6140   26.4610 C.3     1  UNL1        0.1450
     14 C         -26.2500    2.9200   26.3950 C.2     1  UNL1        0.0710
     15 C         -25.6420    4.0930   27.1230 C.2     1  UNL1        0.2638
     16 N         -25.6140    5.2520   26.4490 N.am    1  UNL1       -0.2000
     17 C         -25.0260    6.4790   26.9630 C.3     1  UNL1        0.1388
     18 O         -25.1430    3.9660   28.2430 O.2     1  UNL1       -0.2686
     19 C         -27.4380    3.0910   25.6450 C.2     1  UNL1        0.1035
     20 N         -28.0750    2.0890   25.0030 N.2     1  UNL1       -0.2118
     21 C         -27.5430    0.8490   25.0790 C.2     1  UNL1        0.2356
     22 O         -28.1930   -0.2080   24.4770 O.2     1  UNL1       -0.4585
     23 C         -29.4600    0.0050   23.8660 C.3     1  UNL1        0.2423
     24 C         -30.0650   -1.3770   23.5730 C.3     1  UNL1        0.2292
     25 O         -30.7290   -1.8780   24.7210 O.3     1  UNL1       -0.2162
     26 C         -26.3540    0.5760   25.7770 C.3     1  UNL1        0.2560
     27 F         -25.8600   -0.6810   25.7950 F       1  UNL1       -0.2253
     28 C         -27.1533    1.0100   29.1448 C.2     1  UNL1       -0.0497
     29 C         -26.0241    0.7940   28.8733 C.3     1  UNL1        0.0218
     30 O         -29.4641    2.8773   30.4986 O.3     1  UNL1       -0.1875
     31 C         -27.6795    2.1420   29.7426 C.2     1  UNL1       -0.0219
     32 O         -21.7190    2.0446   25.7108 O.3     1  UNL1       -0.1978
     33 C         -21.1438    2.1818   26.8905 C.3     1  UNL1        0.2903
     34 C         -28.0276    0.0493   28.9778 C.3     1  UNL1        0.0244
     35 O         -29.3600    3.2427   31.7720 O.3     1  UNL1       -0.0344
     36 C         -23.7263    0.7741   28.8845 C.3     1  UNL1        0.0048
     37 C         -29.4682    0.6266   29.2481 C.3     1  UNL1        0.0416
     38 O         -22.7838    1.6930   25.2447 O.3     1  UNL1       -0.2035
     39 C         -27.3183    3.5702   30.2459 C.3     1  UNL1        0.0282
     40 C         -23.5071    1.4725   26.6432 C.3     1  UNL1        0.2259
     41 N         -24.6449    1.4097   26.3834 N.3     1  UNL1       -0.1827
     42 C         -25.0658   -0.0199   28.9824 C.3     1  UNL1        0.0095
     43 N         -20.6615    1.5793   27.9768 N.3     1  UNL1       -0.0927
     44 C         -23.4919    0.8971   27.3174 C.3     1  UNL1        0.0514
     45 C         -28.9681    1.9119   29.9356 C.3     1  UNL1        0.1732
@<TRIPOS>BOND
     1     1    42    1
     2     2     7    1
     3     2     1    1
     4     3     2    2
     5     4     3    1
     6     4     5    2
     7     5     6    1
     8     6     7    2
     9     8     1    1
    10     8     9    1
    11     8    12    1
    12     9    10    1
    13    10    11    1
    14    12    11    1
    15    13    41    1
    16    14    13    1
    17    14    15    1
    18    15    18    2
    19    16    17    1
    20    16    15    1
    21    19    14    2
    22    20    21    2
    23    20    19    1
    24    21    26    1
    25    22    21    1
    26    23    22    1
    27    24    23    1
    28    24    25    1
    29    26    27    1
    30    26    13    1
    31    28    31    2
    32    29    28    1
    33    30    35    1
    34    31    45    1
    35    31    39    1
    36    32    33    1
    37    33    43    1
    38    34    28    1
    39    34    37    1
    40    36    42    1
    41    37    45    1
    42    38    32    1
    43    38    40    1
    44    40    44    1
    45    41    40    1
    46    42    29    1
    47    44    36    1
    48    45    30    1
