@<TRIPOS>MOLECULE
No_659-gen_results/8p0m/2024-11-27-11-27-31/
 33 35 0 0 0
SMALL
GASTEIGER

@<TRIPOS>ATOM
      1 O         -28.1229   -1.3353   28.4874 O.2     1  UNL1       -0.2695
      2 C         -27.0637   -0.8242   28.8687 C.2     1  UNL1        0.2549
      3 C         -26.4017   -0.0623   28.6224 C.ar    1  UNL1        0.0565
      4 N         -26.2652   -1.8674   29.7609 N.am    1  UNL1       -0.2226
      5 C         -25.0436    0.3924   29.0662 C.ar    1  UNL1       -0.0095
      6 C         -24.4726   -0.5445   29.9870 C.3     1  UNL1        0.0487
      7 C         -25.1332   -1.6696   30.2893 C.3     1  UNL1        0.1062
      8 C         -26.9049    1.1098   27.6518 C.ar    1  UNL1        0.0801
      9 C         -26.1345    1.7175   26.8119 C.ar    1  UNL1        0.0068
     10 C         -24.7453    2.0846   27.2960 C.ar    1  UNL1        0.0065
     11 C         -24.1597    1.2542   28.2785 C.ar    1  UNL1        0.0760
     12 C         -22.7681    1.4882   28.6442 C.2     1  UNL1        0.3874
     13 O         -21.9701    1.9544   27.6795 O.co2   1  UNL1       -0.2406
     14 O         -22.3787    1.4023   29.8638 O.co2   1  UNL1       -0.2406
     15 C         -27.1132   -3.0283   30.2478 C.2     1  UNL1        0.2550
     16 C         -28.4149   -2.8855   30.7496 C.ar    1  UNL1        0.0539
     17 C         -29.1343   -3.9787   31.0236 C.ar    1  UNL1        0.0084
     18 C         -30.4810   -3.8059   31.4040 C.ar    1  UNL1        0.0716
     19 C         -31.0682   -2.5299   31.4943 C.ar    1  UNL1        0.0039
     20 C         -30.2918   -1.4275   31.2313 C.ar    1  UNL1        0.0001
     21 C         -28.9637   -1.5536   30.8418 C.ar    1  UNL1        0.0045
     22 O         -26.5031   -4.1081   30.0568 O.2     1  UNL1       -0.2695
     23 C         -31.3070   -5.0404   31.7280 C.3     1  UNL1        0.4186
     24 F         -31.4445   -5.4560   32.8506 F       1  UNL1       -0.1659
     25 F         -32.5701   -4.8203   31.1110 F       1  UNL1       -0.1659
     26 F         -30.7521   -6.0589   30.9724 F       1  UNL1       -0.1659
     27 C         -28.3535    1.1268   27.4348 C.2     1  UNL1        0.3459
     28 O         -28.9735    0.8812   26.4914 O.2     1  UNL1       -0.2445
     29 O         -28.9342    1.9203   28.4341 O.3     1  UNL1       -0.4179
     30 C         -29.7772    2.9733   28.1728 C.2     1  UNL1        0.1831
     31 C         -30.7522    3.0813   28.9464 C.2     1  UNL1        0.0408
     32 C         -30.9164    2.4134   30.1390 C.2     1  UNL1        0.0032
     33 C         -29.8328    1.8812   30.7253 C.2     1  UNL1        0.0001
@<TRIPOS>BOND
     1     1     2    2
     2     2     3    1
     3     2     4   am
     4     5     6    1
     5     4     7    1
     6    11    12    1
     7    12    13   ar
     8    12    14   ar
     9     4    15   am
    10    15    16    1
    11    15    22    2
    12    18    23    1
    13    23    24    1
    14    23    25    1
    15    23    26    1
    16     8    27    1
    17    27    28    2
    18    27    29    1
    19    29    30    1
    20    30    31    2
    21    31    32    1
    22    32    33    2
    23     6     7    1
    24     3     8   ar
    25     8     9   ar
    26     9    10   ar
    27    10    11   ar
    28    11     5   ar
    29     5     3   ar
    30    16    17   ar
    31    17    18   ar
    32    18    19   ar
    33    19    20   ar
    34    20    21   ar
    35    21    16   ar
