@<TRIPOS>MOLECULE
outputs/IAG933/test6/raw/output_6599_IAG933_linker_design_.xyz
 45 48 0 0 0
SMALL
GASTEIGER

@<TRIPOS>ATOM
      1 C         -24.8550   -1.0120   30.1430 C.3     1  UNL1        0.1196
      2 C         -24.9730   -2.5050   29.7880 C.2     1  UNL1       -0.0025
      3 C         -23.9060   -3.1730   29.1460 C.2     1  UNL1       -0.0026
      4 C         -23.9890   -4.5490   28.8530 C.2     1  UNL1       -0.0003
      5 C         -25.1370   -5.2800   29.2050 C.2     1  UNL1       -0.0000
      6 C         -26.2320   -4.6110   29.7840 C.2     1  UNL1       -0.0003
      7 C         -26.1550   -3.2320   30.0650 C.2     1  UNL1       -0.0026
      8 C         -25.3870   -0.6790   31.5710 C.3     1  UNL1        0.0955
      9 C         -25.1890    0.7730   32.0280 C.3     1  UNL1        0.0209
     10 C         -25.3360    0.6840   33.5440 C.3     1  UNL1        0.0203
     11 C         -24.8290   -0.7150   33.9050 C.3     1  UNL1        0.0888
     12 N         -24.7580   -1.4810   32.6460 N.3     1  UNL1       -0.2174
     13 C         -25.6880    1.6140   26.4610 C.2     1  UNL1        0.0402
     14 C         -26.2500    2.9200   26.3950 C.2     1  UNL1        0.0766
     15 C         -25.6420    4.0930   27.1230 C.2     1  UNL1        0.2664
     16 N         -25.6140    5.2520   26.4490 N.am    1  UNL1       -0.1997
     17 C         -25.0260    6.4790   26.9630 C.3     1  UNL1        0.1388
     18 O         -25.1430    3.9660   28.2430 O.2     1  UNL1       -0.2683
     19 C         -27.4380    3.0910   25.6450 C.2     1  UNL1        0.1067
     20 N         -28.0750    2.0890   25.0030 N.2     1  UNL1       -0.2081
     21 C         -27.5430    0.8490   25.0790 C.2     1  UNL1        0.2533
     22 O         -28.1930   -0.2080   24.4770 O.2     1  UNL1       -0.4558
     23 C         -29.4600    0.0050   23.8660 C.3     1  UNL1        0.2426
     24 C         -30.0650   -1.3770   23.5730 C.3     1  UNL1        0.2292
     25 O         -30.7290   -1.8780   24.7210 O.3     1  UNL1       -0.2162
     26 C         -26.3540    0.5760   25.7770 C.2     1  UNL1        0.1931
     27 F         -25.8600   -0.6810   25.7950 F       1  UNL1       -0.1992
     28 N         -26.2794    2.1871   29.9100 N.am    1  UNL1       -0.1881
     29 C         -22.5884    0.4606   28.8033 C.2     1  UNL1        0.1538
     30 C         -25.0326    5.1670   32.5539 C.3     1  UNL1        0.1285
     31 C         -21.6587    1.7465   26.8271 C.2     1  UNL1        0.0138
     32 F         -22.2914   -0.3059   29.8322 F       1  UNL1       -0.2029
     33 C         -21.4459    1.0805   28.0997 C.2     1  UNL1        0.0318
     34 CL        -23.1790    2.6780   24.8217 Cl      1  UNL1       -0.0822
     35 C         -23.0582    1.8858   26.3037 C.2     1  UNL1        0.0591
     36 N         -25.0243    0.0924   29.1504 N.am    1  UNL1       -0.2360
     37 C         -26.3340    5.7875   33.2639 C.3     1  UNL1        0.0330
     38 O         -27.4083    0.3826   29.1752 O.2     1  UNL1       -0.2504
     39 C         -26.3006    0.8079   29.3149 C.2     1  UNL1        0.3273
     40 C         -25.5950    3.2888   30.7367 C.3     1  UNL1        0.1193
     41 C         -25.4160    3.7290   32.2243 C.3     1  UNL1        0.0539
     42 C         -24.2606    1.3845   27.1198 C.2     1  UNL1        0.0290
     43 C         -24.9094    6.1934   31.3131 C.3     1  UNL1        0.0330
     44 C         -23.9925    0.6222   28.4176 C.2     1  UNL1        0.0839
     45 O         -23.7330    5.1513   33.1001 O.3     1  UNL1       -0.2256
@<TRIPOS>BOND
     1     1    36    1
     2     2     7    1
     3     2     1    1
     4     3     2    2
     5     4     3    1
     6     4     5    2
     7     5     6    1
     8     6     7    2
     9     8     1    1
    10     8     9    1
    11     8    12    1
    12     9    10    1
    13    10    11    1
    14    12    11    1
    15    13    42    1
    16    14    13    1
    17    14    15    1
    18    15    18    2
    19    16    17    1
    20    16    15    1
    21    19    14    2
    22    20    21    2
    23    20    19    1
    24    21    26    1
    25    22    21    1
    26    23    22    1
    27    24    23    1
    28    24    25    1
    29    26    27    1
    30    26    13    2
    31    28    40    1
    32    29    32    1
    33    30    45    1
    34    30    37    1
    35    31    33    1
    36    33    29    2
    37    34    35    1
    38    35    31    2
    39    35    42    1
    40    36    39   am
    41    38    39    2
    42    39    28    1
    43    40    41    1
    44    41    30    1
    45    42    44    2
    46    43    30    1
    47    44    29    1
    48    44    36    1
