@<TRIPOS>MOLECULE
No_660-gen_results/8p0m/2024-11-27-11-27-31/
 14 14 0 0 0
SMALL
GASTEIGER

@<TRIPOS>ATOM
      1 C         -28.0162   -0.8135   28.8779 C.ar    1  UNL1        0.0077
      2 C         -27.0636   -0.1189   28.6079 C.ar    1  UNL1        0.0376
      3 C         -25.7647   -0.3897   29.0360 C.ar    1  UNL1        0.1454
      4 C         -25.5296   -1.5302   29.9014 C.ar    1  UNL1        0.0376
      5 C         -26.6577   -2.2915   30.2035 C.ar    1  UNL1        0.0077
      6 C         -27.8548   -1.9555   29.7630 C.ar    1  UNL1        0.0552
      7 O         -24.8044    0.5237   28.7994 O.3     1  UNL1       -0.4508
      8 C         -23.7522    0.5127   28.5232 C.2     1  UNL1        0.1750
      9 C         -22.7898    1.3755   29.0647 C.2     1  UNL1        0.0148
     10 C         -28.9952   -2.8434   30.1897 C.2     1  UNL1        0.2648
     11 O         -30.0428   -2.5368   30.0556 O.2     1  UNL1       -0.2684
     12 N         -28.6336   -3.8665   31.0924 N.am    1  UNL1       -0.1998
     13 C         -21.3769    1.2527   28.5974 C.3     1  UNL1        0.0341
     14 C         -29.6022   -4.8167   31.6117 C.3     1  UNL1        0.1388
@<TRIPOS>BOND
     1     3     7    1
     2     7     8    1
     3     8     9    2
     4     6    10    1
     5    10    11    2
     6    10    12   am
     7     9    13    1
     8    12    14    1
     9     1     2   ar
    10     2     3   ar
    11     3     4   ar
    12     4     5   ar
    13     5     6   ar
    14     6     1   ar
