@<TRIPOS>MOLECULE
outputs/IAG933/test6/raw/output_6602_IAG933_linker_design_.xyz
 45 48 0 0 0
SMALL
GASTEIGER

@<TRIPOS>ATOM
      1 C         -24.8550   -1.0120   30.1430 C.3     1  UNL1        0.0422
      2 C         -24.9730   -2.5050   29.7880 C.2     1  UNL1       -0.0210
      3 C         -23.9060   -3.1730   29.1460 C.2     1  UNL1       -0.0042
      4 C         -23.9890   -4.5490   28.8530 C.2     1  UNL1       -0.0003
      5 C         -25.1370   -5.2800   29.2050 C.2     1  UNL1       -0.0000
      6 C         -26.2320   -4.6110   29.7840 C.2     1  UNL1       -0.0003
      7 C         -26.1550   -3.2320   30.0650 C.2     1  UNL1       -0.0042
      8 C         -25.3870   -0.6790   31.5710 C.3     1  UNL1        0.0769
      9 C         -25.1890    0.7730   32.0280 C.3     1  UNL1        0.0192
     10 C         -25.3360    0.6840   33.5440 C.3     1  UNL1        0.0202
     11 C         -24.8290   -0.7150   33.9050 C.3     1  UNL1        0.0887
     12 N         -24.7580   -1.4810   32.6460 N.3     1  UNL1       -0.2191
     13 C         -25.6880    1.6140   26.4610 C.3     1  UNL1        0.1127
     14 C         -26.2500    2.9200   26.3950 C.2     1  UNL1        0.0587
     15 C         -25.6420    4.0930   27.1230 C.2     1  UNL1        0.2626
     16 N         -25.6140    5.2520   26.4490 N.am    1  UNL1       -0.2000
     17 C         -25.0260    6.4790   26.9630 C.3     1  UNL1        0.1388
     18 O         -25.1430    3.9660   28.2430 O.2     1  UNL1       -0.2687
     19 C         -27.4380    3.0910   25.6450 C.2     1  UNL1        0.1023
     20 N         -28.0750    2.0890   25.0030 N.2     1  UNL1       -0.2119
     21 C         -27.5430    0.8490   25.0790 C.2     1  UNL1        0.2342
     22 O         -28.1930   -0.2080   24.4770 O.2     1  UNL1       -0.4585
     23 C         -29.4600    0.0050   23.8660 C.3     1  UNL1        0.2423
     24 C         -30.0650   -1.3770   23.5730 C.3     1  UNL1        0.2292
     25 O         -30.7290   -1.8780   24.7210 O.3     1  UNL1       -0.2162
     26 C         -26.3540    0.5760   25.7770 C.3     1  UNL1        0.2439
     27 F         -25.8600   -0.6810   25.7950 F       1  UNL1       -0.2267
     28 C         -30.4577    0.8391   28.7283 C.2     1  UNL1        0.0169
     29 C         -32.9948    0.6413   26.9881 C.2     1  UNL1       -0.0042
     30 C         -31.0694    2.0979   26.4459 C.2     1  UNL1       -0.0002
     31 C         -23.0705    1.8573   25.6368 C.3     1  UNL1        0.2532
     32 O         -29.2112   -1.1627   29.3701 O.2     1  UNL1       -0.2917
     33 N         -23.3940    1.4368   27.0591 N.pl3   1  UNL1       -0.1903
     34 N         -22.9555   -0.1526   28.6856 N.2     1  UNL1        0.1879
     35 C         -24.8889    1.1990   27.5117 C.3     1  UNL1        0.1676
     36 C         -22.5192    0.9952   28.0129 C.2     1  UNL1        0.3531
     37 C         -24.9730    0.0726   28.8711 C.3     1  UNL1        0.0490
     38 C         -30.3598    1.8701   27.6489 C.2     1  UNL1       -0.0011
     39 C         -26.6301   -0.1489   28.9199 C.3     1  UNL1        0.0125
     40 C         -31.6374    0.4025   29.1639 C.3     1  UNL1        0.0552
     41 C         -29.1772    0.0979   29.2064 C.2     1  UNL1        0.1694
     42 C         -32.1892    1.3573   26.0796 C.2     1  UNL1       -0.0003
     43 C         -32.8359    0.4219   28.3672 C.2     1  UNL1       -0.0213
     44 C         -27.8853    0.8313   29.0894 C.3     1  UNL1        0.0690
     45 C         -21.2223    1.5257   27.5181 C.3     1  UNL1        0.1349
@<TRIPOS>BOND
     1     1    37    1
     2     2     7    1
     3     2     1    1
     4     3     2    2
     5     4     3    1
     6     4     5    2
     7     5     6    1
     8     6     7    2
     9     8     1    1
    10     8     9    1
    11     8    12    1
    12     9    10    1
    13    10    11    1
    14    12    11    1
    15    13    35    1
    16    14    13    1
    17    14    15    1
    18    15    18    2
    19    16    17    1
    20    16    15    1
    21    19    14    2
    22    20    21    2
    23    20    19    1
    24    21    26    1
    25    22    21    1
    26    23    22    1
    27    24    23    1
    28    24    25    1
    29    26    27    1
    30    26    13    1
    31    28    40    1
    32    28    41    1
    33    29    43    2
    34    30    38    1
    35    31    33    1
    36    33    36    1
    37    35    33    1
    38    35    37    1
    39    36    34    2
    40    37    39    1
    41    38    28    2
    42    39    44    1
    43    41    32    2
    44    42    30    2
    45    42    29    1
    46    43    40    1
    47    44    41    1
    48    45    36    1
