@<TRIPOS>MOLECULE
outputs/IAG933/test6/raw/output_6603_IAG933_linker_design_.xyz
 45 49 0 0 0
SMALL
GASTEIGER

@<TRIPOS>ATOM
      1 C         -24.8550   -1.0120   30.1430 C.3     1  UNL1        0.0425
      2 C         -24.9730   -2.5050   29.7880 C.2     1  UNL1       -0.0208
      3 C         -23.9060   -3.1730   29.1460 C.2     1  UNL1       -0.0042
      4 C         -23.9890   -4.5490   28.8530 C.2     1  UNL1       -0.0003
      5 C         -25.1370   -5.2800   29.2050 C.2     1  UNL1       -0.0000
      6 C         -26.2320   -4.6110   29.7840 C.2     1  UNL1       -0.0003
      7 C         -26.1550   -3.2320   30.0650 C.2     1  UNL1       -0.0042
      8 C         -25.3870   -0.6790   31.5710 C.3     1  UNL1        0.0771
      9 C         -25.1890    0.7730   32.0280 C.3     1  UNL1        0.0192
     10 C         -25.3360    0.6840   33.5440 C.3     1  UNL1        0.0202
     11 C         -24.8290   -0.7150   33.9050 C.3     1  UNL1        0.0887
     12 N         -24.7580   -1.4810   32.6460 N.3     1  UNL1       -0.2191
     13 C         -25.6880    1.6140   26.4610 C.2     1  UNL1        0.0388
     14 C         -26.2500    2.9200   26.3950 C.2     1  UNL1        0.0766
     15 C         -25.6420    4.0930   27.1230 C.2     1  UNL1        0.2664
     16 N         -25.6140    5.2520   26.4490 N.am    1  UNL1       -0.1997
     17 C         -25.0260    6.4790   26.9630 C.3     1  UNL1        0.1388
     18 O         -25.1430    3.9660   28.2430 O.2     1  UNL1       -0.2683
     19 C         -27.4380    3.0910   25.6450 C.2     1  UNL1        0.1067
     20 N         -28.0750    2.0890   25.0030 N.2     1  UNL1       -0.2081
     21 C         -27.5430    0.8490   25.0790 C.2     1  UNL1        0.2533
     22 O         -28.1930   -0.2080   24.4770 O.2     1  UNL1       -0.4558
     23 C         -29.4600    0.0050   23.8660 C.3     1  UNL1        0.2426
     24 C         -30.0650   -1.3770   23.5730 C.3     1  UNL1        0.2292
     25 O         -30.7290   -1.8780   24.7210 O.3     1  UNL1       -0.2162
     26 C         -26.3540    0.5760   25.7770 C.2     1  UNL1        0.1931
     27 F         -25.8600   -0.6810   25.7950 F       1  UNL1       -0.1992
     28 C         -29.8196    3.3240   30.8202 C.3     1  UNL1        0.2115
     29 C         -23.2707    1.8261   26.8349 C.2     1  UNL1        0.0881
     30 C         -24.5532    1.3692   27.2064 C.2     1  UNL1        0.0146
     31 O         -22.4557   -0.1217   29.4482 O.2     1  UNL1       -0.2845
     32 O         -29.9711    4.5361   29.9176 O.3     1  UNL1       -0.2177
     33 C         -25.5759   -0.0996   29.1777 C.3     1  UNL1        0.0334
     34 C         -30.1402    1.9793   30.0657 C.3     1  UNL1        0.1774
     35 C         -27.4793    2.8316   30.3781 C.3     1  UNL1        0.0652
     36 C         -27.7937    1.2831   29.8362 C.3     1  UNL1        0.1183
     37 F         -21.0292    1.3177   27.7463 F       1  UNL1       -0.1999
     38 C         -28.4437    3.2286   31.5779 C.3     1  UNL1        0.1871
     39 O         -27.8914    4.7218   32.0165 O.3     1  UNL1       -0.2202
     40 CL        -22.8595    2.6636   25.3728 Cl      1  UNL1       -0.0798
     41 O         -29.1698    1.0195   30.1052 O.3     1  UNL1       -0.3534
     42 C         -27.0583    0.2984   28.8530 C.3     1  UNL1        0.0345
     43 C         -22.3126    1.3173   27.7502 C.2     1  UNL1        0.1889
     44 C         -23.1213    0.5736   28.6080 C.2     1  UNL1        0.2197
     45 C         -24.4984    0.5976   28.3578 C.2     1  UNL1        0.0201
@<TRIPOS>BOND
     1     1    33    1
     2     2     7    1
     3     2     1    1
     4     3     2    2
     5     4     3    1
     6     4     5    2
     7     5     6    1
     8     6     7    2
     9     8     1    1
    10     8     9    1
    11     8    12    1
    12     9    10    1
    13    10    11    1
    14    12    11    1
    15    13    30    1
    16    14    13    1
    17    14    15    1
    18    15    18    2
    19    16    17    1
    20    16    15    1
    21    19    14    2
    22    20    21    2
    23    20    19    1
    24    21    26    1
    25    22    21    1
    26    23    22    1
    27    24    23    1
    28    24    25    1
    29    26    27    1
    30    26    13    2
    31    28    32    1
    32    28    38    1
    33    29    30    1
    34    29    43    2
    35    30    45    2
    36    33    42    1
    37    34    41    1
    38    34    28    1
    39    35    38    1
    40    36    42    1
    41    36    41    1
    42    36    35    1
    43    37    43    1
    44    38    39    1
    45    40    29    1
    46    43    44    1
    47    44    31    2
    48    45    44    1
    49    45    33    1
