@<TRIPOS>MOLECULE
outputs/IAG933/test6/raw/output_6604_IAG933_linker_design_.xyz
 45 49 0 0 0
SMALL
GASTEIGER

@<TRIPOS>ATOM
      1 C         -24.8550   -1.0120   30.1430 C.3     1  UNL1        0.0438
      2 C         -24.9730   -2.5050   29.7880 C.2     1  UNL1       -0.0208
      3 C         -23.9060   -3.1730   29.1460 C.2     1  UNL1       -0.0042
      4 C         -23.9890   -4.5490   28.8530 C.2     1  UNL1       -0.0003
      5 C         -25.1370   -5.2800   29.2050 C.2     1  UNL1       -0.0000
      6 C         -26.2320   -4.6110   29.7840 C.2     1  UNL1       -0.0003
      7 C         -26.1550   -3.2320   30.0650 C.2     1  UNL1       -0.0042
      8 C         -25.3870   -0.6790   31.5710 C.3     1  UNL1        0.0785
      9 C         -25.1890    0.7730   32.0280 C.3     1  UNL1        0.0342
     10 C         -25.3360    0.6840   33.5440 C.3     1  UNL1        0.0216
     11 C         -24.8290   -0.7150   33.9050 C.3     1  UNL1        0.0887
     12 N         -24.7580   -1.4810   32.6460 N.3     1  UNL1       -0.2191
     13 C         -25.6880    1.6140   26.4610 C.3     1  UNL1        0.1268
     14 C         -26.2500    2.9200   26.3950 C.2     1  UNL1        0.0620
     15 C         -25.6420    4.0930   27.1230 C.2     1  UNL1        0.2629
     16 N         -25.6140    5.2520   26.4490 N.am    1  UNL1       -0.2000
     17 C         -25.0260    6.4790   26.9630 C.3     1  UNL1        0.1388
     18 O         -25.1430    3.9660   28.2430 O.2     1  UNL1       -0.2686
     19 C         -27.4380    3.0910   25.6450 C.2     1  UNL1        0.1026
     20 N         -28.0750    2.0890   25.0030 N.2     1  UNL1       -0.2118
     21 C         -27.5430    0.8490   25.0790 C.2     1  UNL1        0.2345
     22 O         -28.1930   -0.2080   24.4770 O.2     1  UNL1       -0.4585
     23 C         -29.4600    0.0050   23.8660 C.3     1  UNL1        0.2423
     24 C         -30.0650   -1.3770   23.5730 C.3     1  UNL1        0.2292
     25 O         -30.7290   -1.8780   24.7210 O.3     1  UNL1       -0.2162
     26 C         -26.3540    0.5760   25.7770 C.3     1  UNL1        0.2471
     27 F         -25.8600   -0.6810   25.7950 F       1  UNL1       -0.2264
     28 N         -26.7331    6.9809   33.2113 N.3     1  UNL1       -0.2566
     29 C         -26.5110    7.3028   31.8657 C.3     1  UNL1        0.0749
     30 C         -24.0970    1.1241   27.9984 C.2     1  UNL1        0.0286
     31 C         -24.9657    3.6177   31.9207 C.3     1  UNL1        0.1060
     32 C         -27.1039    5.6985   33.4865 C.3     1  UNL1        0.1638
     33 C         -22.2984    2.0338   26.1187 C.3     1  UNL1        0.3504
     34 C         -24.4628    1.4975   26.7527 C.2     1  UNL1        0.1261
     35 C         -26.5299    7.9261   34.3622 C.3     1  UNL1        0.0907
     36 C         -22.8113    1.3656   28.4489 C.2     1  UNL1       -0.0161
     37 C         -25.9459    4.8680   31.7527 C.3     1  UNL1        0.0930
     38 C         -22.7093    1.2462   29.9954 C.3     1  UNL1        0.0437
     39 C         -21.8596    1.7571   27.5004 C.2     1  UNL1        0.0500
     40 C         -24.0831    1.4141   30.9940 C.3     1  UNL1        0.0785
     41 F         -21.5340    2.4862   25.0985 F       1  UNL1       -0.1833
     42 O         -23.5530    1.8668   25.7878 O.2     1  UNL1       -0.4501
     43 C         -26.0848    6.2881   31.0215 C.3     1  UNL1        0.0363
     44 N         -26.8287    4.6904   32.6443 N.3     1  UNL1       -0.2007
     45 N         -24.7618    2.8393   30.7241 N.3     1  UNL1       -0.2176
@<TRIPOS>BOND
     1     2     7    1
     2     2     1    1
     3     3     2    2
     4     4     3    1
     5     4     5    2
     6     5     6    1
     7     6     7    2
     8     8     1    1
     9     8     9    1
    10     8    12    1
    11     9    40    1
    12     9    10    1
    13    10    11    1
    14    12    11    1
    15    13    34    1
    16    14    13    1
    17    14    15    1
    18    15    18    2
    19    16    17    1
    20    16    15    1
    21    19    14    2
    22    20    21    2
    23    20    19    1
    24    21    26    1
    25    22    21    1
    26    23    22    1
    27    24    23    1
    28    24    25    1
    29    26    27    1
    30    26    13    1
    31    28    32    1
    32    28    35    1
    33    29    28    1
    34    30    36    1
    35    33    41    1
    36    33    39    1
    37    34    30    2
    38    36    38    1
    39    37    31    1
    40    37    44    1
    41    39    36    2
    42    40    38    1
    43    42    33    1
    44    42    34    1
    45    43    37    1
    46    43    29    1
    47    44    32    1
    48    45    40    1
    49    45    31    1
