@<TRIPOS>MOLECULE
outputs/IAG933/test6/raw/output_6609_IAG933_linker_design_.xyz
 44 47 0 0 0
SMALL
GASTEIGER

@<TRIPOS>ATOM
      1 C         -24.8550   -1.0120   30.1430 C.3     1  UNL1        0.0762
      2 C         -24.9730   -2.5050   29.7880 C.2     1  UNL1       -0.0157
      3 C         -23.9060   -3.1730   29.1460 C.2     1  UNL1       -0.0039
      4 C         -23.9890   -4.5490   28.8530 C.2     1  UNL1       -0.0003
      5 C         -25.1370   -5.2800   29.2050 C.2     1  UNL1       -0.0000
      6 C         -26.2320   -4.6110   29.7840 C.2     1  UNL1       -0.0003
      7 C         -26.1550   -3.2320   30.0650 C.2     1  UNL1       -0.0039
      8 C         -25.3870   -0.6790   31.5710 C.3     1  UNL1        0.0822
      9 C         -25.1890    0.7730   32.0280 C.3     1  UNL1        0.0196
     10 C         -25.3360    0.6840   33.5440 C.3     1  UNL1        0.0203
     11 C         -24.8290   -0.7150   33.9050 C.3     1  UNL1        0.0887
     12 N         -24.7580   -1.4810   32.6460 N.3     1  UNL1       -0.2188
     13 C         -25.6880    1.6140   26.4610 C.2     1  UNL1        0.0404
     14 C         -26.2500    2.9200   26.3950 C.2     1  UNL1        0.0766
     15 C         -25.6420    4.0930   27.1230 C.2     1  UNL1        0.2664
     16 N         -25.6140    5.2520   26.4490 N.am    1  UNL1       -0.1997
     17 C         -25.0260    6.4790   26.9630 C.3     1  UNL1        0.1388
     18 O         -25.1430    3.9660   28.2430 O.2     1  UNL1       -0.2683
     19 C         -27.4380    3.0910   25.6450 C.2     1  UNL1        0.1067
     20 N         -28.0750    2.0890   25.0030 N.2     1  UNL1       -0.2081
     21 C         -27.5430    0.8490   25.0790 C.2     1  UNL1        0.2533
     22 O         -28.1930   -0.2080   24.4770 O.2     1  UNL1       -0.4558
     23 C         -29.4600    0.0050   23.8660 C.3     1  UNL1        0.2426
     24 C         -30.0650   -1.3770   23.5730 C.3     1  UNL1        0.2292
     25 O         -30.7290   -1.8780   24.7210 O.3     1  UNL1       -0.2162
     26 C         -26.3540    0.5760   25.7770 C.2     1  UNL1        0.1931
     27 F         -25.8600   -0.6810   25.7950 F       1  UNL1       -0.1992
     28 N         -26.3551    0.5998   28.8079 N.am    1  UNL1       -0.1830
     29 O         -22.4053   -0.5300   29.8887 O.2     1  UNL1       -0.2851
     30 N         -20.2787    0.2520   28.4011 N.pl3   1  UNL1       -0.1246
     31 C         -28.7630   -0.6500   29.2172 C.3     1  UNL1        0.1191
     32 C         -23.1712    1.7991   26.4291 C.2     1  UNL1        0.1417
     33 C         -25.0164    0.0528   29.0761 C.2     1  UNL1        0.0593
     34 C         -24.3531    1.2902   27.1074 C.2     1  UNL1        0.0341
     35 C         -21.5469    0.5593   28.0115 C.2     1  UNL1        0.1301
     36 C         -24.1046    0.5007   28.3311 C.2     1  UNL1        0.0542
     37 C         -30.5507   -1.6654   31.7896 C.3     1  UNL1        0.1741
     38 F         -23.2939    2.5780   25.3926 F       1  UNL1       -0.2041
     39 C         -21.8606    1.4584   26.8770 C.2     1  UNL1        0.0509
     40 O         -28.0935    1.4719   30.1346 O.2     1  UNL1       -0.2729
     41 C         -22.7076    0.1725   28.7440 C.2     1  UNL1        0.2133
     42 C         -30.1096   -0.2842   29.8546 C.3     1  UNL1        0.1519
     43 O         -29.9757   -0.4430   31.2884 O.3     1  UNL1       -0.3506
     44 C         -27.7661    0.5315   29.4251 C.2     1  UNL1        0.2478
@<TRIPOS>BOND
     1     1    33    1
     2     2     7    1
     3     2     1    1
     4     3     2    2
     5     4     3    1
     6     4     5    2
     7     5     6    1
     8     6     7    2
     9     8     1    1
    10     8     9    1
    11     8    12    1
    12     9    10    1
    13    10    11    1
    14    12    11    1
    15    13    34    1
    16    14    13    1
    17    14    15    1
    18    15    18    2
    19    16    17    1
    20    16    15    1
    21    19    14    2
    22    20    21    2
    23    20    19    1
    24    21    26    1
    25    22    21    1
    26    23    22    1
    27    24    23    1
    28    24    25    1
    29    26    27    1
    30    26    13    2
    31    28    33    2
    32    28    44    1
    33    31    44    1
    34    31    42    1
    35    32    39    2
    36    32    34    1
    37    34    36    2
    38    35    30    1
    39    35    41    2
    40    36    41    1
    41    36    33    1
    42    38    32    1
    43    39    35    1
    44    41    29    1
    45    42    43    1
    46    43    37    1
    47    44    40    2
