@<TRIPOS>MOLECULE
outputs/IAG933/test6/raw/output_6611_IAG933_linker_design_.xyz
 49 53 0 0 0
SMALL
GASTEIGER

@<TRIPOS>ATOM
      1 C         -24.8550   -1.0120   30.1430 C.3     1  UNL1        0.0503
      2 C         -24.9730   -2.5050   29.7880 C.2     1  UNL1       -0.0202
      3 C         -23.9060   -3.1730   29.1460 C.2     1  UNL1       -0.0042
      4 C         -23.9890   -4.5490   28.8530 C.2     1  UNL1       -0.0003
      5 C         -25.1370   -5.2800   29.2050 C.2     1  UNL1       -0.0000
      6 C         -26.2320   -4.6110   29.7840 C.2     1  UNL1       -0.0003
      7 C         -26.1550   -3.2320   30.0650 C.2     1  UNL1       -0.0042
      8 C         -25.3870   -0.6790   31.5710 C.3     1  UNL1        0.0777
      9 C         -25.1890    0.7730   32.0280 C.3     1  UNL1        0.0192
     10 C         -25.3360    0.6840   33.5440 C.3     1  UNL1        0.0202
     11 C         -24.8290   -0.7150   33.9050 C.3     1  UNL1        0.0887
     12 N         -24.7580   -1.4810   32.6460 N.3     1  UNL1       -0.2191
     13 C         -25.6880    1.6140   26.4610 C.2     1  UNL1        0.0157
     14 C         -26.2500    2.9200   26.3950 C.2     1  UNL1        0.0726
     15 C         -25.6420    4.0930   27.1230 C.2     1  UNL1        0.2661
     16 N         -25.6140    5.2520   26.4490 N.am    1  UNL1       -0.1997
     17 C         -25.0260    6.4790   26.9630 C.3     1  UNL1        0.1388
     18 O         -25.1430    3.9660   28.2430 O.2     1  UNL1       -0.2683
     19 C         -27.4380    3.0910   25.6450 C.2     1  UNL1        0.1064
     20 N         -28.0750    2.0890   25.0030 N.2     1  UNL1       -0.2081
     21 C         -27.5430    0.8490   25.0790 C.2     1  UNL1        0.2530
     22 O         -28.1930   -0.2080   24.4770 O.2     1  UNL1       -0.4558
     23 C         -29.4600    0.0050   23.8660 C.3     1  UNL1        0.2426
     24 C         -30.0650   -1.3770   23.5730 C.3     1  UNL1        0.2292
     25 O         -30.7290   -1.8780   24.7210 O.3     1  UNL1       -0.2162
     26 C         -26.3540    0.5760   25.7770 C.2     1  UNL1        0.1891
     27 F         -25.8600   -0.6810   25.7950 F       1  UNL1       -0.1996
     28 C         -25.5271   -0.2854   28.9825 C.3     1  UNL1        0.0698
     29 O         -29.6165    6.4993   28.9829 O.co2   1  UNL1       -0.2404
     30 C         -28.0167    2.7260   30.9365 C.2     1  UNL1        0.0002
     31 C         -24.5344    1.1644   27.0635 C.3     1  UNL1        0.0284
     32 O         -20.9932    1.1514   27.7290 O.3     1  UNL1       -0.2231
     33 C         -23.2213    1.9961   26.9265 C.3     1  UNL1        0.0373
     34 C         -28.1777    0.7529   28.6912 C.1     1  UNL1       -0.0863
     35 C         -29.1894    1.8931   28.8931 C.3     1  UNL1        0.1026
     36 O         -29.9995    4.2689   33.5269 O.2     1  UNL1       -0.4682
     37 C         -28.8560    3.1197   29.8382 C.2     1  UNL1        0.0005
     38 C         -24.6415    0.8443   28.6249 C.3     1  UNL1        0.0191
     39 O         -29.7873    6.3568   31.4971 O.2     1  UNL1       -0.2831
     40 C         -29.6714    5.2809   28.7944 C.2     1  UNL1        0.3907
     41 C         -29.3028    4.1461   32.4030 C.2     1  UNL1        0.1776
     42 O         -29.8787    4.6675   27.7333 O.co2   1  UNL1       -0.2404
     43 C         -30.4469    3.6134   34.6158 C.3     1  UNL1        0.2526
     44 C         -23.1811    0.4176   28.8875 C.3     1  UNL1        0.0342
     45 C         -29.4546    4.3987   29.9510 C.2     1  UNL1        0.1186
     46 C         -29.6168    4.9925   31.2634 C.2     1  UNL1        0.2353
     47 C         -27.0434    0.1137   28.8805 C.1     1  UNL1       -0.0913
     48 C         -28.2879    3.2009   32.2187 C.2     1  UNL1        0.0399
     49 C         -22.2989    1.5196   28.0728 C.3     1  UNL1        0.1524
@<TRIPOS>BOND
     1     1    28    1
     2     2     7    1
     3     2     1    1
     4     3     2    2
     5     4     3    1
     6     4     5    2
     7     5     6    1
     8     6     7    2
     9     8     1    1
    10     8     9    1
    11     8    12    1
    12     9    10    1
    13    10    11    1
    14    12    11    1
    15    14    13    1
    16    14    15    1
    17    15    18    2
    18    16    17    1
    19    16    15    1
    20    19    14    2
    21    20    21    2
    22    20    19    1
    23    21    26    1
    24    22    21    1
    25    23    22    1
    26    24    23    1
    27    24    25    1
    28    26    27    1
    29    26    13    2
    30    28    47    1
    31    30    48    1
    32    31    13    1
    33    31    38    1
    34    33    31    1
    35    33    49    1
    36    34    47    3
    37    34    35    1
    38    35    37    1
    39    36    43    1
    40    37    45    1
    41    37    30    2
    42    38    44    1
    43    38    28    1
    44    40    29   ar
    45    40    45    1
    46    41    36    1
    47    42    40   ar
    48    45    46    2
    49    46    39    1
    50    46    41    1
    51    48    41    2
    52    49    32    1
    53    49    44    1
