@<TRIPOS>MOLECULE
outputs/IAG933/test6/raw/output_6616_IAG933_linker_design_.xyz
 43 46 0 0 0
SMALL
GASTEIGER

@<TRIPOS>ATOM
      1 C         -24.8550   -1.0120   30.1430 C.3     1  UNL1        0.2076
      2 C         -24.9730   -2.5050   29.7880 C.2     1  UNL1        0.0218
      3 C         -23.9060   -3.1730   29.1460 C.2     1  UNL1       -0.0004
      4 C         -23.9890   -4.5490   28.8530 C.2     1  UNL1       -0.0002
      5 C         -25.1370   -5.2800   29.2050 C.2     1  UNL1       -0.0000
      6 C         -26.2320   -4.6110   29.7840 C.2     1  UNL1       -0.0002
      7 C         -26.1550   -3.2320   30.0650 C.2     1  UNL1       -0.0004
      8 C         -25.3870   -0.6790   31.5710 C.3     1  UNL1        0.1206
      9 C         -25.1890    0.7730   32.0280 C.3     1  UNL1        0.0291
     10 C         -25.3360    0.6840   33.5440 C.3     1  UNL1        0.0208
     11 C         -24.8290   -0.7150   33.9050 C.3     1  UNL1        0.0889
     12 N         -24.7580   -1.4810   32.6460 N.3     1  UNL1       -0.2150
     13 C         -25.6880    1.6140   26.4610 C.2     1  UNL1        0.0452
     14 C         -26.2500    2.9200   26.3950 C.2     1  UNL1        0.0768
     15 C         -25.6420    4.0930   27.1230 C.2     1  UNL1        0.2664
     16 N         -25.6140    5.2520   26.4490 N.am    1  UNL1       -0.1997
     17 C         -25.0260    6.4790   26.9630 C.3     1  UNL1        0.1388
     18 O         -25.1430    3.9660   28.2430 O.2     1  UNL1       -0.2683
     19 C         -27.4380    3.0910   25.6450 C.2     1  UNL1        0.1067
     20 N         -28.0750    2.0890   25.0030 N.2     1  UNL1       -0.2081
     21 C         -27.5430    0.8490   25.0790 C.2     1  UNL1        0.2533
     22 O         -28.1930   -0.2080   24.4770 O.2     1  UNL1       -0.4558
     23 C         -29.4600    0.0050   23.8660 C.3     1  UNL1        0.2426
     24 C         -30.0650   -1.3770   23.5730 C.3     1  UNL1        0.2292
     25 O         -30.7290   -1.8780   24.7210 O.3     1  UNL1       -0.2162
     26 C         -26.3540    0.5760   25.7770 C.2     1  UNL1        0.1933
     27 F         -25.8600   -0.6810   25.7950 F       1  UNL1       -0.1992
     28 N         -22.9859    0.0320   28.7224 N.2     1  UNL1       -0.0597
     29 O         -26.2384    4.1888   30.7531 O.2     1  UNL1       -0.2961
     30 O         -27.3407   -0.2851   29.0247 O.2     1  UNL1       -0.2200
     31 C         -21.2427    1.4367   27.7834 C.2     1  UNL1        0.0310
     32 C         -27.0392    5.1973   33.3479 C.3     1  UNL1        0.0082
     33 C         -21.7817    0.5135   28.6716 C.3     1  UNL1        0.2896
     34 C         -21.8858    2.1336   26.7629 C.2     1  UNL1        0.0001
     35 N         -26.5760    1.8782   29.5153 N.am    1  UNL1       -0.0448
     36 C         -23.2459    2.0272   26.4100 C.2     1  UNL1        0.0073
     37 C         -25.9094    4.2533   33.1405 C.3     1  UNL1        0.0645
     38 C         -26.4294    0.5051   29.1845 C.2     1  UNL1        0.4346
     39 C         -24.3065    1.3409   27.0573 C.2     1  UNL1        0.0848
     40 N         -25.1963    0.0248   29.1561 N.am    1  UNL1       -0.1206
     41 C         -25.8750    3.6053   31.7749 C.2     1  UNL1        0.1507
     42 C         -24.1996    0.4325   28.2097 C.2     1  UNL1        0.3267
     43 C         -25.0873    2.2459   31.6754 C.3     1  UNL1        0.0661
@<TRIPOS>BOND
     1     1    40    1
     2     2     7    1
     3     2     1    1
     4     3     2    2
     5     4     3    1
     6     4     5    2
     7     5     6    1
     8     6     7    2
     9     8     1    1
    10     8     9    1
    11     8    12    1
    12     9    43    1
    13     9    10    1
    14    10    11    1
    15    12    11    1
    16    13    39    1
    17    14    13    1
    18    14    15    1
    19    15    18    2
    20    16    17    1
    21    16    15    1
    22    19    14    2
    23    20    21    2
    24    20    19    1
    25    21    26    1
    26    22    21    1
    27    23    22    1
    28    24    23    1
    29    24    25    1
    30    26    27    1
    31    26    13    2
    32    29    41    2
    33    30    38    2
    34    31    33    1
    35    33    28    1
    36    34    31    2
    37    36    34    1
    38    36    39    2
    39    37    32    1
    40    38    35    1
    41    39    42    1
    42    40    38   am
    43    41    37    1
    44    42    28    2
    45    42    40    1
    46    43    41    1
