@<TRIPOS>MOLECULE
No_662-gen_results/8p0m/2024-11-27-11-27-31/
 19 21 0 0 0
SMALL
GASTEIGER

@<TRIPOS>ATOM
      1 C         -28.0162   -0.8135   28.8779 C.ar    1  UNL1       -0.0039
      2 C         -28.4690   -0.7850   29.8287 C.ar    1  UNL1       -0.0003
      3 C         -26.5455   -0.8762   28.8500 C.ar    1  UNL1       -0.0177
      4 C         -25.6825   -0.7773   27.6829 C.3     1  UNL1        0.0526
      5 C         -27.9181   -1.0034   31.1877 C.ar    1  UNL1       -0.0000
      6 C         -26.5308   -1.0794   31.2463 C.ar    1  UNL1       -0.0003
      7 C         -25.7798   -1.0462   30.0905 C.ar    1  UNL1       -0.0021
      8 C         -25.2322    0.5793   27.3292 C.ar    1  UNL1       -0.0178
      9 C         -25.9027    1.5335   27.4253 C.ar    1  UNL1       -0.0039
     10 C         -25.3348    2.8671   27.0802 C.ar    1  UNL1       -0.0003
     11 C         -24.0033    2.9885   26.6466 C.ar    1  UNL1       -0.0000
     12 C         -23.2328    1.8380   26.6116 C.ar    1  UNL1       -0.0003
     13 C         -23.8065    0.5810   26.9916 C.ar    1  UNL1       -0.0039
     14 C         -24.3731   -1.1362   30.1670 C.ar    1  UNL1        0.0189
     15 C         -23.6182   -2.1016   29.7855 C.ar    1  UNL1        0.0988
     16 C         -23.7725   -0.5013   31.3861 C.ar    1  UNL1        0.0031
     17 C         -22.3727   -0.5425   31.5498 C.ar    1  UNL1        0.0207
     18 N         -22.2213   -2.0209   29.7923 N.ar    1  UNL1       -0.2423
     19 C         -21.6496   -1.2293   30.6663 C.ar    1  UNL1        0.0989
@<TRIPOS>BOND
     1     3     4    1
     2     4     8    1
     3     7    14    1
     4    14    15   ar
     5    15    18   ar
     6    18    19   ar
     7    19    17   ar
     8    17    16   ar
     9    16    14   ar
    10     8     9   ar
    11     9    10   ar
    12    10    11   ar
    13    11    12   ar
    14    12    13   ar
    15    13     8   ar
    16     1     2   ar
    17     2     5   ar
    18     5     6   ar
    19     6     7   ar
    20     7     3   ar
    21     3     1   ar
