@<TRIPOS>MOLECULE
outputs/IAG933/test6/raw/output_6623_IAG933_linker_design_.xyz
 42 46 0 0 0
SMALL
GASTEIGER

@<TRIPOS>ATOM
      1 C         -24.8550   -1.0120   30.1430 C.3     1  UNL1        0.0702
      2 C         -24.9730   -2.5050   29.7880 C.2     1  UNL1       -0.0184
      3 C         -23.9060   -3.1730   29.1460 C.2     1  UNL1       -0.0041
      4 C         -23.9890   -4.5490   28.8530 C.2     1  UNL1       -0.0003
      5 C         -25.1370   -5.2800   29.2050 C.2     1  UNL1       -0.0000
      6 C         -26.2320   -4.6110   29.7840 C.2     1  UNL1       -0.0003
      7 C         -26.1550   -3.2320   30.0650 C.2     1  UNL1       -0.0041
      8 C         -25.3870   -0.6790   31.5710 C.3     1  UNL1        0.0795
      9 C         -25.1890    0.7730   32.0280 C.3     1  UNL1        0.0193
     10 C         -25.3360    0.6840   33.5440 C.3     1  UNL1        0.0202
     11 C         -24.8290   -0.7150   33.9050 C.3     1  UNL1        0.0887
     12 N         -24.7580   -1.4810   32.6460 N.3     1  UNL1       -0.2190
     13 C         -25.6880    1.6140   26.4610 C.2     1  UNL1        0.0385
     14 C         -26.2500    2.9200   26.3950 C.2     1  UNL1        0.0766
     15 C         -25.6420    4.0930   27.1230 C.2     1  UNL1        0.2664
     16 N         -25.6140    5.2520   26.4490 N.am    1  UNL1       -0.1997
     17 C         -25.0260    6.4790   26.9630 C.3     1  UNL1        0.1388
     18 O         -25.1430    3.9660   28.2430 O.2     1  UNL1       -0.2683
     19 C         -27.4380    3.0910   25.6450 C.2     1  UNL1        0.1067
     20 N         -28.0750    2.0890   25.0030 N.2     1  UNL1       -0.2081
     21 C         -27.5430    0.8490   25.0790 C.2     1  UNL1        0.2533
     22 O         -28.1930   -0.2080   24.4770 O.2     1  UNL1       -0.4558
     23 C         -29.4600    0.0050   23.8660 C.3     1  UNL1        0.2426
     24 C         -30.0650   -1.3770   23.5730 C.3     1  UNL1        0.2292
     25 O         -30.7290   -1.8780   24.7210 O.3     1  UNL1       -0.2162
     26 C         -26.3540    0.5760   25.7770 C.2     1  UNL1        0.1931
     27 F         -25.8600   -0.6810   25.7950 F       1  UNL1       -0.1992
     28 C         -25.4678   -0.0584   29.0278 C.3     1  UNL1        0.1486
     29 C         -29.7623    2.7001   29.6327 C.3     1  UNL1        0.0001
     30 C         -24.4569    0.6593   28.2271 C.ar    1  UNL1        0.0362
     31 C         -23.2689    1.6157   26.6092 C.ar    1  UNL1        0.0676
     32 C         -22.9215    2.0751   25.3215 C.2     1  UNL1        0.2142
     33 S         -22.7999    0.6514   28.8566 S.2     1  UNL1       -0.0667
     34 C         -28.5259    1.8035   29.7538 C.3     1  UNL1        0.0026
     35 O         -21.5532    2.3093   25.4191 O.2     1  UNL1       -0.3497
     36 C         -30.2154    2.6592   28.1675 C.3     1  UNL1        0.0000
     37 O         -26.7925   -0.4254   28.6341 O.3     1  UNL1       -0.3510
     38 C         -27.8315   -0.6040   29.6872 C.3     1  UNL1        0.1425
     39 C         -24.5822    1.3538   27.1504 C.ar    1  UNL1        0.0120
     40 C         -22.3218    1.4269   27.4029 C.ar    1  UNL1        0.1523
     41 C         -28.9195    0.3787   29.4360 C.3     1  UNL1        0.0321
     42 N         -21.2576    1.9260   26.9195 N.2     1  UNL1       -0.0702
@<TRIPOS>BOND
     1     1    28    1
     2     2     7    1
     3     2     1    1
     4     3     2    2
     5     4     3    1
     6     4     5    2
     7     5     6    1
     8     6     7    2
     9     8     1    1
    10     8     9    1
    11     8    12    1
    12     9    10    1
    13    10    11    1
    14    12    11    1
    15    13    39    1
    16    14    13    1
    17    14    15    1
    18    15    18    2
    19    16    17    1
    20    16    15    1
    21    19    14    2
    22    20    21    2
    23    20    19    1
    24    21    26    1
    25    22    21    1
    26    23    22    1
    27    24    23    1
    28    24    25    1
    29    26    27    1
    30    26    13    2
    31    28    37    1
    32    29    34    1
    33    30    33   ar
    34    30    28    1
    35    31    39   ar
    36    31    40   ar
    37    32    35    1
    38    32    31    2
    39    35    42    1
    40    36    29    1
    41    37    38    1
    42    39    30   ar
    43    40    33   ar
    44    41    38    1
    45    41    34    1
    46    42    40    2
