@<TRIPOS>MOLECULE
outputs/IAG933/test6/raw/output_6628_IAG933_linker_design_.xyz
 46 52 0 0 0
SMALL
GASTEIGER

@<TRIPOS>ATOM
      1 C         -24.8550   -1.0120   30.1430 C.3     1  UNL1        0.0427
      2 C         -24.9730   -2.5050   29.7880 C.2     1  UNL1       -0.0208
      3 C         -23.9060   -3.1730   29.1460 C.2     1  UNL1       -0.0042
      4 C         -23.9890   -4.5490   28.8530 C.2     1  UNL1       -0.0003
      5 C         -25.1370   -5.2800   29.2050 C.2     1  UNL1       -0.0000
      6 C         -26.2320   -4.6110   29.7840 C.2     1  UNL1       -0.0003
      7 C         -26.1550   -3.2320   30.0650 C.2     1  UNL1       -0.0042
      8 C         -25.3870   -0.6790   31.5710 C.3     1  UNL1        0.0771
      9 C         -25.1890    0.7730   32.0280 C.3     1  UNL1        0.0192
     10 C         -25.3360    0.6840   33.5440 C.3     1  UNL1        0.0202
     11 C         -24.8290   -0.7150   33.9050 C.3     1  UNL1        0.0887
     12 N         -24.7580   -1.4810   32.6460 N.3     1  UNL1       -0.2191
     13 C         -25.6880    1.6140   26.4610 C.2     1  UNL1        0.0368
     14 C         -26.2500    2.9200   26.3950 C.2     1  UNL1        0.0763
     15 C         -25.6420    4.0930   27.1230 C.2     1  UNL1        0.2664
     16 N         -25.6140    5.2520   26.4490 N.am    1  UNL1       -0.1997
     17 C         -25.0260    6.4790   26.9630 C.3     1  UNL1        0.1388
     18 O         -25.1430    3.9660   28.2430 O.2     1  UNL1       -0.2683
     19 C         -27.4380    3.0910   25.6450 C.2     1  UNL1        0.1067
     20 N         -28.0750    2.0890   25.0030 N.2     1  UNL1       -0.2081
     21 C         -27.5430    0.8490   25.0790 C.2     1  UNL1        0.2533
     22 O         -28.1930   -0.2080   24.4770 O.2     1  UNL1       -0.4558
     23 C         -29.4600    0.0050   23.8660 C.3     1  UNL1        0.2426
     24 C         -30.0650   -1.3770   23.5730 C.3     1  UNL1        0.2292
     25 O         -30.7290   -1.8780   24.7210 O.3     1  UNL1       -0.2162
     26 C         -26.3540    0.5760   25.7770 C.2     1  UNL1        0.1928
     27 F         -25.8600   -0.6810   25.7950 F       1  UNL1       -0.1992
     28 C         -22.0122    2.0678   25.1897 C.3     1  UNL1        0.3610
     29 C         -22.1122    1.4562   27.4407 C.3     1  UNL1        0.1747
     30 C         -20.5315    1.0459   28.2230 C.3     1  UNL1        0.0347
     31 C         -27.6952   -0.2370   30.3117 C.2     1  UNL1       -0.0043
     32 C         -29.0712   -0.1657   30.2613 C.2     1  UNL1       -0.0003
     33 O         -23.2112    2.3249   25.6911 O.2     1  UNL1       -0.4502
     34 C         -23.1148    0.7071   29.0521 C.3     1  UNL1        0.0048
     35 C         -20.0516   -0.1863   27.4191 C.3     1  UNL1        0.0030
     36 C         -22.1001   -0.3470   29.5709 C.3     1  UNL1        0.0004
     37 C         -27.6038   -0.0007   27.9616 C.2     1  UNL1       -0.0043
     38 C         -25.4180   -0.1501   29.1337 C.3     1  UNL1        0.0318
     39 C         -21.1190   -0.5129   28.4500 C.3     1  UNL1        0.0029
     40 C         -24.3656    0.5800   28.5602 C.3     1  UNL1        0.0295
     41 C         -28.9970    0.1059   27.9313 C.2     1  UNL1       -0.0003
     42 C         -26.9134   -0.1547   29.1380 C.2     1  UNL1       -0.0218
     43 C         -29.7349   -0.0313   29.0816 C.2     1  UNL1       -0.0000
     44 O         -20.9992    1.5511   26.2307 O.3     1  UNL1       -0.3106
     45 C         -23.3007    1.7331   26.7582 C.2     1  UNL1        0.1420
     46 C         -24.4804    1.3321   27.3607 C.2     1  UNL1        0.0126
@<TRIPOS>BOND
     1     1    38    1
     2     2     7    1
     3     2     1    1
     4     3     2    2
     5     4     3    1
     6     4     5    2
     7     5     6    1
     8     6     7    2
     9     8     1    1
    10     8     9    1
    11     8    12    1
    12     9    10    1
    13    10    11    1
    14    12    11    1
    15    13    46    1
    16    14    13    1
    17    14    15    1
    18    15    18    2
    19    16    17    1
    20    16    15    1
    21    19    14    2
    22    20    21    2
    23    20    19    1
    24    21    26    1
    25    22    21    1
    26    23    22    1
    27    24    23    1
    28    24    25    1
    29    26    27    1
    30    26    13    2
    31    28    33    1
    32    28    44    1
    33    29    44    1
    34    29    30    1
    35    30    35    1
    36    30    39    1
    37    32    31    1
    38    33    45    1
    39    34    36    1
    40    37    42    1
    41    38    42    1
    42    39    35    1
    43    39    36    1
    44    40    34    1
    45    40    38    1
    46    41    37    2
    47    41    43    1
    48    42    31    2
    49    43    32    2
    50    45    46    2
    51    45    29    1
    52    46    40    1
