@<TRIPOS>MOLECULE
outputs/IAG933/test6/raw/output_6632_IAG933_linker_design_.xyz
 45 50 0 0 0
SMALL
GASTEIGER

@<TRIPOS>ATOM
      1 C         -24.8550   -1.0120   30.1430 C.3     1  UNL1        0.1124
      2 C         -24.9730   -2.5050   29.7880 C.2     1  UNL1       -0.0030
      3 C         -23.9060   -3.1730   29.1460 C.2     1  UNL1       -0.0026
      4 C         -23.9890   -4.5490   28.8530 C.2     1  UNL1       -0.0003
      5 C         -25.1370   -5.2800   29.2050 C.2     1  UNL1       -0.0000
      6 C         -26.2320   -4.6110   29.7840 C.2     1  UNL1       -0.0003
      7 C         -26.1550   -3.2320   30.0650 C.2     1  UNL1       -0.0026
      8 C         -25.3870   -0.6790   31.5710 C.3     1  UNL1        0.0951
      9 C         -25.1890    0.7730   32.0280 C.3     1  UNL1        0.0209
     10 C         -25.3360    0.6840   33.5440 C.3     1  UNL1        0.0203
     11 C         -24.8290   -0.7150   33.9050 C.3     1  UNL1        0.0888
     12 N         -24.7580   -1.4810   32.6460 N.3     1  UNL1       -0.2174
     13 C         -25.6880    1.6140   26.4610 C.3     1  UNL1        0.0946
     14 C         -26.2500    2.9200   26.3950 C.2     1  UNL1        0.0590
     15 C         -25.6420    4.0930   27.1230 C.2     1  UNL1        0.2628
     16 N         -25.6140    5.2520   26.4490 N.am    1  UNL1       -0.2000
     17 C         -25.0260    6.4790   26.9630 C.3     1  UNL1        0.1388
     18 O         -25.1430    3.9660   28.2430 O.2     1  UNL1       -0.2686
     19 C         -27.4380    3.0910   25.6450 C.2     1  UNL1        0.1025
     20 N         -28.0750    2.0890   25.0030 N.2     1  UNL1       -0.2118
     21 C         -27.5430    0.8490   25.0790 C.2     1  UNL1        0.2344
     22 O         -28.1930   -0.2080   24.4770 O.2     1  UNL1       -0.4585
     23 C         -29.4600    0.0050   23.8660 C.3     1  UNL1        0.2423
     24 C         -30.0650   -1.3770   23.5730 C.3     1  UNL1        0.2292
     25 O         -30.7290   -1.8780   24.7210 O.3     1  UNL1       -0.2162
     26 C         -26.3540    0.5760   25.7770 C.3     1  UNL1        0.2441
     27 F         -25.8600   -0.6810   25.7950 F       1  UNL1       -0.2265
     28 C         -24.8150    1.2011   27.3436 C.2     1  UNL1        0.0130
     29 C         -28.3680    0.0792   28.6607 C.3     1  UNL1        0.0233
     30 C         -29.3215    3.9115   29.3149 C.3     1  UNL1        0.0188
     31 N         -22.5439    1.1265   28.0910 N.pl3   1  UNL1       -0.2492
     32 C         -26.8050   -0.2326   28.2967 C.3     1  UNL1        0.0423
     33 C         -23.4599    1.3661   27.1583 C.2     1  UNL1        0.1131
     34 C         -27.8898    2.8835   30.9300 C.3     1  UNL1        0.0721
     35 F         -23.1460    1.7941   24.6996 F       1  UNL1       -0.1618
     36 C         -22.6989    1.6867   25.9405 C.2     1  UNL1        0.2980
     37 C         -28.7503    0.9642   29.9964 C.3     1  UNL1        0.0725
     38 C         -28.4596    2.8801   28.6004 C.3     1  UNL1        0.0721
     39 N         -27.8894    2.1371   29.7343 N.3     1  UNL1       -0.2727
     40 C         -23.0155    0.4371   29.3122 C.3     1  UNL1        0.1914
     41 C         -21.1614    1.5699   27.6732 C.3     1  UNL1        0.3088
     42 C         -28.8181    4.0289   30.7352 C.3     1  UNL1        0.0188
     43 C         -25.3122    0.4371   28.3195 C.2     1  UNL1        0.0241
     44 N         -24.4010    0.0759   29.2637 N.pl3   1  UNL1       -0.2906
     45 O         -21.3356    1.7503   26.2256 O.2     1  UNL1       -0.4310
@<TRIPOS>BOND
     1     1     2    1
     2     2     7    1
     3     3     2    2
     4     4     3    1
     5     4     5    2
     6     5     6    1
     7     6     7    2
     8     8     1    1
     9     8     9    1
    10     8    12    1
    11     9    10    1
    12    10    11    1
    13    12    11    1
    14    13    28    1
    15    14    13    1
    16    14    15    1
    17    15    18    2
    18    16    17    1
    19    16    15    1
    20    19    14    2
    21    20    21    2
    22    20    19    1
    23    21    26    1
    24    22    21    1
    25    23    22    1
    26    24    23    1
    27    24    25    1
    28    26    27    1
    29    26    13    1
    30    28    43    2
    31    29    37    1
    32    30    42    1
    33    31    40    1
    34    32    43    1
    35    32    29    1
    36    33    28    1
    37    33    31    1
    38    35    36    1
    39    36    45    1
    40    36    33    2
    41    38    30    1
    42    38    39    1
    43    39    37    1
    44    39    34    1
    45    41    31    1
    46    42    34    1
    47    43    44    1
    48    44    40    1
    49    44     1    1
    50    45    41    1
