@<TRIPOS>MOLECULE
outputs/IAG933/test6/raw/output_6640_IAG933_linker_design_.xyz
 43 47 0 0 0
SMALL
GASTEIGER

@<TRIPOS>ATOM
      1 C         -24.8550   -1.0120   30.1430 C.3     1  UNL1        0.1164
      2 C         -24.9730   -2.5050   29.7880 C.2     1  UNL1       -0.0028
      3 C         -23.9060   -3.1730   29.1460 C.2     1  UNL1       -0.0026
      4 C         -23.9890   -4.5490   28.8530 C.2     1  UNL1       -0.0003
      5 C         -25.1370   -5.2800   29.2050 C.2     1  UNL1       -0.0000
      6 C         -26.2320   -4.6110   29.7840 C.2     1  UNL1       -0.0003
      7 C         -26.1550   -3.2320   30.0650 C.2     1  UNL1       -0.0026
      8 C         -25.3870   -0.6790   31.5710 C.3     1  UNL1        0.0952
      9 C         -25.1890    0.7730   32.0280 C.3     1  UNL1        0.0209
     10 C         -25.3360    0.6840   33.5440 C.3     1  UNL1        0.0203
     11 C         -24.8290   -0.7150   33.9050 C.3     1  UNL1        0.0888
     12 N         -24.7580   -1.4810   32.6460 N.3     1  UNL1       -0.2174
     13 C         -25.6880    1.6140   26.4610 C.2     1  UNL1        0.0391
     14 C         -26.2500    2.9200   26.3950 C.2     1  UNL1        0.0722
     15 C         -25.6420    4.0930   27.1230 C.2     1  UNL1        0.2238
     16 N         -25.6140    5.2520   26.4490 N.2     1  UNL1       -0.2356
     17 C         -25.0260    6.4790   26.9630 C.3     1  UNL1        0.1550
     18 O         -25.1430    3.9660   28.2430 O.2     1  UNL1       -0.4358
     19 C         -27.4380    3.0910   25.6450 C.2     1  UNL1        0.1065
     20 N         -28.0750    2.0890   25.0030 N.2     1  UNL1       -0.2081
     21 C         -27.5430    0.8490   25.0790 C.2     1  UNL1        0.2530
     22 O         -28.1930   -0.2080   24.4770 O.2     1  UNL1       -0.4558
     23 C         -29.4600    0.0050   23.8660 C.3     1  UNL1        0.2426
     24 C         -30.0650   -1.3770   23.5730 C.3     1  UNL1        0.2292
     25 O         -30.7290   -1.8780   24.7210 O.3     1  UNL1       -0.2162
     26 C         -26.3540    0.5760   25.7770 C.2     1  UNL1        0.1908
     27 F         -25.8600   -0.6810   25.7950 F       1  UNL1       -0.1995
     28 O         -24.7867    2.1366   29.4671 O.3     1  UNL1       -0.3011
     29 C         -24.6179    1.4189   27.3521 C.3     1  UNL1        0.1622
     30 N         -25.9896    6.0619   31.8391 N.pl3   1  UNL1        0.1996
     31 C         -22.9139    0.2295   29.3050 C.2     1  UNL1        0.3058
     32 N         -22.0353    1.9607   25.0746 N.1     1  UNL1       -0.1737
     33 C         -26.0923    4.9710   30.9856 C.2     1  UNL1        0.4602
     34 C         -25.0296    4.0365   30.6158 C.3     1  UNL1        0.2095
     35 N         -24.2483   -0.0160   29.2649 N.am    1  UNL1       -0.2450
     36 C         -22.6550    1.7713   25.9967 C.1     1  UNL1        0.1773
     37 O         -21.0931    1.5975   28.2198 O.2     1  UNL1       -0.2639
     38 O         -22.0940   -0.2549   30.2061 O.2     1  UNL1       -0.2648
     39 N         -23.3107    1.5297   27.2232 N.am    1  UNL1       -0.1829
     40 C         -22.3957    1.2398   28.2230 C.2     1  UNL1        0.3152
     41 C         -25.0855    0.9687   28.7388 C.3     1  UNL1        0.2220
     42 N         -27.2835    4.7480   30.4098 N.pl3   1  UNL1        0.1996
     43 C         -25.0611    3.3005   29.3721 C.3     1  UNL1        0.3034
@<TRIPOS>BOND
     1     1     2    1
     2     2     7    1
     3     3     2    2
     4     4     3    1
     5     4     5    2
     6     5     6    1
     7     6     7    2
     8     8     1    1
     9     8     9    1
    10     8    12    1
    11     9    10    1
    12    10    11    1
    13    12    11    1
    14    14    13    1
    15    14    15    1
    16    15    18    1
    17    16    17    1
    18    16    15    2
    19    18    43    1
    20    19    14    2
    21    20    21    2
    22    20    19    1
    23    21    26    1
    24    22    21    1
    25    23    22    1
    26    24    23    1
    27    24    25    1
    28    26    27    1
    29    26    13    2
    30    29    13    1
    31    29    41    1
    32    31    38    2
    33    32    36    3
    34    33    30    1
    35    34    33    1
    36    35    31   am
    37    35     1    1
    38    36    39    1
    39    37    40    2
    40    39    29    1
    41    39    40   am
    42    40    31    1
    43    41    35    1
    44    41    28    1
    45    42    33    2
    46    43    28    1
    47    43    34    1
