@<TRIPOS>MOLECULE
outputs/IAG933/test6/raw/output_6642_IAG933_linker_design_.xyz
 43 47 0 0 0
SMALL
GASTEIGER

@<TRIPOS>ATOM
      1 C         -24.8550   -1.0120   30.1430 C.3     1  UNL1        0.0698
      2 C         -24.9730   -2.5050   29.7880 C.2     1  UNL1       -0.0184
      3 C         -23.9060   -3.1730   29.1460 C.2     1  UNL1       -0.0041
      4 C         -23.9890   -4.5490   28.8530 C.2     1  UNL1       -0.0003
      5 C         -25.1370   -5.2800   29.2050 C.2     1  UNL1       -0.0000
      6 C         -26.2320   -4.6110   29.7840 C.2     1  UNL1       -0.0003
      7 C         -26.1550   -3.2320   30.0650 C.2     1  UNL1       -0.0041
      8 C         -25.3870   -0.6790   31.5710 C.3     1  UNL1        0.0795
      9 C         -25.1890    0.7730   32.0280 C.3     1  UNL1        0.0193
     10 C         -25.3360    0.6840   33.5440 C.3     1  UNL1        0.0202
     11 C         -24.8290   -0.7150   33.9050 C.3     1  UNL1        0.0887
     12 N         -24.7580   -1.4810   32.6460 N.3     1  UNL1       -0.2190
     13 C         -25.6880    1.6140   26.4610 C.2     1  UNL1        0.0176
     14 C         -26.2500    2.9200   26.3950 C.2     1  UNL1        0.0726
     15 C         -25.6420    4.0930   27.1230 C.2     1  UNL1        0.2661
     16 N         -25.6140    5.2520   26.4490 N.am    1  UNL1       -0.1997
     17 C         -25.0260    6.4790   26.9630 C.3     1  UNL1        0.1388
     18 O         -25.1430    3.9660   28.2430 O.2     1  UNL1       -0.2683
     19 C         -27.4380    3.0910   25.6450 C.2     1  UNL1        0.1064
     20 N         -28.0750    2.0890   25.0030 N.2     1  UNL1       -0.2081
     21 C         -27.5430    0.8490   25.0790 C.2     1  UNL1        0.2530
     22 O         -28.1930   -0.2080   24.4770 O.2     1  UNL1       -0.4558
     23 C         -29.4600    0.0050   23.8660 C.3     1  UNL1        0.2426
     24 C         -30.0650   -1.3770   23.5730 C.3     1  UNL1        0.2292
     25 O         -30.7290   -1.8780   24.7210 O.3     1  UNL1       -0.2162
     26 C         -26.3540    0.5760   25.7770 C.2     1  UNL1        0.1892
     27 F         -25.8600   -0.6810   25.7950 F       1  UNL1       -0.1996
     28 C         -23.2809    2.0557   26.5479 C.3     1  UNL1        0.0272
     29 C         -22.0847    0.0368   29.4626 C.3     1  UNL1        0.0275
     30 C         -28.0770   -1.0521   28.1242 C.3     1  UNL1        0.1303
     31 C         -29.4690   -0.6438   28.5168 C.3     1  UNL1        0.2072
     32 C         -29.5098   -0.5255   29.9926 C.2     1  UNL1        0.2406
     33 N         -26.7196   -0.5770   28.4969 N.3     1  UNL1       -0.1997
     34 C         -22.9175    0.7444   28.5049 C.2     1  UNL1       -0.0312
     35 C         -24.4728    1.5129   27.0235 C.3     1  UNL1        0.0498
     36 F         -30.4623   -1.4726   28.2816 F       1  UNL1       -0.2305
     37 C         -25.4046   -0.1595   28.7401 C.3     1  UNL1        0.1402
     38 C         -22.1540    1.4899   27.3619 C.2     1  UNL1       -0.0332
     39 O         -29.1890   -1.5147   30.6016 O.2     1  UNL1       -0.2854
     40 C         -24.3572    0.7859   28.1577 C.3     1  UNL1        0.1071
     41 N         -24.9257    1.1233   29.4412 N.3     1  UNL1       -0.1989
     42 C         -29.7768    0.7450   27.9542 C.3     1  UNL1        0.0450
     43 C         -22.7766    2.3184   25.1619 C.3     1  UNL1        0.0051
@<TRIPOS>BOND
     1     1     2    1
     2     2     7    1
     3     3     2    2
     4     4     3    1
     5     4     5    2
     6     5     6    1
     7     6     7    2
     8     8     1    1
     9     8     9    1
    10     8    12    1
    11     9    10    1
    12    10    11    1
    13    12    11    1
    14    14    13    1
    15    14    15    1
    16    15    18    2
    17    16    17    1
    18    16    15    1
    19    19    14    2
    20    20    21    2
    21    20    19    1
    22    21    26    1
    23    22    21    1
    24    23    22    1
    25    24    23    1
    26    24    25    1
    27    26    27    1
    28    26    13    2
    29    28    43    1
    30    28    35    1
    31    28    38    1
    32    30    33    1
    33    30    31    1
    34    31    42    1
    35    31    32    1
    36    32    39    2
    37    34    29    1
    38    35    13    1
    39    35    40    1
    40    36    31    1
    41    37    33    1
    42    37    41    1
    43    37     1    1
    44    38    34    2
    45    40    34    1
    46    40    37    1
    47    40    41    1
