@<TRIPOS>MOLECULE
outputs/IAG933/test6/raw/output_6643_IAG933_linker_design_.xyz
 41 44 0 0 0
SMALL
GASTEIGER

@<TRIPOS>ATOM
      1 C         -24.8550   -1.0120   30.1430 C.3     1  UNL1        0.0581
      2 C         -24.9730   -2.5050   29.7880 C.2     1  UNL1       -0.0195
      3 C         -23.9060   -3.1730   29.1460 C.2     1  UNL1       -0.0042
      4 C         -23.9890   -4.5490   28.8530 C.2     1  UNL1       -0.0003
      5 C         -25.1370   -5.2800   29.2050 C.2     1  UNL1       -0.0000
      6 C         -26.2320   -4.6110   29.7840 C.2     1  UNL1       -0.0003
      7 C         -26.1550   -3.2320   30.0650 C.2     1  UNL1       -0.0042
      8 C         -25.3870   -0.6790   31.5710 C.3     1  UNL1        0.0785
      9 C         -25.1890    0.7730   32.0280 C.3     1  UNL1        0.0192
     10 C         -25.3360    0.6840   33.5440 C.3     1  UNL1        0.0202
     11 C         -24.8290   -0.7150   33.9050 C.3     1  UNL1        0.0887
     12 N         -24.7580   -1.4810   32.6460 N.3     1  UNL1       -0.2191
     13 C         -25.6880    1.6140   26.4610 C.3     1  UNL1        0.0893
     14 C         -26.2500    2.9200   26.3950 C.2     1  UNL1        0.0564
     15 C         -25.6420    4.0930   27.1230 C.2     1  UNL1        0.2625
     16 N         -25.6140    5.2520   26.4490 N.am    1  UNL1       -0.2000
     17 C         -25.0260    6.4790   26.9630 C.3     1  UNL1        0.1388
     18 O         -25.1430    3.9660   28.2430 O.2     1  UNL1       -0.2687
     19 C         -27.4380    3.0910   25.6450 C.2     1  UNL1        0.1022
     20 N         -28.0750    2.0890   25.0030 N.2     1  UNL1       -0.2119
     21 C         -27.5430    0.8490   25.0790 C.2     1  UNL1        0.2341
     22 O         -28.1930   -0.2080   24.4770 O.2     1  UNL1       -0.4585
     23 C         -29.4600    0.0050   23.8660 C.3     1  UNL1        0.2423
     24 C         -30.0650   -1.3770   23.5730 C.3     1  UNL1        0.2292
     25 O         -30.7290   -1.8780   24.7210 O.3     1  UNL1       -0.2162
     26 C         -26.3540    0.5760   25.7770 C.3     1  UNL1        0.2416
     27 F         -25.8600   -0.6810   25.7950 F       1  UNL1       -0.2268
     28 C         -25.2113   -0.1509   29.0070 C.3     1  UNL1        0.0991
     29 C         -27.8718    2.0819   29.7041 C.3     1  UNL1        0.0853
     30 O         -21.4318    1.7891   26.6321 O.3     1  UNL1       -0.4176
     31 C         -22.4263    0.7525   28.5145 C.2     1  UNL1        0.2224
     32 C         -27.1522    0.8343   29.1472 C.2     1  UNL1        0.2256
     33 C         -22.8367    1.8580   26.4108 C.2     1  UNL1        0.3304
     34 O         -22.4941    0.1572   29.6868 O.2     1  UNL1       -0.2873
     35 C         -21.1901    1.0944   27.9004 C.2     1  UNL1        0.2206
     36 N         -25.7743    1.0630   28.9421 N.am    1  UNL1       -0.2794
     37 C         -24.9927    1.3315   27.6695 C.3     1  UNL1        0.1007
     38 O         -27.7703   -0.1936   28.9026 O.2     1  UNL1       -0.2749
     39 O         -23.3580    2.5254   25.3757 O.2     1  UNL1       -0.2492
     40 C         -28.9556    1.8771   30.7415 C.3     1  UNL1        0.0101
     41 C         -23.4877    1.2679   27.5890 C.3     1  UNL1        0.1826
@<TRIPOS>BOND
     1     1    28    1
     2     2     7    1
     3     2     1    1
     4     3     2    2
     5     4     3    1
     6     4     5    2
     7     5     6    1
     8     6     7    2
     9     8     1    1
    10     8     9    1
    11     8    12    1
    12     9    10    1
    13    10    11    1
    14    12    11    1
    15    13    37    1
    16    14    13    1
    17    14    15    1
    18    15    18    2
    19    16    17    1
    20    16    15    1
    21    19    14    2
    22    20    21    2
    23    20    19    1
    24    21    26    1
    25    22    21    1
    26    23    22    1
    27    24    23    1
    28    24    25    1
    29    26    27    1
    30    26    13    1
    31    29    40    1
    32    30    35    1
    33    31    34    1
    34    32    29    1
    35    33    30    1
    36    33    41    1
    37    35    31    2
    38    36    28    1
    39    36    32   am
    40    37    36    1
    41    38    32    2
    42    39    33    2
    43    41    37    1
    44    41    31    1
