@<TRIPOS>MOLECULE
outputs/IAG933/test6/raw/output_6644_IAG933_linker_design_.xyz
 45 47 0 0 0
SMALL
GASTEIGER

@<TRIPOS>ATOM
      1 C         -24.8550   -1.0120   30.1430 C.3     1  UNL1        0.1533
      2 C         -24.9730   -2.5050   29.7880 C.2     1  UNL1        0.0059
      3 C         -23.9060   -3.1730   29.1460 C.2     1  UNL1       -0.0019
      4 C         -23.9890   -4.5490   28.8530 C.2     1  UNL1       -0.0002
      5 C         -25.1370   -5.2800   29.2050 C.2     1  UNL1       -0.0000
      6 C         -26.2320   -4.6110   29.7840 C.2     1  UNL1       -0.0002
      7 C         -26.1550   -3.2320   30.0650 C.2     1  UNL1       -0.0019
      8 C         -25.3870   -0.6790   31.5710 C.3     1  UNL1        0.1041
      9 C         -25.1890    0.7730   32.0280 C.3     1  UNL1        0.0217
     10 C         -25.3360    0.6840   33.5440 C.3     1  UNL1        0.0203
     11 C         -24.8290   -0.7150   33.9050 C.3     1  UNL1        0.0888
     12 N         -24.7580   -1.4810   32.6460 N.3     1  UNL1       -0.2166
     13 C         -25.6880    1.6140   26.4610 C.2     1  UNL1        0.0407
     14 C         -26.2500    2.9200   26.3950 C.2     1  UNL1        0.0748
     15 C         -25.6420    4.0930   27.1230 C.2     1  UNL1        0.2264
     16 N         -25.6140    5.2520   26.4490 N.2     1  UNL1       -0.2353
     17 C         -25.0260    6.4790   26.9630 C.3     1  UNL1        0.1550
     18 O         -25.1430    3.9660   28.2430 O.2     1  UNL1       -0.4409
     19 C         -27.4380    3.0910   25.6450 C.2     1  UNL1        0.1068
     20 N         -28.0750    2.0890   25.0030 N.2     1  UNL1       -0.2081
     21 C         -27.5430    0.8490   25.0790 C.2     1  UNL1        0.2533
     22 O         -28.1930   -0.2080   24.4770 O.2     1  UNL1       -0.4558
     23 C         -29.4600    0.0050   23.8660 C.3     1  UNL1        0.2426
     24 C         -30.0650   -1.3770   23.5730 C.3     1  UNL1        0.2292
     25 O         -30.7290   -1.8780   24.7210 O.3     1  UNL1       -0.2162
     26 C         -26.3540    0.5760   25.7770 C.2     1  UNL1        0.1931
     27 F         -25.8600   -0.6810   25.7950 F       1  UNL1       -0.1992
     28 O         -22.7882    2.5005   27.0635 O.co2   1  UNL1       -0.2452
     29 C         -26.7771    4.1958   30.3640 C.3     1  UNL1        0.1984
     30 C         -22.5257   -0.1750   29.5830 C.3     1  UNL1        0.1582
     31 C         -29.9475    3.7993   28.4214 C.3     1  UNL1        0.0965
     32 O         -29.0135    2.4337   30.1415 O.2     1  UNL1       -0.2733
     33 C         -23.2503    0.7295   28.6459 C.3     1  UNL1        0.1575
     34 O         -23.5008   -0.7603   30.3765 O.3     1  UNL1       -0.3495
     35 N         -26.8444    5.1503   31.3828 N.am    1  UNL1       -0.1650
     36 C         -28.8284    3.3979   29.3648 C.2     1  UNL1        0.2434
     37 O         -24.9592    5.0379   32.5527 O.2     1  UNL1       -0.2474
     38 O         -21.0882    1.3113   27.7701 O.co2   1  UNL1       -0.2452
     39 C         -24.9313    2.9296   29.2108 C.2     1  UNL1        0.1245
     40 C         -24.2179    1.5901   29.3298 C.2     1  UNL1        0.0204
     41 N         -25.7323    7.0505   31.9838 N.am    1  UNL1       -0.0678
     42 C         -22.4064    1.5678   27.7941 C.2     1  UNL1        0.3709
     43 C         -25.7977    5.7463   31.9892 C.2     1  UNL1        0.3605
     44 C         -25.6479    3.2422   30.3990 C.3     1  UNL1        0.1082
     45 N         -27.7813    4.1724   29.3524 N.am    1  UNL1       -0.1845
@<TRIPOS>BOND
     1     1    34    1
     2     2     7    1
     3     2     1    1
     4     3     2    2
     5     4     3    1
     6     4     5    2
     7     5     6    1
     8     6     7    2
     9     8     1    1
    10     8     9    1
    11     8    12    1
    12     9    10    1
    13    10    11    1
    14    12    11    1
    15    14    13    1
    16    14    15    1
    17    15    18    1
    18    16    17    1
    19    16    15    2
    20    18    39    1
    21    19    14    2
    22    20    21    2
    23    20    19    1
    24    21    26    1
    25    22    21    1
    26    23    22    1
    27    24    23    1
    28    24    25    1
    29    26    27    1
    30    26    13    2
    31    28    42   ar
    32    29    44    1
    33    29    35    1
    34    30    34    1
    35    31    36    1
    36    33    40    1
    37    33    30    1
    38    35    43    1
    39    36    32    2
    40    38    42   ar
    41    39    40    2
    42    39    44    1
    43    41    43    1
    44    42    33    1
    45    43    37    2
    46    45    36    1
    47    45    29    1
