@<TRIPOS>MOLECULE
outputs/IAG933/test6/raw/output_6649_IAG933_linker_design_.xyz
 47 50 0 0 0
SMALL
GASTEIGER

@<TRIPOS>ATOM
      1 C         -24.8550   -1.0120   30.1430 C.3     1  UNL1        0.0695
      2 C         -24.9730   -2.5050   29.7880 C.2     1  UNL1       -0.0186
      3 C         -23.9060   -3.1730   29.1460 C.2     1  UNL1       -0.0042
      4 C         -23.9890   -4.5490   28.8530 C.2     1  UNL1       -0.0003
      5 C         -25.1370   -5.2800   29.2050 C.2     1  UNL1       -0.0000
      6 C         -26.2320   -4.6110   29.7840 C.2     1  UNL1       -0.0003
      7 C         -26.1550   -3.2320   30.0650 C.2     1  UNL1       -0.0042
      8 C         -25.3870   -0.6790   31.5710 C.3     1  UNL1        0.0793
      9 C         -25.1890    0.7730   32.0280 C.3     1  UNL1        0.0193
     10 C         -25.3360    0.6840   33.5440 C.3     1  UNL1        0.0202
     11 C         -24.8290   -0.7150   33.9050 C.3     1  UNL1        0.0887
     12 N         -24.7580   -1.4810   32.6460 N.3     1  UNL1       -0.2190
     13 C         -25.6880    1.6140   26.4610 C.2     1  UNL1        0.0322
     14 C         -26.2500    2.9200   26.3950 C.2     1  UNL1        0.0739
     15 C         -25.6420    4.0930   27.1230 C.2     1  UNL1        0.2662
     16 N         -25.6140    5.2520   26.4490 N.am    1  UNL1       -0.1997
     17 C         -25.0260    6.4790   26.9630 C.3     1  UNL1        0.1388
     18 O         -25.1430    3.9660   28.2430 O.2     1  UNL1       -0.2683
     19 C         -27.4380    3.0910   25.6450 C.2     1  UNL1        0.1065
     20 N         -28.0750    2.0890   25.0030 N.2     1  UNL1       -0.2081
     21 C         -27.5430    0.8490   25.0790 C.2     1  UNL1        0.2530
     22 O         -28.1930   -0.2080   24.4770 O.2     1  UNL1       -0.4558
     23 C         -29.4600    0.0050   23.8660 C.3     1  UNL1        0.2426
     24 C         -30.0650   -1.3770   23.5730 C.3     1  UNL1        0.2292
     25 O         -30.7290   -1.8780   24.7210 O.3     1  UNL1       -0.2162
     26 C         -26.3540    0.5760   25.7770 C.2     1  UNL1        0.1904
     27 F         -25.8600   -0.6810   25.7950 F       1  UNL1       -0.1995
     28 O         -28.3554    2.3737   29.5612 O.2     1  UNL1       -0.2887
     29 O         -26.4065    0.2946   28.6034 O.3     1  UNL1       -0.3436
     30 C         -30.4326   -0.1249   27.8175 C.2     1  UNL1        0.0060
     31 C         -34.9325   -0.7227   28.0597 C.3     1  UNL1        0.2525
     32 C         -24.7864    1.4818   27.0666 C.3     1  UNL1        0.1087
     33 C         -31.1066    2.0797   28.5435 C.2     1  UNL1        0.0060
     34 N         -23.5612    1.3843   27.5953 N.3     1  UNL1       -0.1862
     35 C         -32.7718    0.4838   27.7012 C.2     1  UNL1        0.1387
     36 C         -30.1101    1.1046   28.4267 C.2     1  UNL1        0.0374
     37 C         -28.7117    1.2924   28.9927 C.2     1  UNL1        0.2028
     38 F         -22.6078    2.3922   25.8454 F       1  UNL1       -0.1791
     39 C         -23.7041    0.7666   28.9783 C.3     1  UNL1        0.2444
     40 C         -25.0341   -0.1264   28.9285 C.3     1  UNL1        0.1671
     41 C         -27.7874    0.0796   28.8825 C.3     1  UNL1        0.2108
     42 C         -22.4871    1.7791   26.9641 C.3     1  UNL1        0.3862
     43 C         -32.4381    1.7699   28.2053 C.2     1  UNL1        0.0370
     44 O         -22.4919    0.0988   29.4430 O.3     1  UNL1       -0.2021
     45 C         -31.7409   -0.4555   27.4599 C.2     1  UNL1        0.0370
     46 O         -34.0865    0.1965   27.3629 O.2     1  UNL1       -0.4714
     47 F         -21.3373    1.6691   27.4798 F       1  UNL1       -0.1791
@<TRIPOS>BOND
     1     1    40    1
     2     2     7    1
     3     2     1    1
     4     3     2    2
     5     4     3    1
     6     4     5    2
     7     5     6    1
     8     6     7    2
     9     8     1    1
    10     8     9    1
    11     8    12    1
    12     9    10    1
    13    10    11    1
    14    12    11    1
    15    13    32    1
    16    14    13    1
    17    14    15    1
    18    15    18    2
    19    16    17    1
    20    16    15    1
    21    19    14    2
    22    20    21    2
    23    20    19    1
    24    21    26    1
    25    22    21    1
    26    23    22    1
    27    24    23    1
    28    24    25    1
    29    26    27    1
    30    26    13    2
    31    29    41    1
    32    30    36    1
    33    32    34    1
    34    34    39    1
    35    35    43    2
    36    36    33    2
    37    36    37    1
    38    37    28    2
    39    38    42    1
    40    39    44    1
    41    40    29    1
    42    40    39    1
    43    41    37    1
    44    42    47    1
    45    42    34    1
    46    43    33    1
    47    45    35    1
    48    45    30    2
    49    46    35    1
    50    46    31    1
