@<TRIPOS>MOLECULE
outputs/IAG933/test6/raw/output_6657_IAG933_linker_design_.xyz
 40 43 0 0 0
SMALL
GASTEIGER

@<TRIPOS>ATOM
      1 C         -24.8550   -1.0120   30.1430 C.3     1  UNL1        0.1182
      2 C         -24.9730   -2.5050   29.7880 C.2     1  UNL1       -0.0026
      3 C         -23.9060   -3.1730   29.1460 C.2     1  UNL1       -0.0026
      4 C         -23.9890   -4.5490   28.8530 C.2     1  UNL1       -0.0003
      5 C         -25.1370   -5.2800   29.2050 C.2     1  UNL1       -0.0000
      6 C         -26.2320   -4.6110   29.7840 C.2     1  UNL1       -0.0003
      7 C         -26.1550   -3.2320   30.0650 C.2     1  UNL1       -0.0026
      8 C         -25.3870   -0.6790   31.5710 C.3     1  UNL1        0.0955
      9 C         -25.1890    0.7730   32.0280 C.3     1  UNL1        0.0209
     10 C         -25.3360    0.6840   33.5440 C.3     1  UNL1        0.0203
     11 C         -24.8290   -0.7150   33.9050 C.3     1  UNL1        0.0888
     12 N         -24.7580   -1.4810   32.6460 N.3     1  UNL1       -0.2174
     13 C         -25.6880    1.6140   26.4610 C.2     1  UNL1        0.0392
     14 C         -26.2500    2.9200   26.3950 C.2     1  UNL1        0.0766
     15 C         -25.6420    4.0930   27.1230 C.2     1  UNL1        0.2664
     16 N         -25.6140    5.2520   26.4490 N.am    1  UNL1       -0.1997
     17 C         -25.0260    6.4790   26.9630 C.3     1  UNL1        0.1388
     18 O         -25.1430    3.9660   28.2430 O.2     1  UNL1       -0.2683
     19 C         -27.4380    3.0910   25.6450 C.2     1  UNL1        0.1067
     20 N         -28.0750    2.0890   25.0030 N.2     1  UNL1       -0.2081
     21 C         -27.5430    0.8490   25.0790 C.2     1  UNL1        0.2533
     22 O         -28.1930   -0.2080   24.4770 O.2     1  UNL1       -0.4558
     23 C         -29.4600    0.0050   23.8660 C.3     1  UNL1        0.2426
     24 C         -30.0650   -1.3770   23.5730 C.3     1  UNL1        0.2292
     25 O         -30.7290   -1.8780   24.7210 O.3     1  UNL1       -0.2162
     26 C         -26.3540    0.5760   25.7770 C.2     1  UNL1        0.1931
     27 F         -25.8600   -0.6810   25.7950 F       1  UNL1       -0.1992
     28 O         -24.8104    2.5387   29.8485 O.3     1  UNL1       -0.2099
     29 C         -23.9953    0.6027   28.3969 C.2     1  UNL1        0.1098
     30 C         -26.0352    1.9479   29.4792 C.3     1  UNL1        0.2668
     31 C         -26.0999    0.5240   29.0243 C.2     1  UNL1        0.2633
     32 C         -22.6428    0.6216   28.8334 C.2     1  UNL1        0.2828
     33 O         -27.0340   -0.1301   28.5877 O.2     1  UNL1       -0.2717
     34 O         -22.3297    0.1190   29.9665 O.2     1  UNL1       -0.2666
     35 C         -23.7993    2.6319   25.4017 C.3     1  UNL1        0.0325
     36 N         -21.6639    1.1166   28.0634 N.am    1  UNL1       -0.1734
     37 C         -24.4094    1.3762   27.1146 C.2     1  UNL1        0.0181
     38 C         -21.9676    1.7446   26.9153 C.2     1  UNL1        0.0847
     39 C         -23.1831    1.8626   26.5291 C.2     1  UNL1       -0.0038
     40 N         -24.9149   -0.0003   29.1563 N.am    1  UNL1       -0.2489
@<TRIPOS>BOND
     1     1    40    1
     2     2     7    1
     3     2     1    1
     4     3     2    2
     5     4     3    1
     6     4     5    2
     7     5     6    1
     8     6     7    2
     9     8     1    1
    10     8     9    1
    11     8    12    1
    12     9    10    1
    13    10    11    1
    14    12    11    1
    15    13    37    1
    16    14    13    1
    17    14    15    1
    18    15    18    2
    19    16    17    1
    20    16    15    1
    21    19    14    2
    22    20    21    2
    23    20    19    1
    24    21    26    1
    25    22    21    1
    26    23    22    1
    27    24    23    1
    28    24    25    1
    29    26    27    1
    30    26    13    2
    31    29    32    1
    32    29    40    1
    33    30    28    1
    34    31    40   am
    35    31    30    1
    36    32    34    2
    37    33    31    2
    38    35    39    1
    39    36    32    1
    40    37    29    2
    41    38    36    1
    42    39    38    2
    43    39    37    1
