@<TRIPOS>MOLECULE
outputs/IAG933/test6/raw/output_666_IAG933_linker_design_.xyz
 42 46 0 0 0
SMALL
GASTEIGER

@<TRIPOS>ATOM
      1 C         -24.8550   -1.0120   30.1430 C.3     1  UNL1        0.1149
      2 C         -24.9730   -2.5050   29.7880 C.2     1  UNL1       -0.0029
      3 C         -23.9060   -3.1730   29.1460 C.2     1  UNL1       -0.0026
      4 C         -23.9890   -4.5490   28.8530 C.2     1  UNL1       -0.0003
      5 C         -25.1370   -5.2800   29.2050 C.2     1  UNL1       -0.0000
      6 C         -26.2320   -4.6110   29.7840 C.2     1  UNL1       -0.0003
      7 C         -26.1550   -3.2320   30.0650 C.2     1  UNL1       -0.0026
      8 C         -25.3870   -0.6790   31.5710 C.3     1  UNL1        0.0952
      9 C         -25.1890    0.7730   32.0280 C.3     1  UNL1        0.0209
     10 C         -25.3360    0.6840   33.5440 C.3     1  UNL1        0.0203
     11 C         -24.8290   -0.7150   33.9050 C.3     1  UNL1        0.0888
     12 N         -24.7580   -1.4810   32.6460 N.3     1  UNL1       -0.2174
     13 C         -25.6880    1.6140   26.4610 C.3     1  UNL1        0.1465
     14 C         -26.2500    2.9200   26.3950 C.2     1  UNL1        0.0732
     15 C         -25.6420    4.0930   27.1230 C.2     1  UNL1        0.2640
     16 N         -25.6140    5.2520   26.4490 N.am    1  UNL1       -0.1999
     17 C         -25.0260    6.4790   26.9630 C.3     1  UNL1        0.1388
     18 O         -25.1430    3.9660   28.2430 O.2     1  UNL1       -0.2686
     19 C         -27.4380    3.0910   25.6450 C.2     1  UNL1        0.1038
     20 N         -28.0750    2.0890   25.0030 N.2     1  UNL1       -0.2118
     21 C         -27.5430    0.8490   25.0790 C.2     1  UNL1        0.2358
     22 O         -28.1930   -0.2080   24.4770 O.2     1  UNL1       -0.4585
     23 C         -29.4600    0.0050   23.8660 C.3     1  UNL1        0.2423
     24 C         -30.0650   -1.3770   23.5730 C.3     1  UNL1        0.2292
     25 O         -30.7290   -1.8780   24.7210 O.3     1  UNL1       -0.2162
     26 C         -26.3540    0.5760   25.7770 C.3     1  UNL1        0.2581
     27 F         -25.8600   -0.6810   25.7950 F       1  UNL1       -0.2251
     28 C         -23.5170    0.3469   28.7587 C.2     1  UNL1        0.0645
     29 F         -23.7217    3.0065   25.3603 F       1  UNL1       -0.1658
     30 C         -27.9005   -0.4586   28.7793 C.3     1  UNL1        0.1778
     31 C         -22.6465    1.4706   26.8386 C.2     1  UNL1        0.0860
     32 F         -23.5499    0.8939   24.7476 F       1  UNL1       -0.1658
     33 F         -21.7556    2.1448   24.8247 F       1  UNL1       -0.1658
     34 C         -21.1468    0.6222   28.5128 C.2     1  UNL1        0.0013
     35 C         -22.2019    0.0774   29.2393 C.2     1  UNL1        0.0159
     36 C         -23.6748    1.0600   27.6747 C.2     1  UNL1        0.0684
     37 N         -25.0256    1.1206   27.6576 N.pl3   1  UNL1       -0.2629
     38 C         -21.3506    1.2599   27.2991 C.2     1  UNL1        0.0052
     39 C         -25.6990    0.5372   28.7039 C.3     1  UNL1        0.2802
     40 C         -22.9660    1.9294   25.4595 C.3     1  UNL1        0.4198
     41 N         -24.7295   -0.0115   29.1843 N.pl3   1  UNL1       -0.2650
     42 O         -26.9928    0.4506   29.4290 O.3     1  UNL1       -0.3193
@<TRIPOS>BOND
     1     1     2    1
     2     2     7    1
     3     3     2    2
     4     4     3    1
     5     4     5    2
     6     5     6    1
     7     6     7    2
     8     8     1    1
     9     8     9    1
    10     8    12    1
    11     9    10    1
    12    10    11    1
    13    12    11    1
    14    13    37    1
    15    14    13    1
    16    14    15    1
    17    15    18    2
    18    16    17    1
    19    16    15    1
    20    19    14    2
    21    20    21    2
    22    20    19    1
    23    21    26    1
    24    22    21    1
    25    23    22    1
    26    24    23    1
    27    24    25    1
    28    26    27    1
    29    26    13    1
    30    28    41    1
    31    28    35    1
    32    29    40    1
    33    30    42    1
    34    31    38    2
    35    31    36    1
    36    32    40    1
    37    33    40    1
    38    34    35    2
    39    36    28    2
    40    37    36    1
    41    37    39    1
    42    38    34    1
    43    39    41    1
    44    39    42    1
    45    40    31    1
    46    41     1    1
