@<TRIPOS>MOLECULE
outputs/IAG933/test6/raw/output_6663_IAG933_linker_design_.xyz
 45 49 0 0 0
SMALL
GASTEIGER

@<TRIPOS>ATOM
      1 C         -24.8550   -1.0120   30.1430 C.3     1  UNL1        0.1121
      2 C         -24.9730   -2.5050   29.7880 C.2     1  UNL1       -0.0030
      3 C         -23.9060   -3.1730   29.1460 C.2     1  UNL1       -0.0026
      4 C         -23.9890   -4.5490   28.8530 C.2     1  UNL1       -0.0003
      5 C         -25.1370   -5.2800   29.2050 C.2     1  UNL1       -0.0000
      6 C         -26.2320   -4.6110   29.7840 C.2     1  UNL1       -0.0003
      7 C         -26.1550   -3.2320   30.0650 C.2     1  UNL1       -0.0026
      8 C         -25.3870   -0.6790   31.5710 C.3     1  UNL1        0.0951
      9 C         -25.1890    0.7730   32.0280 C.3     1  UNL1        0.0209
     10 C         -25.3360    0.6840   33.5440 C.3     1  UNL1        0.0203
     11 C         -24.8290   -0.7150   33.9050 C.3     1  UNL1        0.0888
     12 N         -24.7580   -1.4810   32.6460 N.3     1  UNL1       -0.2174
     13 C         -25.6880    1.6140   26.4610 C.2     1  UNL1        0.0407
     14 C         -26.2500    2.9200   26.3950 C.2     1  UNL1        0.0744
     15 C         -25.6420    4.0930   27.1230 C.2     1  UNL1        0.2221
     16 N         -25.6140    5.2520   26.4490 N.2     1  UNL1       -0.2356
     17 C         -25.0260    6.4790   26.9630 C.3     1  UNL1        0.1550
     18 O         -25.1430    3.9660   28.2430 O.2     1  UNL1       -0.4591
     19 C         -27.4380    3.0910   25.6450 C.2     1  UNL1        0.1068
     20 N         -28.0750    2.0890   25.0030 N.2     1  UNL1       -0.2081
     21 C         -27.5430    0.8490   25.0790 C.2     1  UNL1        0.2533
     22 O         -28.1930   -0.2080   24.4770 O.2     1  UNL1       -0.4558
     23 C         -29.4600    0.0050   23.8660 C.3     1  UNL1        0.2426
     24 C         -30.0650   -1.3770   23.5730 C.3     1  UNL1        0.2292
     25 O         -30.7290   -1.8780   24.7210 O.3     1  UNL1       -0.2162
     26 C         -26.3540    0.5760   25.7770 C.2     1  UNL1        0.1931
     27 F         -25.8600   -0.6810   25.7950 F       1  UNL1       -0.1992
     28 O         -28.6849    2.4836   29.6733 O.3     1  UNL1       -0.3506
     29 C         -25.6515    3.2599   29.3354 C.3     1  UNL1        0.1972
     30 C         -25.9437    4.8624   31.1177 C.2     1  UNL1       -0.0162
     31 C         -28.0780    4.0427   29.8988 C.3     1  UNL1        0.1526
     32 C         -25.1208    2.1702   29.4565 C.2     1  UNL1        0.0328
     33 C         -26.6235    3.7357   30.3838 C.3     1  UNL1        0.0964
     34 C         -21.9782    0.5804   28.5205 C.1     1  UNL1       -0.0688
     35 C         -25.6318    6.1405   30.6260 C.2     1  UNL1       -0.0041
     36 N         -23.8535   -0.0717   29.6257 N.pl3   1  UNL1       -0.2922
     37 C         -25.5397    4.5026   32.3882 C.2     1  UNL1       -0.0041
     38 C         -22.6621   -0.3020   29.3030 C.3     1  UNL1        0.1687
     39 C         -24.5332    1.0086   28.8788 C.2     1  UNL1        0.0612
     40 C         -24.6851    5.3327   33.1261 C.2     1  UNL1       -0.0003
     41 C         -21.5284    2.0920   26.4921 C.3     1  UNL1        0.0900
     42 C         -24.7480    6.9902   31.3482 C.2     1  UNL1       -0.0003
     43 C         -29.0066    3.4442   28.9004 C.3     1  UNL1        0.1720
     44 C         -24.3170    6.5849   32.6222 C.2     1  UNL1       -0.0000
     45 C         -21.6326    1.3345   27.5545 C.1     1  UNL1       -0.0883
@<TRIPOS>BOND
     1     1    36    1
     2     2     7    1
     3     2     1    1
     4     3     2    2
     5     4     3    1
     6     4     5    2
     7     5     6    1
     8     6     7    2
     9     8     1    1
    10     8     9    1
    11     8    12    1
    12     9    10    1
    13    10    11    1
    14    12    11    1
    15    14    13    1
    16    14    15    1
    17    15    18    1
    18    16    17    1
    19    16    15    2
    20    18    29    1
    21    19    14    2
    22    20    21    2
    23    20    19    1
    24    21    26    1
    25    22    21    1
    26    23    22    1
    27    24    23    1
    28    24    25    1
    29    26    27    1
    30    26    13    2
    31    28    31    1
    32    29    32    1
    33    30    37    1
    34    31    33    1
    35    33    29    1
    36    33    30    1
    37    34    38    1
    38    35    30    2
    39    35    42    1
    40    37    40    2
    41    38    36    1
    42    39    32    2
    43    39    36    1
    44    41    45    1
    45    42    44    2
    46    43    28    1
    47    43    31    1
    48    44    40    1
    49    45    34    3
