@<TRIPOS>MOLECULE
outputs/IAG933/test6/raw/output_6664_IAG933_linker_design_.xyz
 45 48 0 0 0
SMALL
GASTEIGER

@<TRIPOS>ATOM
      1 C         -24.8550   -1.0120   30.1430 C.3     1  UNL1        0.0420
      2 C         -24.9730   -2.5050   29.7880 C.2     1  UNL1       -0.0210
      3 C         -23.9060   -3.1730   29.1460 C.2     1  UNL1       -0.0042
      4 C         -23.9890   -4.5490   28.8530 C.2     1  UNL1       -0.0003
      5 C         -25.1370   -5.2800   29.2050 C.2     1  UNL1       -0.0000
      6 C         -26.2320   -4.6110   29.7840 C.2     1  UNL1       -0.0003
      7 C         -26.1550   -3.2320   30.0650 C.2     1  UNL1       -0.0042
      8 C         -25.3870   -0.6790   31.5710 C.3     1  UNL1        0.0769
      9 C         -25.1890    0.7730   32.0280 C.3     1  UNL1        0.0192
     10 C         -25.3360    0.6840   33.5440 C.3     1  UNL1        0.0202
     11 C         -24.8290   -0.7150   33.9050 C.3     1  UNL1        0.0887
     12 N         -24.7580   -1.4810   32.6460 N.3     1  UNL1       -0.2191
     13 C         -25.6880    1.6140   26.4610 C.2     1  UNL1        0.0407
     14 C         -26.2500    2.9200   26.3950 C.2     1  UNL1        0.0744
     15 C         -25.6420    4.0930   27.1230 C.2     1  UNL1        0.2220
     16 N         -25.6140    5.2520   26.4490 N.2     1  UNL1       -0.2357
     17 C         -25.0260    6.4790   26.9630 C.3     1  UNL1        0.1550
     18 O         -25.1430    3.9660   28.2430 O.2     1  UNL1       -0.4576
     19 C         -27.4380    3.0910   25.6450 C.2     1  UNL1        0.1068
     20 N         -28.0750    2.0890   25.0030 N.2     1  UNL1       -0.2081
     21 C         -27.5430    0.8490   25.0790 C.2     1  UNL1        0.2533
     22 O         -28.1930   -0.2080   24.4770 O.2     1  UNL1       -0.4558
     23 C         -29.4600    0.0050   23.8660 C.3     1  UNL1        0.2426
     24 C         -30.0650   -1.3770   23.5730 C.3     1  UNL1        0.2292
     25 O         -30.7290   -1.8780   24.7210 O.3     1  UNL1       -0.2162
     26 C         -26.3540    0.5760   25.7770 C.2     1  UNL1        0.1931
     27 F         -25.8600   -0.6810   25.7950 F       1  UNL1       -0.1992
     28 C         -27.6446    4.1966   29.5668 C.3     1  UNL1        0.2513
     29 C         -24.7590    4.4402   33.4288 C.2     1  UNL1        0.0002
     30 C         -26.1497    4.4567   33.5223 C.2     1  UNL1        0.0031
     31 C         -28.6492    1.1550   29.5818 C.3     1  UNL1        0.1743
     32 C         -21.9719    1.7871   27.2435 C.3     1  UNL1        0.1212
     33 C         -25.3151    1.2031   28.8549 C.3     1  UNL1        0.1998
     34 C         -26.9259    4.8748   32.4603 C.2     1  UNL1        0.0369
     35 O         -24.0246    1.7651   28.6594 O.3     1  UNL1       -0.4496
     36 O         -22.1998    0.5318   29.2169 O.2     1  UNL1       -0.2501
     37 C         -25.7002   -0.3153   29.0769 C.3     1  UNL1        0.0521
     38 C         -26.3987    2.0036   29.1006 C.3     1  UNL1        0.1986
     39 O         -27.1224    5.3738   30.1385 O.2     1  UNL1       -0.4715
     40 C         -24.9487    5.3852   31.2274 C.2     1  UNL1        0.0369
     41 C         -22.8371    1.2154   28.4370 C.2     1  UNL1        0.3175
     42 O         -27.6782    1.5531   28.5912 O.3     1  UNL1       -0.3460
     43 C         -26.3395    5.2402   31.2572 C.2     1  UNL1        0.1387
     44 C         -24.1636    4.9867   32.3105 C.2     1  UNL1        0.0031
     45 C         -26.1857    3.4145   29.3562 C.3     1  UNL1        0.2412
@<TRIPOS>BOND
     1     1    37    1
     2     2     7    1
     3     2     1    1
     4     3     2    2
     5     4     3    1
     6     4     5    2
     7     5     6    1
     8     6     7    2
     9     8     1    1
    10     8     9    1
    11     8    12    1
    12     9    10    1
    13    10    11    1
    14    12    11    1
    15    14    13    1
    16    14    15    1
    17    15    18    1
    18    16    17    1
    19    16    15    2
    20    18    45    1
    21    19    14    2
    22    20    21    2
    23    20    19    1
    24    21    26    1
    25    22    21    1
    26    23    22    1
    27    24    23    1
    28    24    25    1
    29    26    27    1
    30    26    13    2
    31    28    39    1
    32    29    30    1
    33    32    41    1
    34    33    37    1
    35    33    38    1
    36    34    30    2
    37    35    33    1
    38    38    42    1
    39    38    45    1
    40    39    43    1
    41    40    43    2
    42    40    44    1
    43    41    35    1
    44    41    36    2
    45    42    31    1
    46    43    34    1
    47    44    29    2
    48    45    28    1
