@<TRIPOS>MOLECULE
outputs/IAG933/test6/raw/output_667_IAG933_linker_design_.xyz
 43 45 0 0 0
SMALL
GASTEIGER

@<TRIPOS>ATOM
      1 C         -24.8550   -1.0120   30.1430 C.3     1  UNL1        0.0437
      2 C         -24.9730   -2.5050   29.7880 C.2     1  UNL1       -0.0208
      3 C         -23.9060   -3.1730   29.1460 C.2     1  UNL1       -0.0042
      4 C         -23.9890   -4.5490   28.8530 C.2     1  UNL1       -0.0003
      5 C         -25.1370   -5.2800   29.2050 C.2     1  UNL1       -0.0000
      6 C         -26.2320   -4.6110   29.7840 C.2     1  UNL1       -0.0003
      7 C         -26.1550   -3.2320   30.0650 C.2     1  UNL1       -0.0042
      8 C         -25.3870   -0.6790   31.5710 C.3     1  UNL1        0.0772
      9 C         -25.1890    0.7730   32.0280 C.3     1  UNL1        0.0196
     10 C         -25.3360    0.6840   33.5440 C.3     1  UNL1        0.0203
     11 C         -24.8290   -0.7150   33.9050 C.3     1  UNL1        0.0887
     12 N         -24.7580   -1.4810   32.6460 N.3     1  UNL1       -0.2191
     13 C         -25.6880    1.6140   26.4610 C.2     1  UNL1        0.0303
     14 C         -26.2500    2.9200   26.3950 C.2     1  UNL1        0.0738
     15 C         -25.6420    4.0930   27.1230 C.2     1  UNL1        0.2662
     16 N         -25.6140    5.2520   26.4490 N.am    1  UNL1       -0.1997
     17 C         -25.0260    6.4790   26.9630 C.3     1  UNL1        0.1388
     18 O         -25.1430    3.9660   28.2430 O.2     1  UNL1       -0.2683
     19 C         -27.4380    3.0910   25.6450 C.2     1  UNL1        0.1065
     20 N         -28.0750    2.0890   25.0030 N.2     1  UNL1       -0.2081
     21 C         -27.5430    0.8490   25.0790 C.2     1  UNL1        0.2530
     22 O         -28.1930   -0.2080   24.4770 O.2     1  UNL1       -0.4558
     23 C         -29.4600    0.0050   23.8660 C.3     1  UNL1        0.2426
     24 C         -30.0650   -1.3770   23.5730 C.3     1  UNL1        0.2292
     25 O         -30.7290   -1.8780   24.7210 O.3     1  UNL1       -0.2162
     26 C         -26.3540    0.5760   25.7770 C.2     1  UNL1        0.1904
     27 F         -25.8600   -0.6810   25.7950 F       1  UNL1       -0.1995
     28 C         -24.1430    4.4509   32.9275 C.3     1  UNL1        0.0965
     29 N         -23.8766    1.7928   28.0403 N.3     1  UNL1       -0.2702
     30 C         -24.3602    5.8842   32.3771 C.3     1  UNL1        0.1512
     31 C         -22.6626    2.3386   25.4029 C.3     1  UNL1        0.0018
     32 S         -24.7945    8.8733   32.9774 S.3     1  UNL1       -0.0474
     33 O         -25.6939    6.2911   32.3771 O.3     1  UNL1       -0.3407
     34 C         -22.5899    1.5877   28.7172 C.3     1  UNL1        0.0724
     35 C         -21.4120    1.3038   27.7498 C.3     1  UNL1        0.0188
     36 C         -25.2796    1.6976   30.6615 C.3     1  UNL1        0.0247
     37 C         -26.0400    7.5103   32.9769 C.3     1  UNL1        0.2104
     38 C         -24.8527    1.3409   29.1192 C.3     1  UNL1        0.0728
     39 C         -23.4764    1.0389   25.5761 C.3     1  UNL1        0.0206
     40 C         -25.1459    3.5938   32.2049 C.2     1  UNL1        0.1532
     41 C         -24.3663    1.1538   26.9191 C.3     1  UNL1        0.0826
     42 C         -24.4692    3.0459   30.8964 C.3     1  UNL1        0.0660
     43 O         -26.2983    3.3541   32.6437 O.2     1  UNL1       -0.2960
@<TRIPOS>BOND
     1     2     7    1
     2     2     1    1
     3     3     2    2
     4     4     3    1
     5     4     5    2
     6     5     6    1
     7     6     7    2
     8     8     1    1
     9     8     9    1
    10     8    12    1
    11     9    36    1
    12     9    10    1
    13    10    11    1
    14    12    11    1
    15    13    41    1
    16    14    13    1
    17    14    15    1
    18    15    18    2
    19    16    17    1
    20    16    15    1
    21    19    14    2
    22    20    21    2
    23    20    19    1
    24    21    26    1
    25    22    21    1
    26    23    22    1
    27    24    23    1
    28    24    25    1
    29    26    27    1
    30    26    13    2
    31    29    34    1
    32    29    38    1
    33    30    28    1
    34    31    39    1
    35    33    30    1
    36    33    37    1
    37    35    34    1
    38    36    38    1
    39    36    42    1
    40    37    32    1
    41    40    43    2
    42    40    28    1
    43    41    39    1
    44    41    29    1
    45    42    40    1
