@<TRIPOS>MOLECULE
outputs/IAG933/test6/raw/output_6683_IAG933_linker_design_.xyz
 48 53 0 0 0
SMALL
GASTEIGER

@<TRIPOS>ATOM
      1 C         -24.8550   -1.0120   30.1430 C.3     1  UNL1        0.0670
      2 C         -24.9730   -2.5050   29.7880 C.2     1  UNL1       -0.0187
      3 C         -23.9060   -3.1730   29.1460 C.2     1  UNL1       -0.0041
      4 C         -23.9890   -4.5490   28.8530 C.2     1  UNL1       -0.0003
      5 C         -25.1370   -5.2800   29.2050 C.2     1  UNL1       -0.0000
      6 C         -26.2320   -4.6110   29.7840 C.2     1  UNL1       -0.0003
      7 C         -26.1550   -3.2320   30.0650 C.2     1  UNL1       -0.0041
      8 C         -25.3870   -0.6790   31.5710 C.3     1  UNL1        0.0793
      9 C         -25.1890    0.7730   32.0280 C.3     1  UNL1        0.0193
     10 C         -25.3360    0.6840   33.5440 C.3     1  UNL1        0.0202
     11 C         -24.8290   -0.7150   33.9050 C.3     1  UNL1        0.0887
     12 N         -24.7580   -1.4810   32.6460 N.3     1  UNL1       -0.2190
     13 C         -25.6880    1.6140   26.4610 C.2     1  UNL1        0.0407
     14 C         -26.2500    2.9200   26.3950 C.2     1  UNL1        0.0744
     15 C         -25.6420    4.0930   27.1230 C.2     1  UNL1        0.2222
     16 N         -25.6140    5.2520   26.4490 N.2     1  UNL1       -0.2356
     17 C         -25.0260    6.4790   26.9630 C.3     1  UNL1        0.1550
     18 O         -25.1430    3.9660   28.2430 O.2     1  UNL1       -0.4578
     19 C         -27.4380    3.0910   25.6450 C.2     1  UNL1        0.1068
     20 N         -28.0750    2.0890   25.0030 N.2     1  UNL1       -0.2081
     21 C         -27.5430    0.8490   25.0790 C.2     1  UNL1        0.2533
     22 O         -28.1930   -0.2080   24.4770 O.2     1  UNL1       -0.4558
     23 C         -29.4600    0.0050   23.8660 C.3     1  UNL1        0.2426
     24 C         -30.0650   -1.3770   23.5730 C.3     1  UNL1        0.2292
     25 O         -30.7290   -1.8780   24.7210 O.3     1  UNL1       -0.2162
     26 C         -26.3540    0.5760   25.7770 C.2     1  UNL1        0.1931
     27 F         -25.8600   -0.6810   25.7950 F       1  UNL1       -0.1992
     28 C         -26.0607    5.9515   31.6882 C.2     1  UNL1       -0.0397
     29 C         -29.7504    1.6635   27.9910 C.3     1  UNL1        0.0112
     30 C         -25.1287    2.4698   29.9063 C.3     1  UNL1        0.1457
     31 C         -27.3740    6.4282   31.7806 C.3     1  UNL1        0.0480
     32 C         -25.8737    3.4256   29.3835 C.3     1  UNL1        0.2093
     33 C         -30.1236    2.5579   29.1479 C.3     1  UNL1        0.0052
     34 C         -26.6858    3.9130   30.3022 C.2     1  UNL1        0.0144
     35 O         -22.2703    0.4520   28.3819 O.co2   1  UNL1       -0.2223
     36 C         -28.6426    0.7118   28.5459 C.3     1  UNL1        0.0495
     37 O         -22.9044    2.6070   28.0325 O.co2   1  UNL1       -0.2223
     38 S         -27.0937   -0.0874   28.3072 S.3     1  UNL1       -0.1215
     39 N         -24.5188    1.2695   29.0993 N.am    1  UNL1       -0.2312
     40 C         -25.8942    4.8345   31.0054 C.2     1  UNL1       -0.0092
     41 C         -23.1521    1.4530   28.4262 C.2     1  UNL1        0.4479
     42 C         -24.8501    6.6135   32.4698 C.3     1  UNL1        0.0267
     43 C         -28.9172    4.5355   31.2645 C.2     1  UNL1       -0.0087
     44 C         -25.4195   -0.1166   28.8674 C.3     1  UNL1        0.1321
     45 C         -28.9134    2.4466   30.0323 C.3     1  UNL1        0.0230
     46 C         -28.5951    5.7995   31.6281 C.2     1  UNL1       -0.0221
     47 C         -28.6585    1.0258   30.0512 C.3     1  UNL1        0.0152
     48 C         -28.1825    3.5909   30.5596 C.2     1  UNL1       -0.0234
@<TRIPOS>BOND
     1     1     2    1
     2     2     7    1
     3     3     2    2
     4     4     3    1
     5     4     5    2
     6     5     6    1
     7     6     7    2
     8     8     1    1
     9     8     9    1
    10     8    12    1
    11     9    10    1
    12    10    11    1
    13    12    11    1
    14    14    13    1
    15    14    15    1
    16    15    18    1
    17    16    17    1
    18    16    15    2
    19    19    14    2
    20    20    21    2
    21    20    19    1
    22    21    26    1
    23    22    21    1
    24    23    22    1
    25    24    23    1
    26    24    25    1
    27    26    27    1
    28    26    13    2
    29    28    31    1
    30    28    42    1
    31    29    33    1
    32    32    18    1
    33    32    30    1
    34    32    34    1
    35    34    48    2
    36    34    40    1
    37    35    41   ar
    38    36    29    1
    39    36    47    1
    40    37    41   ar
    41    38    36    1
    42    38    44    1
    43    39    30    1
    44    40    28    2
    45    41    39   am
    46    43    46    2
    47    44    39    1
    48    44     1    1
    49    45    33    1
    50    45    47    1
    51    45    48    1
    52    46    31    1
    53    48    43    1
