@<TRIPOS>MOLECULE
outputs/IAG933/test6/raw/output_6685_IAG933_linker_design_.xyz
 44 46 0 0 0
SMALL
GASTEIGER

@<TRIPOS>ATOM
      1 C         -24.8550   -1.0120   30.1430 C.3     1  UNL1        0.0543
      2 C         -24.9730   -2.5050   29.7880 C.2     1  UNL1       -0.0198
      3 C         -23.9060   -3.1730   29.1460 C.2     1  UNL1       -0.0042
      4 C         -23.9890   -4.5490   28.8530 C.2     1  UNL1       -0.0003
      5 C         -25.1370   -5.2800   29.2050 C.2     1  UNL1       -0.0000
      6 C         -26.2320   -4.6110   29.7840 C.2     1  UNL1       -0.0003
      7 C         -26.1550   -3.2320   30.0650 C.2     1  UNL1       -0.0042
      8 C         -25.3870   -0.6790   31.5710 C.3     1  UNL1        0.0782
      9 C         -25.1890    0.7730   32.0280 C.3     1  UNL1        0.0192
     10 C         -25.3360    0.6840   33.5440 C.3     1  UNL1        0.0202
     11 C         -24.8290   -0.7150   33.9050 C.3     1  UNL1        0.0887
     12 N         -24.7580   -1.4810   32.6460 N.3     1  UNL1       -0.2191
     13 C         -25.6880    1.6140   26.4610 C.3     1  UNL1        0.0877
     14 C         -26.2500    2.9200   26.3950 C.2     1  UNL1        0.0562
     15 C         -25.6420    4.0930   27.1230 C.2     1  UNL1        0.2625
     16 N         -25.6140    5.2520   26.4490 N.am    1  UNL1       -0.2000
     17 C         -25.0260    6.4790   26.9630 C.3     1  UNL1        0.1388
     18 O         -25.1430    3.9660   28.2430 O.2     1  UNL1       -0.2687
     19 C         -27.4380    3.0910   25.6450 C.2     1  UNL1        0.1022
     20 N         -28.0750    2.0890   25.0030 N.2     1  UNL1       -0.2119
     21 C         -27.5430    0.8490   25.0790 C.2     1  UNL1        0.2341
     22 O         -28.1930   -0.2080   24.4770 O.2     1  UNL1       -0.4585
     23 C         -29.4600    0.0050   23.8660 C.3     1  UNL1        0.2423
     24 C         -30.0650   -1.3770   23.5730 C.3     1  UNL1        0.2292
     25 O         -30.7290   -1.8780   24.7210 O.3     1  UNL1       -0.2162
     26 C         -26.3540    0.5760   25.7770 C.3     1  UNL1        0.2414
     27 F         -25.8600   -0.6810   25.7950 F       1  UNL1       -0.2268
     28 C         -24.8362    1.2782   27.5428 C.3     1  UNL1        0.1049
     29 N         -25.5206    0.9993   28.7203 N.3     1  UNL1       -0.2184
     30 O         -20.9205    1.7336   27.7587 O.2     1  UNL1       -0.2489
     31 C         -31.5246    3.8030   30.8913 C.1     1  UNL1        0.1884
     32 C         -27.5157   -0.4177   29.0539 C.3     1  UNL1        0.0178
     33 C         -22.4604   -0.3799   29.8924 C.3     1  UNL1        0.2556
     34 N         -32.4041    4.2064   31.6465 N.1     1  UNL1       -0.1726
     35 O         -22.9246    0.8241   29.3603 O.3     1  UNL1       -0.4436
     36 C         -28.0585    0.8995   29.6583 C.3     1  UNL1        0.0033
     37 C         -22.9152    2.2260   25.9968 C.1     1  UNL1        0.0850
     38 N         -30.5912    3.4189   30.0820 N.pl3   1  UNL1       -0.1665
     39 C         -29.4383    1.3374   29.2032 C.3     1  UNL1        0.0243
     40 C         -22.2090    1.0445   28.1161 C.2     1  UNL1        0.3325
     41 C         -25.9299   -0.4048   29.1043 C.3     1  UNL1        0.0781
     42 C         -29.8813    2.2708   30.3344 C.3     1  UNL1        0.1246
     43 C         -23.3765    1.4897   27.2011 C.3     1  UNL1        0.2058
     44 N         -22.5145    2.9197   25.1135 N.1     1  UNL1       -0.1953
@<TRIPOS>BOND
     1     1    41    1
     2     2     7    1
     3     2     1    1
     4     3     2    2
     5     4     3    1
     6     4     5    2
     7     5     6    1
     8     6     7    2
     9     8     1    1
    10     8     9    1
    11     8    12    1
    12     9    10    1
    13    10    11    1
    14    12    11    1
    15    13    28    1
    16    14    13    1
    17    14    15    1
    18    15    18    2
    19    16    17    1
    20    16    15    1
    21    19    14    2
    22    20    21    2
    23    20    19    1
    24    21    26    1
    25    22    21    1
    26    23    22    1
    27    24    23    1
    28    24    25    1
    29    26    27    1
    30    26    13    1
    31    28    29    1
    32    29    41    1
    33    30    40    2
    34    31    34    3
    35    32    36    1
    36    35    33    1
    37    38    42    1
    38    38    31    1
    39    39    36    1
    40    39    42    1
    41    40    35    1
    42    41    32    1
    43    43    37    1
    44    43    28    1
    45    43    40    1
    46    44    37    3
