@<TRIPOS>MOLECULE
outputs/IAG933/test6/raw/output_6698_IAG933_linker_design_.xyz
 46 50 0 0 0
SMALL
GASTEIGER

@<TRIPOS>ATOM
      1 C         -24.8550   -1.0120   30.1430 C.3     1  UNL1        0.0698
      2 C         -24.9730   -2.5050   29.7880 C.2     1  UNL1       -0.0184
      3 C         -23.9060   -3.1730   29.1460 C.2     1  UNL1       -0.0041
      4 C         -23.9890   -4.5490   28.8530 C.2     1  UNL1       -0.0003
      5 C         -25.1370   -5.2800   29.2050 C.2     1  UNL1       -0.0000
      6 C         -26.2320   -4.6110   29.7840 C.2     1  UNL1       -0.0003
      7 C         -26.1550   -3.2320   30.0650 C.2     1  UNL1       -0.0041
      8 C         -25.3870   -0.6790   31.5710 C.3     1  UNL1        0.0795
      9 C         -25.1890    0.7730   32.0280 C.3     1  UNL1        0.0193
     10 C         -25.3360    0.6840   33.5440 C.3     1  UNL1        0.0202
     11 C         -24.8290   -0.7150   33.9050 C.3     1  UNL1        0.0887
     12 N         -24.7580   -1.4810   32.6460 N.3     1  UNL1       -0.2190
     13 C         -25.6880    1.6140   26.4610 C.3     1  UNL1        0.0917
     14 C         -26.2500    2.9200   26.3950 C.2     1  UNL1        0.0587
     15 C         -25.6420    4.0930   27.1230 C.2     1  UNL1        0.2627
     16 N         -25.6140    5.2520   26.4490 N.am    1  UNL1       -0.2000
     17 C         -25.0260    6.4790   26.9630 C.3     1  UNL1        0.1388
     18 O         -25.1430    3.9660   28.2430 O.2     1  UNL1       -0.2686
     19 C         -27.4380    3.0910   25.6450 C.2     1  UNL1        0.1025
     20 N         -28.0750    2.0890   25.0030 N.2     1  UNL1       -0.2118
     21 C         -27.5430    0.8490   25.0790 C.2     1  UNL1        0.2344
     22 O         -28.1930   -0.2080   24.4770 O.2     1  UNL1       -0.4585
     23 C         -29.4600    0.0050   23.8660 C.3     1  UNL1        0.2423
     24 C         -30.0650   -1.3770   23.5730 C.3     1  UNL1        0.2292
     25 O         -30.7290   -1.8780   24.7210 O.3     1  UNL1       -0.2162
     26 C         -26.3540    0.5760   25.7770 C.3     1  UNL1        0.2438
     27 F         -25.8600   -0.6810   25.7950 F       1  UNL1       -0.2265
     28 F         -20.6657    1.3656   27.7046 F       1  UNL1       -0.1608
     29 C         -24.4992    1.3460   26.7720 C.2     1  UNL1        0.0068
     30 C         -30.7725    1.7474   27.6248 C.3     1  UNL1        0.0216
     31 C         -30.2599    2.2851   30.2023 C.3     1  UNL1        0.1148
     32 C         -27.8045   -0.6303   28.8384 C.3     1  UNL1        0.1263
     33 C         -23.5504    1.8071   25.8855 C.3     1  UNL1        0.2305
     34 C         -24.2217    0.6828   28.0180 C.2     1  UNL1        0.0338
     35 C         -25.0786   -0.1420   28.9341 C.3     1  UNL1        0.1445
     36 O         -27.0772    1.8708   29.6826 O.2     1  UNL1       -0.2748
     37 C         -22.9118    0.7520   28.3607 C.2     1  UNL1        0.2008
     38 O         -26.5409   -0.1744   28.4103 O.3     1  UNL1       -0.3533
     39 F         -22.4591    0.2945   29.5252 F       1  UNL1       -0.1987
     40 C         -28.7602   -0.1959   27.7370 C.3     1  UNL1        0.0499
     41 C         -21.9373    1.3311   27.4306 C.2     1  UNL1        0.3111
     42 C         -28.3077   -0.1893   30.2197 C.3     1  UNL1        0.1148
     43 O         -22.2333    1.8429   26.2292 O.2     1  UNL1       -0.4474
     44 C         -28.1664    1.3048   29.8302 C.2     1  UNL1        0.2281
     45 N         -29.2553    1.8683   29.1784 N.am    1  UNL1       -0.2793
     46 C         -29.8097    0.7887   28.2509 C.3     1  UNL1        0.0779
@<TRIPOS>BOND
     1     1    35    1
     2     2     7    1
     3     2     1    1
     4     3     2    2
     5     4     3    1
     6     4     5    2
     7     5     6    1
     8     6     7    2
     9     8     1    1
    10     8     9    1
    11     8    12    1
    12     9    10    1
    13    10    11    1
    14    12    11    1
    15    13    29    1
    16    14    13    1
    17    14    15    1
    18    15    18    2
    19    16    17    1
    20    16    15    1
    21    19    14    2
    22    20    21    2
    23    20    19    1
    24    21    26    1
    25    22    21    1
    26    23    22    1
    27    24    23    1
    28    24    25    1
    29    26    27    1
    30    26    13    1
    31    29    34    2
    32    32    38    1
    33    32    42    1
    34    33    43    1
    35    33    29    1
    36    34    37    1
    37    34    35    1
    38    35    38    1
    39    36    44    2
    40    37    39    1
    41    40    46    1
    42    40    32    1
    43    41    28    1
    44    41    37    2
    45    43    41    1
    46    44    42    1
    47    45    44   am
    48    45    31    1
    49    46    30    1
    50    46    45    1
