@<TRIPOS>MOLECULE
outputs/IAG933/test6/raw/output_6702_IAG933_linker_design_.xyz
 42 47 0 0 0
SMALL
GASTEIGER

@<TRIPOS>ATOM
      1 C         -24.8550   -1.0120   30.1430 C.3     1  UNL1        0.1178
      2 C         -24.9730   -2.5050   29.7880 C.2     1  UNL1       -0.0123
      3 C         -23.9060   -3.1730   29.1460 C.2     1  UNL1       -0.0038
      4 C         -23.9890   -4.5490   28.8530 C.2     1  UNL1       -0.0003
      5 C         -25.1370   -5.2800   29.2050 C.2     1  UNL1       -0.0000
      6 C         -26.2320   -4.6110   29.7840 C.2     1  UNL1       -0.0003
      7 C         -26.1550   -3.2320   30.0650 C.2     1  UNL1       -0.0038
      8 C         -25.3870   -0.6790   31.5710 C.3     1  UNL1        0.0857
      9 C         -25.1890    0.7730   32.0280 C.3     1  UNL1        0.0197
     10 C         -25.3360    0.6840   33.5440 C.3     1  UNL1        0.0203
     11 C         -24.8290   -0.7150   33.9050 C.3     1  UNL1        0.0887
     12 N         -24.7580   -1.4810   32.6460 N.3     1  UNL1       -0.2186
     13 C         -25.6880    1.6140   26.4610 C.2     1  UNL1        0.0545
     14 C         -26.2500    2.9200   26.3950 C.2     1  UNL1        0.0779
     15 C         -25.6420    4.0930   27.1230 C.2     1  UNL1        0.2665
     16 N         -25.6140    5.2520   26.4490 N.am    1  UNL1       -0.1997
     17 C         -25.0260    6.4790   26.9630 C.3     1  UNL1        0.1388
     18 O         -25.1430    3.9660   28.2430 O.2     1  UNL1       -0.2683
     19 C         -27.4380    3.0910   25.6450 C.2     1  UNL1        0.1068
     20 N         -28.0750    2.0890   25.0030 N.2     1  UNL1       -0.2081
     21 C         -27.5430    0.8490   25.0790 C.2     1  UNL1        0.2533
     22 O         -28.1930   -0.2080   24.4770 O.2     1  UNL1       -0.4558
     23 C         -29.4600    0.0050   23.8660 C.3     1  UNL1        0.2426
     24 C         -30.0650   -1.3770   23.5730 C.3     1  UNL1        0.2292
     25 O         -30.7290   -1.8780   24.7210 O.3     1  UNL1       -0.2162
     26 C         -26.3540    0.5760   25.7770 C.2     1  UNL1        0.1944
     27 F         -25.8600   -0.6810   25.7950 F       1  UNL1       -0.1992
     28 C         -25.4068   -0.0981   29.0430 C.2     1  UNL1        0.2460
     29 O         -23.2042    2.9254   24.7912 O.2     1  UNL1       -0.2417
     30 C         -22.5960    2.4266   25.7600 C.2     1  UNL1        0.3760
     31 O         -21.2674    2.4643   25.8529 O.3     1  UNL1       -0.2906
     32 C         -23.1621    0.3941   28.6404 C.ar    1  UNL1        0.0425
     33 O         -20.6315    2.0974   27.0777 O.3     1  UNL1       -0.1675
     34 O         -26.6684   -0.0871   28.9802 O.2     1  UNL1       -0.2712
     35 C         -24.4883    1.3476   27.1564 C.ar    1  UNL1        0.0748
     36 C         -22.4319    1.1888   27.7723 C.ar    1  UNL1        0.0286
     37 N         -24.4001    0.5686   28.2438 N.ar    1  UNL1       -0.2814
     38 C         -21.1672    1.1563   27.9051 C.3     1  UNL1        0.1881
     39 C         -22.2496   -0.2596   29.6472 C.3     1  UNL1        0.0441
     40 C         -20.2020    0.1963   28.5172 C.3     1  UNL1        0.0390
     41 C         -23.2166    1.6998   26.8675 C.ar    1  UNL1        0.0943
     42 C         -21.0129   -0.6970   29.2680 C.3     1  UNL1        0.0092
@<TRIPOS>BOND
     1     1    28    1
     2     2     7    1
     3     2     1    1
     4     3     2    2
     5     4     3    1
     6     4     5    2
     7     5     6    1
     8     6     7    2
     9     8     1    1
    10     8     9    1
    11     8    12    1
    12     9    10    1
    13    10    11    1
    14    12    11    1
    15    13    35    1
    16    14    13    1
    17    14    15    1
    18    15    18    2
    19    16    17    1
    20    16    15    1
    21    19    14    2
    22    20    21    2
    23    20    19    1
    24    21    26    1
    25    22    21    1
    26    23    22    1
    27    24    23    1
    28    24    25    1
    29    26    27    1
    30    26    13    2
    31    29    30    2
    32    30    31    1
    33    30    41    1
    34    31    33    1
    35    32    39    1
    36    33    38    1
    37    34    28    2
    38    35    37   ar
    39    36    38    1
    40    36    32   ar
    41    37    32   ar
    42    37    28   am
    43    38    40    1
    44    40    42    1
    45    41    35   ar
    46    41    36   ar
    47    42    39    1
