@<TRIPOS>MOLECULE
outputs/IAG933/test6/raw/output_6703_IAG933_linker_design_.xyz
 43 47 0 0 0
SMALL
GASTEIGER

@<TRIPOS>ATOM
      1 C         -24.8550   -1.0120   30.1430 C.3     1  UNL1        0.0389
      2 C         -24.9730   -2.5050   29.7880 C.2     1  UNL1       -0.0211
      3 C         -23.9060   -3.1730   29.1460 C.2     1  UNL1       -0.0042
      4 C         -23.9890   -4.5490   28.8530 C.2     1  UNL1       -0.0003
      5 C         -25.1370   -5.2800   29.2050 C.2     1  UNL1       -0.0000
      6 C         -26.2320   -4.6110   29.7840 C.2     1  UNL1       -0.0003
      7 C         -26.1550   -3.2320   30.0650 C.2     1  UNL1       -0.0042
      8 C         -25.3870   -0.6790   31.5710 C.3     1  UNL1        0.0768
      9 C         -25.1890    0.7730   32.0280 C.3     1  UNL1        0.0192
     10 C         -25.3360    0.6840   33.5440 C.3     1  UNL1        0.0202
     11 C         -24.8290   -0.7150   33.9050 C.3     1  UNL1        0.0887
     12 N         -24.7580   -1.4810   32.6460 N.3     1  UNL1       -0.2191
     13 C         -25.6880    1.6140   26.4610 C.3     1  UNL1        0.0729
     14 C         -26.2500    2.9200   26.3950 C.2     1  UNL1        0.0549
     15 C         -25.6420    4.0930   27.1230 C.2     1  UNL1        0.2624
     16 N         -25.6140    5.2520   26.4490 N.am    1  UNL1       -0.2000
     17 C         -25.0260    6.4790   26.9630 C.3     1  UNL1        0.1388
     18 O         -25.1430    3.9660   28.2430 O.2     1  UNL1       -0.2687
     19 C         -27.4380    3.0910   25.6450 C.2     1  UNL1        0.1021
     20 N         -28.0750    2.0890   25.0030 N.2     1  UNL1       -0.2119
     21 C         -27.5430    0.8490   25.0790 C.2     1  UNL1        0.2341
     22 O         -28.1930   -0.2080   24.4770 O.2     1  UNL1       -0.4585
     23 C         -29.4600    0.0050   23.8660 C.3     1  UNL1        0.2423
     24 C         -30.0650   -1.3770   23.5730 C.3     1  UNL1        0.2292
     25 O         -30.7290   -1.8780   24.7210 O.3     1  UNL1       -0.2162
     26 C         -26.3540    0.5760   25.7770 C.3     1  UNL1        0.2401
     27 F         -25.8600   -0.6810   25.7950 F       1  UNL1       -0.2269
     28 N         -27.8751    1.3888   29.3272 N.am    1  UNL1       -0.1801
     29 C         -27.2207    0.3396   28.8451 C.2     1  UNL1        0.2450
     30 C         -23.0636    2.1087   25.8962 C.3     1  UNL1        0.0321
     31 C         -29.3215    1.3638   29.1875 C.2     1  UNL1        0.0915
     32 C         -24.8341   -0.4406   28.6941 C.3     1  UNL1        0.0173
     33 C         -29.0907    3.8760   29.4812 C.3     1  UNL1        0.0381
     34 C         -23.4624    1.3312   27.0606 C.3     1  UNL1        0.1161
     35 C         -21.1873    1.7211   27.7364 C.3     1  UNL1        0.1740
     36 O         -30.9481    2.9188   28.1583 O.3     1  UNL1       -0.3505
     37 C         -24.7380    1.1839   27.6238 C.3     1  UNL1        0.0411
     38 C         -30.1784    3.9144   27.3852 C.3     1  UNL1        0.1427
     39 O         -22.3807    0.8740   27.7866 O.3     1  UNL1       -0.3536
     40 C         -30.0411    2.6767   29.3757 C.3     1  UNL1        0.1537
     41 O         -27.7403   -0.7478   28.5610 O.2     1  UNL1       -0.2730
     42 C         -25.7585    0.7400   28.6790 C.3     1  UNL1        0.0817
     43 C         -29.6813    4.8625   28.4689 C.3     1  UNL1        0.0350
@<TRIPOS>BOND
     1     1     2    1
     2     2     7    1
     3     3     2    2
     4     4     3    1
     5     4     5    2
     6     5     6    1
     7     6     7    2
     8     8     1    1
     9     8     9    1
    10     8    12    1
    11     9    10    1
    12    10    11    1
    13    12    11    1
    14    13    14    1
    15    13    37    1
    16    14    15    1
    17    15    18    2
    18    16    17    1
    19    16    15    1
    20    19    14    2
    21    20    21    2
    22    20    19    1
    23    21    26    1
    24    22    21    1
    25    23    22    1
    26    24    23    1
    27    24    25    1
    28    26    27    1
    29    26    13    1
    30    29    28    1
    31    31    28    2
    32    32     1    1
    33    34    30    1
    34    34    39    1
    35    35    39    1
    36    36    40    1
    37    37    34    1
    38    37    42    1
    39    37    32    1
    40    38    36    1
    41    38    43    1
    42    40    31    1
    43    40    33    1
    44    41    29    2
    45    42    32    1
    46    42    29    1
    47    43    33    1
