@<TRIPOS>MOLECULE
outputs/IAG933/test6/raw/output_6704_IAG933_linker_design_.xyz
 42 45 0 0 0
SMALL
GASTEIGER

@<TRIPOS>ATOM
      1 C         -24.8550   -1.0120   30.1430 C.3     1  UNL1        0.0569
      2 C         -24.9730   -2.5050   29.7880 C.2     1  UNL1       -0.0197
      3 C         -23.9060   -3.1730   29.1460 C.2     1  UNL1       -0.0042
      4 C         -23.9890   -4.5490   28.8530 C.2     1  UNL1       -0.0003
      5 C         -25.1370   -5.2800   29.2050 C.2     1  UNL1       -0.0000
      6 C         -26.2320   -4.6110   29.7840 C.2     1  UNL1       -0.0003
      7 C         -26.1550   -3.2320   30.0650 C.2     1  UNL1       -0.0042
      8 C         -25.3870   -0.6790   31.5710 C.3     1  UNL1        0.0782
      9 C         -25.1890    0.7730   32.0280 C.3     1  UNL1        0.0192
     10 C         -25.3360    0.6840   33.5440 C.3     1  UNL1        0.0202
     11 C         -24.8290   -0.7150   33.9050 C.3     1  UNL1        0.0887
     12 N         -24.7580   -1.4810   32.6460 N.3     1  UNL1       -0.2191
     13 C         -25.6880    1.6140   26.4610 C.3     1  UNL1        0.0897
     14 C         -26.2500    2.9200   26.3950 C.2     1  UNL1        0.0586
     15 C         -25.6420    4.0930   27.1230 C.2     1  UNL1        0.2627
     16 N         -25.6140    5.2520   26.4490 N.am    1  UNL1       -0.2000
     17 C         -25.0260    6.4790   26.9630 C.3     1  UNL1        0.1388
     18 O         -25.1430    3.9660   28.2430 O.2     1  UNL1       -0.2686
     19 C         -27.4380    3.0910   25.6450 C.2     1  UNL1        0.1025
     20 N         -28.0750    2.0890   25.0030 N.2     1  UNL1       -0.2118
     21 C         -27.5430    0.8490   25.0790 C.2     1  UNL1        0.2344
     22 O         -28.1930   -0.2080   24.4770 O.2     1  UNL1       -0.4585
     23 C         -29.4600    0.0050   23.8660 C.3     1  UNL1        0.2423
     24 C         -30.0650   -1.3770   23.5730 C.3     1  UNL1        0.2292
     25 O         -30.7290   -1.8780   24.7210 O.3     1  UNL1       -0.2162
     26 C         -26.3540    0.5760   25.7770 C.3     1  UNL1        0.2437
     27 F         -25.8600   -0.6810   25.7950 F       1  UNL1       -0.2265
     28 C         -24.0349    1.0342   28.1258 C.3     1  UNL1        0.0918
     29 O         -28.5024   -1.8214   29.8674 O.3     1  UNL1       -0.2204
     30 C         -25.8139   -0.2241   29.1831 C.3     1  UNL1        0.1112
     31 C         -27.2708    0.0125   29.4516 C.3     1  UNL1        0.1983
     32 N         -25.0888    1.0796   28.9679 N.3     1  UNL1       -0.2137
     33 C         -23.3926    1.9448   25.8297 C.2     1  UNL1       -0.0071
     34 C         -21.6962    1.2825   28.2692 C.3     1  UNL1        0.0278
     35 C         -24.2805    1.5140   26.8321 C.2     1  UNL1       -0.0215
     36 C         -22.8120    0.6383   28.7633 C.3     1  UNL1        0.0262
     37 C         -30.5832    0.0307   28.7460 C.3     1  UNL1        0.0028
     38 C         -21.3117    1.7969   27.1047 C.2     1  UNL1       -0.0261
     39 C         -22.0568    2.2031   25.9895 C.2     1  UNL1       -0.0052
     40 C         -28.2588   -0.9051   28.8957 C.3     1  UNL1        0.1835
     41 C         -29.3156   -0.1619   27.9283 C.3     1  UNL1        0.0356
     42 O         -27.5294    1.2759   29.6913 O.3     1  UNL1       -0.2189
@<TRIPOS>BOND
     1     1    30    1
     2     2     7    1
     3     2     1    1
     4     3     2    2
     5     4     3    1
     6     4     5    2
     7     5     6    1
     8     6     7    2
     9     8     1    1
    10     8     9    1
    11     8    12    1
    12     9    10    1
    13    10    11    1
    14    12    11    1
    15    13    35    1
    16    14    13    1
    17    14    15    1
    18    15    18    2
    19    16    17    1
    20    16    15    1
    21    19    14    2
    22    20    21    2
    23    20    19    1
    24    21    26    1
    25    22    21    1
    26    23    22    1
    27    24    23    1
    28    24    25    1
    29    26    27    1
    30    26    13    1
    31    28    36    1
    32    28    32    1
    33    30    32    1
    34    30    31    1
    35    31    42    1
    36    33    39    1
    37    33    35    2
    38    34    36    1
    39    35    28    1
    40    38    34    1
    41    39    38    2
    42    40    31    1
    43    40    29    1
    44    41    37    1
    45    41    40    1
