@<TRIPOS>MOLECULE
outputs/IAG933/test6/raw/output_6706_IAG933_linker_design_.xyz
 46 50 0 0 0
SMALL
GASTEIGER

@<TRIPOS>ATOM
      1 C         -24.8550   -1.0120   30.1430 C.3     1  UNL1        0.1193
      2 C         -24.9730   -2.5050   29.7880 C.2     1  UNL1       -0.0026
      3 C         -23.9060   -3.1730   29.1460 C.2     1  UNL1       -0.0026
      4 C         -23.9890   -4.5490   28.8530 C.2     1  UNL1       -0.0003
      5 C         -25.1370   -5.2800   29.2050 C.2     1  UNL1       -0.0000
      6 C         -26.2320   -4.6110   29.7840 C.2     1  UNL1       -0.0003
      7 C         -26.1550   -3.2320   30.0650 C.2     1  UNL1       -0.0026
      8 C         -25.3870   -0.6790   31.5710 C.3     1  UNL1        0.0955
      9 C         -25.1890    0.7730   32.0280 C.3     1  UNL1        0.0209
     10 C         -25.3360    0.6840   33.5440 C.3     1  UNL1        0.0203
     11 C         -24.8290   -0.7150   33.9050 C.3     1  UNL1        0.0888
     12 N         -24.7580   -1.4810   32.6460 N.3     1  UNL1       -0.2174
     13 C         -25.6880    1.6140   26.4610 C.3     1  UNL1        0.0933
     14 C         -26.2500    2.9200   26.3950 C.2     1  UNL1        0.0589
     15 C         -25.6420    4.0930   27.1230 C.2     1  UNL1        0.2628
     16 N         -25.6140    5.2520   26.4490 N.am    1  UNL1       -0.2000
     17 C         -25.0260    6.4790   26.9630 C.3     1  UNL1        0.1388
     18 O         -25.1430    3.9660   28.2430 O.2     1  UNL1       -0.2686
     19 C         -27.4380    3.0910   25.6450 C.2     1  UNL1        0.1025
     20 N         -28.0750    2.0890   25.0030 N.2     1  UNL1       -0.2118
     21 C         -27.5430    0.8490   25.0790 C.2     1  UNL1        0.2344
     22 O         -28.1930   -0.2080   24.4770 O.2     1  UNL1       -0.4585
     23 C         -29.4600    0.0050   23.8660 C.3     1  UNL1        0.2423
     24 C         -30.0650   -1.3770   23.5730 C.3     1  UNL1        0.2292
     25 O         -30.7290   -1.8780   24.7210 O.3     1  UNL1       -0.2162
     26 C         -26.3540    0.5760   25.7770 C.3     1  UNL1        0.2440
     27 F         -25.8600   -0.6810   25.7950 F       1  UNL1       -0.2265
     28 C         -21.2483    1.4938   27.9606 C.2     1  UNL1        0.0119
     29 C         -25.8316    3.8991   31.5183 C.2     1  UNL1       -0.0005
     30 C         -21.1560    2.0906   26.7025 C.2     1  UNL1       -0.0017
     31 C         -25.7212    6.0663   32.5681 C.2     1  UNL1       -0.0003
     32 N         -24.8340    0.0705   29.0152 N.am    1  UNL1       -0.2395
     33 O         -27.0245    0.4783   28.6895 O.2     1  UNL1       -0.2504
     34 C         -22.5404    0.8828   28.4955 C.3     1  UNL1        0.2095
     35 C         -24.2939    1.3103   26.7896 C.2     1  UNL1       -0.0026
     36 C         -23.8541    0.7955   28.0829 C.2     1  UNL1        0.0637
     37 C         -26.6176    2.9322   30.6039 C.3     1  UNL1        0.1431
     38 N         -25.8284    2.0674   29.7488 N.am    1  UNL1       -0.1833
     39 C         -26.0036    0.9190   29.1294 C.2     1  UNL1        0.3274
     40 O         -22.2716    0.2751   29.7027 O.3     1  UNL1       -0.2120
     41 C         -26.4234    5.1455   31.7813 C.2     1  UNL1       -0.0026
     42 C         -23.8334    4.5811   32.7967 C.2     1  UNL1       -0.0003
     43 C         -24.4498    5.7773   33.0627 C.2     1  UNL1       -0.0000
     44 C         -23.3885    1.8066   25.6708 C.2     1  UNL1       -0.0029
     45 C         -22.0844    2.1120   25.6678 C.2     1  UNL1       -0.0005
     46 C         -24.5356    3.6401   32.0491 C.2     1  UNL1       -0.0026
@<TRIPOS>BOND
     1     1    32    1
     2     2     7    1
     3     2     1    1
     4     3     2    2
     5     4     3    1
     6     4     5    2
     7     5     6    1
     8     6     7    2
     9     8     1    1
    10     8     9    1
    11     8    12    1
    12     9    10    1
    13    10    11    1
    14    12    11    1
    15    13    35    1
    16    14    13    1
    17    14    15    1
    18    15    18    2
    19    16    17    1
    20    16    15    1
    21    19    14    2
    22    20    21    2
    23    20    19    1
    24    21    26    1
    25    22    21    1
    26    23    22    1
    27    24    23    1
    28    24    25    1
    29    26    27    1
    30    26    13    1
    31    28    34    1
    32    29    41    2
    33    29    46    1
    34    30    28    2
    35    31    43    2
    36    32    39   am
    37    33    39    2
    38    34    40    1
    39    35    36    2
    40    36    34    1
    41    36    32    1
    42    37    29    1
    43    38    37    1
    44    39    38    1
    45    41    31    1
    46    42    43    1
    47    44    35    1
    48    45    44    2
    49    45    30    1
    50    46    42    2
