@<TRIPOS>MOLECULE
outputs/IAG933/test6/raw/output_671_IAG933_linker_design_.xyz
 44 48 0 0 0
SMALL
GASTEIGER

@<TRIPOS>ATOM
      1 C         -24.8550   -1.0120   30.1430 C.3     1  UNL1        0.0787
      2 C         -24.9730   -2.5050   29.7880 C.2     1  UNL1       -0.0155
      3 C         -23.9060   -3.1730   29.1460 C.2     1  UNL1       -0.0039
      4 C         -23.9890   -4.5490   28.8530 C.2     1  UNL1       -0.0003
      5 C         -25.1370   -5.2800   29.2050 C.2     1  UNL1       -0.0000
      6 C         -26.2320   -4.6110   29.7840 C.2     1  UNL1       -0.0003
      7 C         -26.1550   -3.2320   30.0650 C.2     1  UNL1       -0.0039
      8 C         -25.3870   -0.6790   31.5710 C.3     1  UNL1        0.0824
      9 C         -25.1890    0.7730   32.0280 C.3     1  UNL1        0.0196
     10 C         -25.3360    0.6840   33.5440 C.3     1  UNL1        0.0203
     11 C         -24.8290   -0.7150   33.9050 C.3     1  UNL1        0.0887
     12 N         -24.7580   -1.4810   32.6460 N.3     1  UNL1       -0.2187
     13 C         -25.6880    1.6140   26.4610 C.2     1  UNL1        0.0253
     14 C         -26.2500    2.9200   26.3950 C.2     1  UNL1        0.0732
     15 C         -25.6420    4.0930   27.1230 C.2     1  UNL1        0.2661
     16 N         -25.6140    5.2520   26.4490 N.am    1  UNL1       -0.1997
     17 C         -25.0260    6.4790   26.9630 C.3     1  UNL1        0.1388
     18 O         -25.1430    3.9660   28.2430 O.2     1  UNL1       -0.2683
     19 C         -27.4380    3.0910   25.6450 C.2     1  UNL1        0.1064
     20 N         -28.0750    2.0890   25.0030 N.2     1  UNL1       -0.2081
     21 C         -27.5430    0.8490   25.0790 C.2     1  UNL1        0.2530
     22 O         -28.1930   -0.2080   24.4770 O.2     1  UNL1       -0.4558
     23 C         -29.4600    0.0050   23.8660 C.3     1  UNL1        0.2426
     24 C         -30.0650   -1.3770   23.5730 C.3     1  UNL1        0.2292
     25 O         -30.7290   -1.8780   24.7210 O.3     1  UNL1       -0.2162
     26 C         -26.3540    0.5760   25.7770 C.2     1  UNL1        0.1898
     27 F         -25.8600   -0.6810   25.7950 F       1  UNL1       -0.1996
     28 C         -25.2608    0.4781   28.4598 C.2     1  UNL1        0.0345
     29 C         -24.3292   -0.1295   29.2139 C.2     1  UNL1        0.0677
     30 N         -22.9168    0.0083   29.1613 N.2     1  UNL1       -0.2469
     31 C         -22.3921    0.8601   28.1952 C.2     1  UNL1        0.1061
     32 F         -29.2112   -3.4277   30.1050 F       1  UNL1       -0.2045
     33 C         -29.2975   -2.5103   31.0749 C.2     1  UNL1        0.1365
     34 C         -26.7331    0.3650   28.6413 C.1     1  UNL1       -0.1079
     35 C         -28.0022    0.1776   29.0747 C.2     1  UNL1        0.0197
     36 C         -29.4117   -0.3803   32.9513 C.2     1  UNL1       -0.0002
     37 C         -24.6470    1.1994   27.4175 C.3     1  UNL1        0.0898
     38 C         -29.1704   -1.1860   30.6746 C.2     1  UNL1        0.0103
     39 C         -29.4805   -2.8155   32.4350 C.2     1  UNL1        0.0293
     40 C         -29.4934   -1.7465   33.3814 C.2     1  UNL1        0.0023
     41 C         -29.2610   -0.0964   31.5807 C.2     1  UNL1       -0.0017
     42 CL        -22.6686    2.3701   25.8755 Cl      1  UNL1       -0.0846
     43 C         -23.2442    1.4401   27.2640 C.2     1  UNL1        0.0630
     44 C         -28.8858   -0.8947   29.2648 C.3     1  UNL1        0.0629
@<TRIPOS>BOND
     1     1    29    1
     2     2     7    1
     3     2     1    1
     4     3     2    2
     5     4     3    1
     6     4     5    2
     7     5     6    1
     8     6     7    2
     9     8     1    1
    10     8     9    1
    11     8    12    1
    12     9    10    1
    13    10    11    1
    14    12    11    1
    15    14    13    1
    16    14    15    1
    17    15    18    2
    18    16    17    1
    19    16    15    1
    20    19    14    2
    21    20    21    2
    22    20    19    1
    23    21    26    1
    24    22    21    1
    25    23    22    1
    26    24    23    1
    27    24    25    1
    28    26    27    1
    29    26    13    2
    30    28    34    2
    31    28    29    1
    32    30    29    2
    33    31    30    1
    34    32    33    1
    35    33    39    1
    36    34    35    2
    37    35    44    1
    38    36    40    1
    39    37    13    1
    40    37    28    1
    41    38    33    2
    42    38    41    1
    43    39    40    2
    44    41    36    2
    45    42    43    1
    46    43    37    1
    47    43    31    2
    48    44    38    1
