@<TRIPOS>MOLECULE
outputs/IAG933/test6/raw/output_6710_IAG933_linker_design_.xyz
 46 50 0 0 0
SMALL
GASTEIGER

@<TRIPOS>ATOM
      1 C         -24.8550   -1.0120   30.1430 C.3     1  UNL1        0.0725
      2 C         -24.9730   -2.5050   29.7880 C.2     1  UNL1       -0.0181
      3 C         -23.9060   -3.1730   29.1460 C.2     1  UNL1       -0.0041
      4 C         -23.9890   -4.5490   28.8530 C.2     1  UNL1       -0.0003
      5 C         -25.1370   -5.2800   29.2050 C.2     1  UNL1       -0.0000
      6 C         -26.2320   -4.6110   29.7840 C.2     1  UNL1       -0.0003
      7 C         -26.1550   -3.2320   30.0650 C.2     1  UNL1       -0.0041
      8 C         -25.3870   -0.6790   31.5710 C.3     1  UNL1        0.0798
      9 C         -25.1890    0.7730   32.0280 C.3     1  UNL1        0.0193
     10 C         -25.3360    0.6840   33.5440 C.3     1  UNL1        0.0202
     11 C         -24.8290   -0.7150   33.9050 C.3     1  UNL1        0.0887
     12 N         -24.7580   -1.4810   32.6460 N.3     1  UNL1       -0.2190
     13 C         -25.6880    1.6140   26.4610 C.2     1  UNL1        0.0368
     14 C         -26.2500    2.9200   26.3950 C.2     1  UNL1        0.0742
     15 C         -25.6420    4.0930   27.1230 C.2     1  UNL1        0.2662
     16 N         -25.6140    5.2520   26.4490 N.am    1  UNL1       -0.1997
     17 C         -25.0260    6.4790   26.9630 C.3     1  UNL1        0.1388
     18 O         -25.1430    3.9660   28.2430 O.2     1  UNL1       -0.2683
     19 C         -27.4380    3.0910   25.6450 C.2     1  UNL1        0.1065
     20 N         -28.0750    2.0890   25.0030 N.2     1  UNL1       -0.2081
     21 C         -27.5430    0.8490   25.0790 C.2     1  UNL1        0.2530
     22 O         -28.1930   -0.2080   24.4770 O.2     1  UNL1       -0.4558
     23 C         -29.4600    0.0050   23.8660 C.3     1  UNL1        0.2426
     24 C         -30.0650   -1.3770   23.5730 C.3     1  UNL1        0.2292
     25 O         -30.7290   -1.8780   24.7210 O.3     1  UNL1       -0.2162
     26 C         -26.3540    0.5760   25.7770 C.2     1  UNL1        0.1908
     27 F         -25.8600   -0.6810   25.7950 F       1  UNL1       -0.1995
     28 F         -20.9827    1.3505   27.3934 F       1  UNL1       -0.2053
     29 C         -27.7474    2.7128   30.1122 C.2     1  UNL1        0.0746
     30 C         -22.3615    1.1167   27.4833 C.2     1  UNL1        0.1586
     31 C         -31.1678   -0.0419   31.3134 C.3     1  UNL1        0.0220
     32 C         -26.6274    2.0465   29.6837 C.2     1  UNL1        0.0749
     33 F         -22.6955    2.0917   25.5517 F       1  UNL1       -0.2050
     34 C         -24.3730    1.2924   27.1244 C.3     1  UNL1        0.1370
     35 N         -28.8528    0.6237   30.3294 N.am    1  UNL1       -0.2103
     36 C         -23.1729    1.5991   26.5899 C.2     1  UNL1        0.1608
     37 O         -30.0904    2.5287   30.0367 O.2     1  UNL1       -0.2694
     38 C         -27.8952    0.0493   29.4425 C.2     1  UNL1        0.3179
     39 O         -28.2372   -0.8858   28.7585 O.2     1  UNL1       -0.2515
     40 C         -22.9574    0.6241   28.6750 C.3     1  UNL1        0.1333
     41 C         -25.3898    0.0040   29.1222 C.3     1  UNL1        0.1481
     42 C         -29.0157    1.9834   30.1724 C.2     1  UNL1        0.2573
     43 N         -26.6452    0.6996   29.3489 N.am    1  UNL1       -0.2290
     44 C         -31.9311    0.1664   29.9605 C.3     1  UNL1        0.0018
     45 C         -29.5941   -0.0068   31.4587 C.3     1  UNL1        0.1028
     46 N         -24.2743    0.5749   28.3411 N.3     1  UNL1       -0.2435
@<TRIPOS>BOND
     1     1    41    1
     2     2     7    1
     3     2     1    1
     4     3     2    2
     5     4     3    1
     6     4     5    2
     7     5     6    1
     8     6     7    2
     9     8     1    1
    10     8     9    1
    11     8    12    1
    12     9    10    1
    13    10    11    1
    14    12    11    1
    15    14    13    1
    16    14    15    1
    17    15    18    2
    18    16    17    1
    19    16    15    1
    20    19    14    2
    21    20    21    2
    22    20    19    1
    23    21    26    1
    24    22    21    1
    25    23    22    1
    26    24    23    1
    27    24    25    1
    28    26    27    1
    29    26    13    2
    30    28    30    1
    31    29    42    1
    32    30    40    1
    33    31    45    1
    34    32    29    2
    35    33    36    1
    36    34    13    1
    37    34    46    1
    38    35    45    1
    39    36    34    1
    40    36    30    2
    41    37    42    2
    42    38    35   am
    43    39    38    2
    44    41    46    1
    45    41    43    1
    46    42    35   am
    47    43    38   am
    48    43    32    1
    49    44    31    1
    50    46    40    1
