@<TRIPOS>MOLECULE
outputs/IAG933/test6/raw/output_6711_IAG933_linker_design_.xyz
 43 46 0 0 0
SMALL
GASTEIGER

@<TRIPOS>ATOM
      1 C         -24.8550   -1.0120   30.1430 C.3     1  UNL1        0.0695
      2 C         -24.9730   -2.5050   29.7880 C.2     1  UNL1       -0.0185
      3 C         -23.9060   -3.1730   29.1460 C.2     1  UNL1       -0.0041
      4 C         -23.9890   -4.5490   28.8530 C.2     1  UNL1       -0.0003
      5 C         -25.1370   -5.2800   29.2050 C.2     1  UNL1       -0.0000
      6 C         -26.2320   -4.6110   29.7840 C.2     1  UNL1       -0.0003
      7 C         -26.1550   -3.2320   30.0650 C.2     1  UNL1       -0.0041
      8 C         -25.3870   -0.6790   31.5710 C.3     1  UNL1        0.0795
      9 C         -25.1890    0.7730   32.0280 C.3     1  UNL1        0.0193
     10 C         -25.3360    0.6840   33.5440 C.3     1  UNL1        0.0202
     11 C         -24.8290   -0.7150   33.9050 C.3     1  UNL1        0.0887
     12 N         -24.7580   -1.4810   32.6460 N.3     1  UNL1       -0.2190
     13 C         -25.6880    1.6140   26.4610 C.2     1  UNL1        0.0376
     14 C         -26.2500    2.9200   26.3950 C.2     1  UNL1        0.0765
     15 C         -25.6420    4.0930   27.1230 C.2     1  UNL1        0.2664
     16 N         -25.6140    5.2520   26.4490 N.am    1  UNL1       -0.1997
     17 C         -25.0260    6.4790   26.9630 C.3     1  UNL1        0.1388
     18 O         -25.1430    3.9660   28.2430 O.2     1  UNL1       -0.2683
     19 C         -27.4380    3.0910   25.6450 C.2     1  UNL1        0.1067
     20 N         -28.0750    2.0890   25.0030 N.2     1  UNL1       -0.2081
     21 C         -27.5430    0.8490   25.0790 C.2     1  UNL1        0.2533
     22 O         -28.1930   -0.2080   24.4770 O.2     1  UNL1       -0.4558
     23 C         -29.4600    0.0050   23.8660 C.3     1  UNL1        0.2426
     24 C         -30.0650   -1.3770   23.5730 C.3     1  UNL1        0.2292
     25 O         -30.7290   -1.8780   24.7210 O.3     1  UNL1       -0.2162
     26 C         -26.3540    0.5760   25.7770 C.2     1  UNL1        0.1930
     27 F         -25.8600   -0.6810   25.7950 F       1  UNL1       -0.1992
     28 C         -23.3003    0.4347   28.9998 C.3     1  UNL1        0.0245
     29 O         -26.1365    1.0908   29.4425 O.3     1  UNL1       -0.3264
     30 C         -27.5528    1.2565   29.3036 C.3     1  UNL1        0.2693
     31 F         -19.9684    2.0313   27.4978 F       1  UNL1       -0.2291
     32 O         -28.2431   -0.0008   29.2673 O.3     1  UNL1       -0.1899
     33 C         -24.3184    0.5803   28.3649 C.2     1  UNL1       -0.0170
     34 C         -22.6540    2.3609   24.4346 C.3     1  UNL1        0.2521
     35 C         -27.7457    2.4173   30.3266 C.3     1  UNL1        0.0696
     36 C         -25.4195   -0.0705   29.0526 C.3     1  UNL1        0.1414
     37 O         -21.8967    1.8419   25.4859 O.2     1  UNL1       -0.4730
     38 C         -23.3912    1.5368   26.5696 C.2     1  UNL1        0.0347
     39 C         -22.1955   -0.2390   28.9926 C.3     1  UNL1        0.0077
     40 C         -20.9918    1.2430   27.5305 C.3     1  UNL1        0.2168
     41 C         -20.9786    0.1916   28.5012 C.3     1  UNL1        0.0435
     42 C         -22.0428    1.4897   26.6843 C.2     1  UNL1        0.1485
     43 C         -24.4635    1.2821   27.1341 C.2     1  UNL1       -0.0004
@<TRIPOS>BOND
     1     1    36    1
     2     2     7    1
     3     2     1    1
     4     3     2    2
     5     4     3    1
     6     4     5    2
     7     5     6    1
     8     6     7    2
     9     8     1    1
    10     8     9    1
    11     8    12    1
    12     9    10    1
    13    10    11    1
    14    12    11    1
    15    13    43    1
    16    14    13    1
    17    14    15    1
    18    15    18    2
    19    16    17    1
    20    16    15    1
    21    19    14    2
    22    20    21    2
    23    20    19    1
    24    21    26    1
    25    22    21    1
    26    23    22    1
    27    24    23    1
    28    24    25    1
    29    26    27    1
    30    26    13    2
    31    30    29    1
    32    30    35    1
    33    32    30    1
    34    33    28    1
    35    33    36    1
    36    34    37    1
    37    36    29    1
    38    37    42    1
    39    38    42    2
    40    38    43    1
    41    39    28    1
    42    40    31    1
    43    40    41    1
    44    41    39    1
    45    42    40    1
    46    43    33    2
