@<TRIPOS>MOLECULE
outputs/IAG933/test6/raw/output_6713_IAG933_linker_design_.xyz
 41 44 0 0 0
SMALL
GASTEIGER

@<TRIPOS>ATOM
      1 C         -24.8550   -1.0120   30.1430 C.3     1  UNL1        0.0712
      2 C         -24.9730   -2.5050   29.7880 C.2     1  UNL1       -0.0184
      3 C         -23.9060   -3.1730   29.1460 C.2     1  UNL1       -0.0041
      4 C         -23.9890   -4.5490   28.8530 C.2     1  UNL1       -0.0003
      5 C         -25.1370   -5.2800   29.2050 C.2     1  UNL1       -0.0000
      6 C         -26.2320   -4.6110   29.7840 C.2     1  UNL1       -0.0003
      7 C         -26.1550   -3.2320   30.0650 C.2     1  UNL1       -0.0041
      8 C         -25.3870   -0.6790   31.5710 C.3     1  UNL1        0.0795
      9 C         -25.1890    0.7730   32.0280 C.3     1  UNL1        0.0193
     10 C         -25.3360    0.6840   33.5440 C.3     1  UNL1        0.0202
     11 C         -24.8290   -0.7150   33.9050 C.3     1  UNL1        0.0887
     12 N         -24.7580   -1.4810   32.6460 N.3     1  UNL1       -0.2190
     13 C         -25.6880    1.6140   26.4610 C.2     1  UNL1        0.0394
     14 C         -26.2500    2.9200   26.3950 C.2     1  UNL1        0.0766
     15 C         -25.6420    4.0930   27.1230 C.2     1  UNL1        0.2664
     16 N         -25.6140    5.2520   26.4490 N.am    1  UNL1       -0.1997
     17 C         -25.0260    6.4790   26.9630 C.3     1  UNL1        0.1388
     18 O         -25.1430    3.9660   28.2430 O.2     1  UNL1       -0.2683
     19 C         -27.4380    3.0910   25.6450 C.2     1  UNL1        0.1067
     20 N         -28.0750    2.0890   25.0030 N.2     1  UNL1       -0.2081
     21 C         -27.5430    0.8490   25.0790 C.2     1  UNL1        0.2533
     22 O         -28.1930   -0.2080   24.4770 O.2     1  UNL1       -0.4558
     23 C         -29.4600    0.0050   23.8660 C.3     1  UNL1        0.2426
     24 C         -30.0650   -1.3770   23.5730 C.3     1  UNL1        0.2292
     25 O         -30.7290   -1.8780   24.7210 O.3     1  UNL1       -0.2162
     26 C         -26.3540    0.5760   25.7770 C.2     1  UNL1        0.1931
     27 F         -25.8600   -0.6810   25.7950 F       1  UNL1       -0.1992
     28 C         -30.2210    1.8657   29.3502 C.3     1  UNL1        0.0053
     29 C         -28.1731    0.6554   29.8218 C.3     1  UNL1        0.1451
     30 C         -22.3323    0.8995   28.6198 C.2     1  UNL1        0.1281
     31 C         -23.4275    1.7977   26.6886 C.2     1  UNL1        0.0326
     32 N         -23.5000    0.3033   28.9896 N.2     1  UNL1       -0.2434
     33 C         -29.8341   -0.1861   28.0398 C.3     1  UNL1        0.1845
     34 C         -22.2651    1.5463   27.4086 C.2     1  UNL1        0.1592
     35 C         -24.6305    0.4537   28.2911 C.2     1  UNL1        0.0865
     36 C         -29.6143    0.4809   29.3695 C.3     1  UNL1        0.0626
     37 O         -27.4188   -0.0886   28.8713 O.3     1  UNL1       -0.3498
     38 F         -21.0763    1.9616   26.9235 F       1  UNL1       -0.2025
     39 C         -25.9112   -0.1041   28.9997 C.3     1  UNL1        0.1601
     40 O         -31.2504   -0.0574   27.7559 O.3     1  UNL1       -0.2203
     41 C         -24.5928    1.2510   27.1583 C.2     1  UNL1        0.0207
@<TRIPOS>BOND
     1     1    39    1
     2     2     7    1
     3     2     1    1
     4     3     2    2
     5     4     3    1
     6     4     5    2
     7     5     6    1
     8     6     7    2
     9     8     1    1
    10     8     9    1
    11     8    12    1
    12     9    10    1
    13    10    11    1
    14    12    11    1
    15    13    41    1
    16    14    13    1
    17    14    15    1
    18    15    18    2
    19    16    17    1
    20    16    15    1
    21    19    14    2
    22    20    21    2
    23    20    19    1
    24    21    26    1
    25    22    21    1
    26    23    22    1
    27    24    23    1
    28    24    25    1
    29    26    27    1
    30    26    13    2
    31    30    32    1
    32    31    41    2
    33    31    34    1
    34    33    36    1
    35    34    30    2
    36    35    32    2
    37    35    39    1
    38    36    28    1
    39    36    29    1
    40    37    29    1
    41    38    34    1
    42    39    37    1
    43    40    33    1
    44    41    35    1
