@<TRIPOS>MOLECULE
outputs/IAG933/test6/raw/output_6715_IAG933_linker_design_.xyz
 44 47 0 0 0
SMALL
GASTEIGER

@<TRIPOS>ATOM
      1 C         -24.8550   -1.0120   30.1430 C.3     1  UNL1        0.0440
      2 C         -24.9730   -2.5050   29.7880 C.2     1  UNL1       -0.0208
      3 C         -23.9060   -3.1730   29.1460 C.2     1  UNL1       -0.0042
      4 C         -23.9890   -4.5490   28.8530 C.2     1  UNL1       -0.0003
      5 C         -25.1370   -5.2800   29.2050 C.2     1  UNL1       -0.0000
      6 C         -26.2320   -4.6110   29.7840 C.2     1  UNL1       -0.0003
      7 C         -26.1550   -3.2320   30.0650 C.2     1  UNL1       -0.0042
      8 C         -25.3870   -0.6790   31.5710 C.3     1  UNL1        0.0809
      9 C         -25.1890    0.7730   32.0280 C.3     1  UNL1        0.0385
     10 C         -25.3360    0.6840   33.5440 C.3     1  UNL1        0.0243
     11 C         -24.8290   -0.7150   33.9050 C.3     1  UNL1        0.0890
     12 N         -24.7580   -1.4810   32.6460 N.3     1  UNL1       -0.2188
     13 C         -25.6880    1.6140   26.4610 C.2     1  UNL1        0.0320
     14 C         -26.2500    2.9200   26.3950 C.2     1  UNL1        0.0739
     15 C         -25.6420    4.0930   27.1230 C.2     1  UNL1        0.2662
     16 N         -25.6140    5.2520   26.4490 N.am    1  UNL1       -0.1997
     17 C         -25.0260    6.4790   26.9630 C.3     1  UNL1        0.1388
     18 O         -25.1430    3.9660   28.2430 O.2     1  UNL1       -0.2683
     19 C         -27.4380    3.0910   25.6450 C.2     1  UNL1        0.1065
     20 N         -28.0750    2.0890   25.0030 N.2     1  UNL1       -0.2081
     21 C         -27.5430    0.8490   25.0790 C.2     1  UNL1        0.2530
     22 O         -28.1930   -0.2080   24.4770 O.2     1  UNL1       -0.4558
     23 C         -29.4600    0.0050   23.8660 C.3     1  UNL1        0.2426
     24 C         -30.0650   -1.3770   23.5730 C.3     1  UNL1        0.2292
     25 O         -30.7290   -1.8780   24.7210 O.3     1  UNL1       -0.2162
     26 C         -26.3540    0.5760   25.7770 C.2     1  UNL1        0.1904
     27 F         -25.8600   -0.6810   25.7950 F       1  UNL1       -0.1995
     28 C         -27.4224    3.8502   33.5964 C.3     1  UNL1        0.1435
     29 C         -22.9061    1.3241   29.4511 C.3     1  UNL1        0.0414
     30 C         -27.2548    5.1829   33.1984 C.3     1  UNL1        0.0391
     31 O         -26.7582    2.8564   32.9495 O.3     1  UNL1       -0.3447
     32 C         -25.0850    4.4944   32.3795 C.2     1  UNL1        0.1806
     33 C         -24.6795    1.1950   27.3228 C.3     1  UNL1        0.1018
     34 C         -21.1164    1.7295   27.4825 C.3     1  UNL1        0.0177
     35 C         -23.2060    1.9009   25.5892 C.3     1  UNL1        0.0899
     36 C         -25.9670    7.1995   33.1697 C.3     1  UNL1        0.0075
     37 C         -26.1342    6.1725   30.9180 C.3     1  UNL1        0.0075
     38 C         -22.5977    1.9125   28.0110 C.3     1  UNL1        0.0622
     39 O         -23.8605    4.5588   32.5829 O.2     1  UNL1       -0.2932
     40 C         -26.0654    5.7418   32.4373 C.3     1  UNL1        0.0567
     41 C         -24.8423    2.1353   31.4913 C.2     1  UNL1       -0.0137
     42 C         -25.7394    3.2021   31.9526 C.3     1  UNL1        0.1900
     43 N         -23.4344    1.3302   26.9527 N.3     1  UNL1       -0.2687
     44 C         -23.9139    2.1245   30.3626 C.2     1  UNL1       -0.0305
@<TRIPOS>BOND
     1     2     7    1
     2     2     1    1
     3     3     2    2
     4     4     3    1
     5     4     5    2
     6     5     6    1
     7     6     7    2
     8     8     1    1
     9     8     9    1
    10     8    12    1
    11     9    41    1
    12     9    10    1
    13    10    11    1
    14    12    11    1
    15    13    33    1
    16    14    13    1
    17    14    15    1
    18    15    18    2
    19    16    17    1
    20    16    15    1
    21    19    14    2
    22    20    21    2
    23    20    19    1
    24    21    26    1
    25    22    21    1
    26    23    22    1
    27    24    23    1
    28    24    25    1
    29    26    27    1
    30    26    13    2
    31    29    44    1
    32    30    28    1
    33    31    28    1
    34    32    40    1
    35    32    39    2
    36    35    43    1
    37    37    40    1
    38    38    34    1
    39    38    29    1
    40    40    36    1
    41    40    30    1
    42    42    41    1
    43    42    32    1
    44    42    31    1
    45    43    33    1
    46    43    38    1
    47    44    41    2
