@<TRIPOS>MOLECULE
outputs/IAG933/test6/raw/output_672_IAG933_linker_design_.xyz
 43 45 0 0 0
SMALL
GASTEIGER

@<TRIPOS>ATOM
      1 C         -24.8550   -1.0120   30.1430 C.3     1  UNL1        0.0561
      2 C         -24.9730   -2.5050   29.7880 C.2     1  UNL1       -0.0197
      3 C         -23.9060   -3.1730   29.1460 C.2     1  UNL1       -0.0042
      4 C         -23.9890   -4.5490   28.8530 C.2     1  UNL1       -0.0003
      5 C         -25.1370   -5.2800   29.2050 C.2     1  UNL1       -0.0000
      6 C         -26.2320   -4.6110   29.7840 C.2     1  UNL1       -0.0003
      7 C         -26.1550   -3.2320   30.0650 C.2     1  UNL1       -0.0042
      8 C         -25.3870   -0.6790   31.5710 C.3     1  UNL1        0.0782
      9 C         -25.1890    0.7730   32.0280 C.3     1  UNL1        0.0192
     10 C         -25.3360    0.6840   33.5440 C.3     1  UNL1        0.0202
     11 C         -24.8290   -0.7150   33.9050 C.3     1  UNL1        0.0887
     12 N         -24.7580   -1.4810   32.6460 N.3     1  UNL1       -0.2191
     13 C         -25.6880    1.6140   26.4610 C.3     1  UNL1        0.1430
     14 C         -26.2500    2.9200   26.3950 C.2     1  UNL1        0.0709
     15 C         -25.6420    4.0930   27.1230 C.2     1  UNL1        0.2638
     16 N         -25.6140    5.2520   26.4490 N.am    1  UNL1       -0.2000
     17 C         -25.0260    6.4790   26.9630 C.3     1  UNL1        0.1388
     18 O         -25.1430    3.9660   28.2430 O.2     1  UNL1       -0.2686
     19 C         -27.4380    3.0910   25.6450 C.2     1  UNL1        0.1035
     20 N         -28.0750    2.0890   25.0030 N.2     1  UNL1       -0.2118
     21 C         -27.5430    0.8490   25.0790 C.2     1  UNL1        0.2356
     22 O         -28.1930   -0.2080   24.4770 O.2     1  UNL1       -0.4585
     23 C         -29.4600    0.0050   23.8660 C.3     1  UNL1        0.2423
     24 C         -30.0650   -1.3770   23.5730 C.3     1  UNL1        0.2292
     25 O         -30.7290   -1.8780   24.7210 O.3     1  UNL1       -0.2162
     26 C         -26.3540    0.5760   25.7770 C.3     1  UNL1        0.2559
     27 F         -25.8600   -0.6810   25.7950 F       1  UNL1       -0.2253
     28 C         -22.5699    1.4782   27.3165 C.3     1  UNL1        0.1737
     29 C         -28.8620    1.6634   28.5215 C.3     1  UNL1        0.0175
     30 N         -24.9339    1.0775   27.3675 N.3     1  UNL1       -0.2040
     31 N         -26.6879    0.6259   29.3538 N.3     1  UNL1       -0.2186
     32 C         -29.7151   -0.6803   28.7691 C.3     1  UNL1        0.1835
     33 C         -29.0771    2.3768   29.8492 C.3     1  UNL1        0.0015
     34 C         -25.4788    0.1125   29.2651 C.3     1  UNL1        0.1012
     35 C         -23.2256    0.6402   28.3828 C.2     1  UNL1        0.1944
     36 C         -22.1658    1.9391   25.0517 C.3     1  UNL1        0.1746
     37 C         -24.5465    0.6599   28.3239 C.3     1  UNL1        0.1490
     38 O         -22.5768    0.0503   29.2194 O.2     1  UNL1       -0.2920
     39 C         -27.9733    0.3823   28.6240 C.3     1  UNL1        0.0754
     40 O         -29.7052   -0.5807   27.4432 O.3     1  UNL1       -0.2204
     41 C         -28.5457   -0.7716   29.4587 C.3     1  UNL1        0.0529
     42 C         -21.0566    1.3862   27.4284 C.3     1  UNL1        0.0402
     43 O         -22.9266    1.2441   26.0218 O.3     1  UNL1       -0.3461
@<TRIPOS>BOND
     1     1    34    1
     2     2     7    1
     3     2     1    1
     4     3     2    2
     5     4     3    1
     6     4     5    2
     7     5     6    1
     8     6     7    2
     9     8     1    1
    10     8     9    1
    11     8    12    1
    12     9    10    1
    13    10    11    1
    14    12    11    1
    15    13    30    1
    16    14    13    1
    17    14    15    1
    18    15    18    2
    19    16    17    1
    20    16    15    1
    21    19    14    2
    22    20    21    2
    23    20    19    1
    24    21    26    1
    25    22    21    1
    26    23    22    1
    27    24    23    1
    28    24    25    1
    29    26    27    1
    30    26    13    1
    31    28    42    1
    32    28    35    1
    33    29    33    1
    34    32    41    1
    35    34    31    1
    36    35    38    2
    37    36    43    1
    38    37    30    1
    39    37    35    1
    40    37    34    1
    41    39    29    1
    42    39    31    1
    43    39    41    1
    44    40    32    1
    45    43    28    1
