@<TRIPOS>MOLECULE
outputs/IAG933/test6/raw/output_6721_IAG933_linker_design_.xyz
 43 46 0 0 0
SMALL
GASTEIGER

@<TRIPOS>ATOM
      1 C         -24.8550   -1.0120   30.1430 C.3     1  UNL1        0.0975
      2 C         -24.9730   -2.5050   29.7880 C.2     1  UNL1       -0.0064
      3 C         -23.9060   -3.1730   29.1460 C.2     1  UNL1       -0.0029
      4 C         -23.9890   -4.5490   28.8530 C.2     1  UNL1       -0.0003
      5 C         -25.1370   -5.2800   29.2050 C.2     1  UNL1       -0.0000
      6 C         -26.2320   -4.6110   29.7840 C.2     1  UNL1       -0.0003
      7 C         -26.1550   -3.2320   30.0650 C.2     1  UNL1       -0.0029
      8 C         -25.3870   -0.6790   31.5710 C.3     1  UNL1        0.0916
      9 C         -25.1890    0.7730   32.0280 C.3     1  UNL1        0.0206
     10 C         -25.3360    0.6840   33.5440 C.3     1  UNL1        0.0203
     11 C         -24.8290   -0.7150   33.9050 C.3     1  UNL1        0.0888
     12 N         -24.7580   -1.4810   32.6460 N.3     1  UNL1       -0.2178
     13 C         -25.6880    1.6140   26.4610 C.2     1  UNL1        0.0873
     14 C         -26.2500    2.9200   26.3950 C.2     1  UNL1        0.0899
     15 C         -25.6420    4.0930   27.1230 C.2     1  UNL1        0.2676
     16 N         -25.6140    5.2520   26.4490 N.am    1  UNL1       -0.1997
     17 C         -25.0260    6.4790   26.9630 C.3     1  UNL1        0.1388
     18 O         -25.1430    3.9660   28.2430 O.2     1  UNL1       -0.2683
     19 C         -27.4380    3.0910   25.6450 C.2     1  UNL1        0.1080
     20 N         -28.0750    2.0890   25.0030 N.2     1  UNL1       -0.2080
     21 C         -27.5430    0.8490   25.0790 C.2     1  UNL1        0.2546
     22 O         -28.1930   -0.2080   24.4770 O.2     1  UNL1       -0.4558
     23 C         -29.4600    0.0050   23.8660 C.3     1  UNL1        0.2426
     24 C         -30.0650   -1.3770   23.5730 C.3     1  UNL1        0.2292
     25 O         -30.7290   -1.8780   24.7210 O.3     1  UNL1       -0.2162
     26 C         -26.3540    0.5760   25.7770 C.2     1  UNL1        0.2063
     27 F         -25.8600   -0.6810   25.7950 F       1  UNL1       -0.1979
     28 C         -30.0936    1.9230   31.4685 C.2     1  UNL1       -0.0044
     29 C         -21.2099    1.8014   27.6040 C.3     1  UNL1        0.0018
     30 C         -30.8368    2.2165   30.3592 C.2     1  UNL1       -0.0187
     31 N         -25.3984   -0.3809   28.9753 N.3     1  UNL1       -0.2517
     32 C         -22.0612    2.2480   26.3724 C.3     1  UNL1        0.0215
     33 C         -26.8819   -0.3882   28.7773 C.3     1  UNL1        0.0787
     34 C         -31.7129    3.4456   30.3350 C.3     1  UNL1        0.0311
     35 C         -24.3779    0.5320   28.5464 C.3     1  UNL1        0.1691
     36 N         -24.4282    1.2715   27.1742 N.pl3   1  UNL1       -0.2918
     37 C         -30.7875    1.3690   29.2330 C.2     1  UNL1        0.0374
     38 C         -28.7118    0.6017   30.1114 C.2     1  UNL1        0.0181
     39 C         -27.5507    0.7083   29.7315 C.3     1  UNL1        0.0470
     40 C         -23.3457    1.3767   26.3114 C.3     1  UNL1        0.0921
     41 C         -29.0576    1.0574   31.3731 C.2     1  UNL1       -0.0014
     42 O         -29.7817   -0.4190   28.0212 O.2     1  UNL1       -0.2869
     43 C         -29.8249    0.4456   29.0658 C.2     1  UNL1        0.1914
@<TRIPOS>BOND
     1     1    31    1
     2     2     7    1
     3     2     1    1
     4     3     2    2
     5     4     3    1
     6     4     5    2
     7     5     6    1
     8     6     7    2
     9     8     1    1
    10     8     9    1
    11     8    12    1
    12     9    10    1
    13    10    11    1
    14    12    11    1
    15    13    36    1
    16    14    13    1
    17    14    15    1
    18    15    18    2
    19    16    17    1
    20    16    15    1
    21    19    14    2
    22    20    21    2
    23    20    19    1
    24    21    26    1
    25    22    21    1
    26    23    22    1
    27    24    23    1
    28    24    25    1
    29    26    27    1
    30    26    13    2
    31    30    28    2
    32    32    29    1
    33    33    31    1
    34    33    39    1
    35    34    30    1
    36    35    31    1
    37    36    35    1
    38    37    30    1
    39    38    41    2
    40    39    38    1
    41    40    32    1
    42    40    36    1
    43    41    28    1
    44    42    43    1
    45    43    37    2
    46    43    38    1
