@<TRIPOS>MOLECULE
outputs/IAG933/test6/raw/output_6722_IAG933_linker_design_.xyz
 49 53 0 0 0
SMALL
GASTEIGER

@<TRIPOS>ATOM
      1 C         -24.8550   -1.0120   30.1430 C.3     1  UNL1        0.2437
      2 C         -24.9730   -2.5050   29.7880 C.2     1  UNL1        0.0254
      3 C         -23.9060   -3.1730   29.1460 C.2     1  UNL1       -0.0003
      4 C         -23.9890   -4.5490   28.8530 C.2     1  UNL1       -0.0002
      5 C         -25.1370   -5.2800   29.2050 C.2     1  UNL1       -0.0000
      6 C         -26.2320   -4.6110   29.7840 C.2     1  UNL1       -0.0002
      7 C         -26.1550   -3.2320   30.0650 C.2     1  UNL1       -0.0003
      8 C         -25.3870   -0.6790   31.5710 C.3     1  UNL1        0.1239
      9 C         -25.1890    0.7730   32.0280 C.3     1  UNL1        0.0235
     10 C         -25.3360    0.6840   33.5440 C.3     1  UNL1        0.0204
     11 C         -24.8290   -0.7150   33.9050 C.3     1  UNL1        0.0889
     12 N         -24.7580   -1.4810   32.6460 N.3     1  UNL1       -0.2149
     13 C         -25.6880    1.6140   26.4610 C.2     1  UNL1        0.0407
     14 C         -26.2500    2.9200   26.3950 C.2     1  UNL1        0.0744
     15 C         -25.6420    4.0930   27.1230 C.2     1  UNL1        0.2221
     16 N         -25.6140    5.2520   26.4490 N.2     1  UNL1       -0.2356
     17 C         -25.0260    6.4790   26.9630 C.3     1  UNL1        0.1550
     18 O         -25.1430    3.9660   28.2430 O.2     1  UNL1       -0.4603
     19 C         -27.4380    3.0910   25.6450 C.2     1  UNL1        0.1068
     20 N         -28.0750    2.0890   25.0030 N.2     1  UNL1       -0.2081
     21 C         -27.5430    0.8490   25.0790 C.2     1  UNL1        0.2533
     22 O         -28.1930   -0.2080   24.4770 O.2     1  UNL1       -0.4558
     23 C         -29.4600    0.0050   23.8660 C.3     1  UNL1        0.2426
     24 C         -30.0650   -1.3770   23.5730 C.3     1  UNL1        0.2292
     25 O         -30.7290   -1.8780   24.7210 O.3     1  UNL1       -0.2162
     26 C         -26.3540    0.5760   25.7770 C.2     1  UNL1        0.1931
     27 F         -25.8600   -0.6810   25.7950 F       1  UNL1       -0.1992
     28 C         -30.5503    1.6256   28.2774 C.3     1  UNL1        0.0000
     29 C         -30.5025    2.8668   27.3703 C.3     1  UNL1        0.0000
     30 O         -21.3344    0.8324   28.0231 O.3     1  UNL1       -0.1188
     31 C         -23.1474    0.5932   29.4967 C.2     1  UNL1        0.4315
     32 C         -25.4833    3.7235   29.7917 C.3     1  UNL1        0.1872
     33 C         -24.2781    2.8267   30.2402 C.2     1  UNL1        0.0643
     34 C         -26.9255    3.0696   29.7475 C.3     1  UNL1        0.0438
     35 C         -29.3740    1.9805   29.0850 C.3     1  UNL1        0.0000
     36 N         -22.0008    2.4873   25.1506 N.1     1  UNL1       -0.1931
     37 C         -25.6295    4.7356   31.0542 C.3     1  UNL1        0.1869
     38 O         -25.4899    4.1404   32.3754 O.3     1  UNL1       -0.3470
     39 C         -28.2427    1.0839   29.0639 C.3     1  UNL1        0.0001
     40 C         -27.8999    4.0721   29.3478 C.3     1  UNL1        0.0039
     41 C         -29.8027    3.9388   27.8595 C.3     1  UNL1        0.0000
     42 N         -23.9088   -0.3333   29.7392 N.pl3   1  UNL1       -0.0201
     43 C         -27.1249    1.7238   29.6252 C.3     1  UNL1        0.0039
     44 C         -22.0414    1.6049   27.4445 C.3     1  UNL1        0.3076
     45 C         -29.0358    3.4338   28.8163 C.3     1  UNL1        0.0001
     46 N         -21.9208    0.3896   29.0142 N.3     1  UNL1        0.1205
     47 C         -22.0976    2.1491   26.2880 C.1     1  UNL1        0.1116
     48 C         -23.6168    1.8355   29.7144 C.1     1  UNL1       -0.0083
     49 C         -26.1442    4.6132   33.5202 C.3     1  UNL1        0.1743
@<TRIPOS>BOND
     1     1    42    1
     2     2     7    1
     3     2     1    1
     4     3     2    2
     5     4     3    1
     6     4     5    2
     7     5     6    1
     8     6     7    2
     9     8     1    1
    10     8     9    1
    11     8    12    1
    12     9    10    1
    13    10    11    1
    14    12    11    1
    15    14    13    1
    16    14    15    1
    17    15    18    1
    18    16    17    1
    19    16    15    2
    20    18    32    1
    21    19    14    2
    22    20    21    2
    23    20    19    1
    24    21    26    1
    25    22    21    1
    26    23    22    1
    27    24    23    1
    28    24    25    1
    29    26    27    1
    30    26    13    2
    31    29    41    1
    32    29    28    1
    33    30    46    1
    34    31    48    2
    35    31    42    1
    36    32    33    1
    37    32    37    1
    38    34    32    1
    39    35    28    1
    40    36    47    3
    41    37    38    1
    42    38    49    1
    43    39    35    1
    44    39    43    1
    45    40    34    1
    46    43    34    1
    47    44    30    1
    48    45    41    1
    49    45    35    1
    50    45    40    1
    51    46    31    1
    52    47    44    1
    53    48    33    2
