@<TRIPOS>MOLECULE
outputs/IAG933/test6/raw/output_6723_IAG933_linker_design_.xyz
 46 49 0 0 0
SMALL
GASTEIGER

@<TRIPOS>ATOM
      1 C         -24.8550   -1.0120   30.1430 C.3     1  UNL1        0.1314
      2 C         -24.9730   -2.5050   29.7880 C.2     1  UNL1       -0.0014
      3 C         -23.9060   -3.1730   29.1460 C.2     1  UNL1       -0.0026
      4 C         -23.9890   -4.5490   28.8530 C.2     1  UNL1       -0.0003
      5 C         -25.1370   -5.2800   29.2050 C.2     1  UNL1       -0.0000
      6 C         -26.2320   -4.6110   29.7840 C.2     1  UNL1       -0.0003
      7 C         -26.1550   -3.2320   30.0650 C.2     1  UNL1       -0.0026
      8 C         -25.3870   -0.6790   31.5710 C.3     1  UNL1        0.0983
      9 C         -25.1890    0.7730   32.0280 C.3     1  UNL1        0.0412
     10 C         -25.3360    0.6840   33.5440 C.3     1  UNL1        0.0220
     11 C         -24.8290   -0.7150   33.9050 C.3     1  UNL1        0.0888
     12 N         -24.7580   -1.4810   32.6460 N.3     1  UNL1       -0.2173
     13 C         -25.6880    1.6140   26.4610 C.2     1  UNL1        0.0919
     14 C         -26.2500    2.9200   26.3950 C.2     1  UNL1        0.0902
     15 C         -25.6420    4.0930   27.1230 C.2     1  UNL1        0.2676
     16 N         -25.6140    5.2520   26.4490 N.am    1  UNL1       -0.1997
     17 C         -25.0260    6.4790   26.9630 C.3     1  UNL1        0.1388
     18 O         -25.1430    3.9660   28.2430 O.2     1  UNL1       -0.2683
     19 C         -27.4380    3.0910   25.6450 C.2     1  UNL1        0.1080
     20 N         -28.0750    2.0890   25.0030 N.2     1  UNL1       -0.2080
     21 C         -27.5430    0.8490   25.0790 C.2     1  UNL1        0.2546
     22 O         -28.1930   -0.2080   24.4770 O.2     1  UNL1       -0.4558
     23 C         -29.4600    0.0050   23.8660 C.3     1  UNL1        0.2426
     24 C         -30.0650   -1.3770   23.5730 C.3     1  UNL1        0.2292
     25 O         -30.7290   -1.8780   24.7210 O.3     1  UNL1       -0.2162
     26 C         -26.3540    0.5760   25.7770 C.2     1  UNL1        0.2066
     27 F         -25.8600   -0.6810   25.7950 F       1  UNL1       -0.1979
     28 O         -24.6017    6.8690   31.2478 O.co2   1  UNL1       -0.2457
     29 F         -20.9149    2.0290   27.5907 F       1  UNL1       -0.2002
     30 N         -24.0886   -0.1350   29.3361 N.pl3   1  UNL1       -0.2083
     31 O         -25.6840    3.9213   32.5180 O.2     1  UNL1       -0.2733
     32 C         -27.6410    5.7409   30.7976 C.3     1  UNL1        0.0214
     33 C         -25.7514    7.4355   31.3471 C.2     1  UNL1        0.3649
     34 O         -26.0294    8.5866   31.1336 O.co2   1  UNL1       -0.2457
     35 C         -24.7312    0.1914   28.0967 C.3     1  UNL1        0.2104
     36 N         -22.6965   -0.0274   29.6639 N.2     1  UNL1       -0.1762
     37 C         -21.9029    0.8702   28.9602 C.2     1  UNL1        0.1492
     38 C         -26.9949    6.5001   31.9376 C.3     1  UNL1        0.1146
     39 C         -27.9309    4.3494   31.4219 C.3     1  UNL1        0.0874
     40 C         -26.6074    3.7352   31.8040 C.2     1  UNL1        0.2414
     41 CL        -23.0137    2.3925   25.4616 Cl      1  UNL1       -0.0633
     42 N         -24.5455    1.2637   27.1914 N.pl3   1  UNL1       -0.2552
     43 C         -25.7322    1.4609   30.9310 C.3     1  UNL1        0.1166
     44 N         -26.6088    2.7490   30.8882 N.am    1  UNL1       -0.2054
     45 C         -22.0996    1.5951   27.8695 C.2     1  UNL1        0.1851
     46 C         -23.2919    1.7820   26.9057 C.2     1  UNL1        0.1413
@<TRIPOS>BOND
     1     1     2    1
     2     2     7    1
     3     3     2    2
     4     4     3    1
     5     4     5    2
     6     5     6    1
     7     6     7    2
     8     8     1    1
     9     8     9    1
    10     8    12    1
    11     9    43    1
    12     9    10    1
    13    10    11    1
    14    12    11    1
    15    13    42    1
    16    14    13    1
    17    14    15    1
    18    15    18    2
    19    16    17    1
    20    16    15    1
    21    19    14    2
    22    20    21    2
    23    20    19    1
    24    21    26    1
    25    22    21    1
    26    23    22    1
    27    24    23    1
    28    24    25    1
    29    26    27    1
    30    26    13    2
    31    28    33   ar
    32    29    45    1
    33    30    36    1
    34    30     1    1
    35    32    39    1
    36    32    38    1
    37    33    38    1
    38    34    33   ar
    39    35    30    1
    40    37    36    2
    41    39    40    1
    42    40    31    2
    43    41    46    1
    44    42    35    1
    45    44    43    1
    46    44    40    1
    47    45    37    1
    48    46    42    1
    49    46    45    2
