@<TRIPOS>MOLECULE
outputs/IAG933/test6/raw/output_6726_IAG933_linker_design_.xyz
 42 45 0 0 0
SMALL
GASTEIGER

@<TRIPOS>ATOM
      1 C         -24.8550   -1.0120   30.1430 C.3     1  UNL1        0.0591
      2 C         -24.9730   -2.5050   29.7880 C.2     1  UNL1       -0.0194
      3 C         -23.9060   -3.1730   29.1460 C.2     1  UNL1       -0.0042
      4 C         -23.9890   -4.5490   28.8530 C.2     1  UNL1       -0.0003
      5 C         -25.1370   -5.2800   29.2050 C.2     1  UNL1       -0.0000
      6 C         -26.2320   -4.6110   29.7840 C.2     1  UNL1       -0.0003
      7 C         -26.1550   -3.2320   30.0650 C.2     1  UNL1       -0.0042
      8 C         -25.3870   -0.6790   31.5710 C.3     1  UNL1        0.0785
      9 C         -25.1890    0.7730   32.0280 C.3     1  UNL1        0.0192
     10 C         -25.3360    0.6840   33.5440 C.3     1  UNL1        0.0202
     11 C         -24.8290   -0.7150   33.9050 C.3     1  UNL1        0.0887
     12 N         -24.7580   -1.4810   32.6460 N.3     1  UNL1       -0.2191
     13 C         -25.6880    1.6140   26.4610 C.2     1  UNL1        0.0407
     14 C         -26.2500    2.9200   26.3950 C.2     1  UNL1        0.0766
     15 C         -25.6420    4.0930   27.1230 C.2     1  UNL1        0.2664
     16 N         -25.6140    5.2520   26.4490 N.am    1  UNL1       -0.1997
     17 C         -25.0260    6.4790   26.9630 C.3     1  UNL1        0.1388
     18 O         -25.1430    3.9660   28.2430 O.2     1  UNL1       -0.2683
     19 C         -27.4380    3.0910   25.6450 C.2     1  UNL1        0.1067
     20 N         -28.0750    2.0890   25.0030 N.2     1  UNL1       -0.2081
     21 C         -27.5430    0.8490   25.0790 C.2     1  UNL1        0.2533
     22 O         -28.1930   -0.2080   24.4770 O.2     1  UNL1       -0.4558
     23 C         -29.4600    0.0050   23.8660 C.3     1  UNL1        0.2426
     24 C         -30.0650   -1.3770   23.5730 C.3     1  UNL1        0.2292
     25 O         -30.7290   -1.8780   24.7210 O.3     1  UNL1       -0.2162
     26 C         -26.3540    0.5760   25.7770 C.2     1  UNL1        0.1931
     27 F         -25.8600   -0.6810   25.7950 F       1  UNL1       -0.1992
     28 O         -28.8585   -0.8004   29.2400 O.3     1  UNL1       -0.1554
     29 N         -26.6204    0.9086   29.1811 N.3     1  UNL1       -0.2005
     30 CL        -22.7438    2.4482   25.1952 Cl      1  UNL1       -0.0606
     31 N         -30.3697    1.0615   28.3677 N.3     1  UNL1       -0.2180
     32 C         -27.8483    1.4516   28.5071 C.3     1  UNL1        0.1705
     33 S         -29.1381    0.7213   29.4291 S.3     1  UNL1       -0.0041
     34 C         -24.3158    0.7510   28.3266 C.ar    1  UNL1        0.0438
     35 C         -29.2677    1.9575   30.6724 C.3     1  UNL1        0.0972
     36 C         -25.3913    0.0257   29.0844 C.3     1  UNL1        0.1087
     37 C         -30.8353    2.4833   28.2080 C.3     1  UNL1        0.1023
     38 S         -22.6510    0.8452   28.9023 S.2     1  UNL1        0.0110
     39 C         -30.6557   -0.0587   27.4755 C.3     1  UNL1        0.1023
     40 C         -24.3670    1.4928   27.1304 C.ar    1  UNL1        0.0363
     41 C         -23.0931    1.8550   26.7832 C.ar    1  UNL1        0.1464
     42 N         -22.1390    1.7209   27.6210 N.ar    1  UNL1       -0.1980
@<TRIPOS>BOND
     1     1    36    1
     2     2     7    1
     3     2     1    1
     4     3     2    2
     5     4     3    1
     6     4     5    2
     7     5     6    1
     8     6     7    2
     9     8     1    1
    10     8     9    1
    11     8    12    1
    12     9    10    1
    13    10    11    1
    14    12    11    1
    15    13    40    1
    16    14    13    1
    17    14    15    1
    18    15    18    2
    19    16    17    1
    20    16    15    1
    21    19    14    2
    22    20    21    2
    23    20    19    1
    24    21    26    1
    25    22    21    1
    26    23    22    1
    27    24    23    1
    28    24    25    1
    29    26    27    1
    30    26    13    2
    31    28    33    1
    32    30    41    1
    33    31    33    1
    34    32    29    1
    35    32    33    1
    36    33    35    1
    37    34    38   ar
    38    34    36    1
    39    36    29    1
    40    37    31    1
    41    39    31    1
    42    40    34   ar
    43    41    40   ar
    44    41    42   ar
    45    42    38   ar
