@<TRIPOS>MOLECULE
outputs/IAG933/test6/raw/output_6728_IAG933_linker_design_.xyz
 42 46 0 0 0
SMALL
GASTEIGER

@<TRIPOS>ATOM
      1 C         -24.8550   -1.0120   30.1430 C.3     1  UNL1        0.0423
      2 C         -24.9730   -2.5050   29.7880 C.2     1  UNL1       -0.0210
      3 C         -23.9060   -3.1730   29.1460 C.2     1  UNL1       -0.0042
      4 C         -23.9890   -4.5490   28.8530 C.2     1  UNL1       -0.0003
      5 C         -25.1370   -5.2800   29.2050 C.2     1  UNL1       -0.0000
      6 C         -26.2320   -4.6110   29.7840 C.2     1  UNL1       -0.0003
      7 C         -26.1550   -3.2320   30.0650 C.2     1  UNL1       -0.0042
      8 C         -25.3870   -0.6790   31.5710 C.3     1  UNL1        0.0774
      9 C         -25.1890    0.7730   32.0280 C.3     1  UNL1        0.0265
     10 C         -25.3360    0.6840   33.5440 C.3     1  UNL1        0.0207
     11 C         -24.8290   -0.7150   33.9050 C.3     1  UNL1        0.0887
     12 N         -24.7580   -1.4810   32.6460 N.3     1  UNL1       -0.2191
     13 C         -25.6880    1.6140   26.4610 C.2     1  UNL1        0.0898
     14 C         -26.2500    2.9200   26.3950 C.2     1  UNL1        0.0900
     15 C         -25.6420    4.0930   27.1230 C.2     1  UNL1        0.2676
     16 N         -25.6140    5.2520   26.4490 N.am    1  UNL1       -0.1997
     17 C         -25.0260    6.4790   26.9630 C.3     1  UNL1        0.1388
     18 O         -25.1430    3.9660   28.2430 O.2     1  UNL1       -0.2683
     19 C         -27.4380    3.0910   25.6450 C.2     1  UNL1        0.1080
     20 N         -28.0750    2.0890   25.0030 N.2     1  UNL1       -0.2080
     21 C         -27.5430    0.8490   25.0790 C.2     1  UNL1        0.2546
     22 O         -28.1930   -0.2080   24.4770 O.2     1  UNL1       -0.4558
     23 C         -29.4600    0.0050   23.8660 C.3     1  UNL1        0.2426
     24 C         -30.0650   -1.3770   23.5730 C.3     1  UNL1        0.2292
     25 O         -30.7290   -1.8780   24.7210 O.3     1  UNL1       -0.2162
     26 C         -26.3540    0.5760   25.7770 C.2     1  UNL1        0.2064
     27 F         -25.8600   -0.6810   25.7950 F       1  UNL1       -0.1979
     28 C         -22.0464    1.6302   26.9188 C.3     1  UNL1        0.2274
     29 C         -24.3671    0.4217   29.5119 C.3     1  UNL1        0.0512
     30 C         -23.3160    1.6281   25.9847 C.3     1  UNL1        0.3484
     31 C         -22.9784    1.2128   29.6198 C.3     1  UNL1        0.1443
     32 C         -24.2726    0.1327   27.9312 C.3     1  UNL1        0.0982
     33 O         -23.5226    2.8358   25.3468 O.3     1  UNL1       -0.1663
     34 C         -25.3679    1.6047   29.7400 C.3     1  UNL1        0.0131
     35 C         -25.0258    2.0248   31.2024 C.3     1  UNL1        0.0814
     36 F         -23.2124    0.5504   25.0494 F       1  UNL1       -0.1826
     37 C         -26.7319    1.0931   29.2329 C.3     1  UNL1        0.0006
     38 O         -22.4834    1.8533   28.3509 O.3     1  UNL1       -0.3466
     39 N         -24.4430    1.2681   26.9028 N.pl3   1  UNL1       -0.2573
     40 N         -25.2812    4.2211   32.2187 N.am    1  UNL1       -0.0878
     41 C         -25.9472    3.1808   31.7040 C.2     1  UNL1        0.2603
     42 O         -27.1483    3.0940   31.6102 O.2     1  UNL1       -0.2717
@<TRIPOS>BOND
     1     1     2    1
     2     1     8    1
     3     2     7    1
     4     3     2    2
     5     4     3    1
     6     4     5    2
     7     5     6    1
     8     6     7    2
     9     8     9    1
    10     8    12    1
    11     9    10    1
    12    10    11    1
    13    12    11    1
    14    13    39    1
    15    14    13    1
    16    14    15    1
    17    15    18    2
    18    16    17    1
    19    16    15    1
    20    19    14    2
    21    20    21    2
    22    20    19    1
    23    21    26    1
    24    22    21    1
    25    23    22    1
    26    24    23    1
    27    24    25    1
    28    26    27    1
    29    26    13    2
    30    28    38    1
    31    29    32    1
    32    29    31    1
    33    29    34    1
    34    29     1    1
    35    30    36    1
    36    30    39    1
    37    30    28    1
    38    33    30    1
    39    34    37    1
    40    34    35    1
    41    35    41    1
    42    35     9    1
    43    38    31    1
    44    39    32    1
    45    41    40    1
    46    42    41    2
