@<TRIPOS>MOLECULE
outputs/IAG933/test6/raw/output_6730_IAG933_linker_design_.xyz
 44 48 0 0 0
SMALL
GASTEIGER

@<TRIPOS>ATOM
      1 C         -24.8550   -1.0120   30.1430 C.3     1  UNL1        0.0451
      2 C         -24.9730   -2.5050   29.7880 C.2     1  UNL1       -0.0207
      3 C         -23.9060   -3.1730   29.1460 C.2     1  UNL1       -0.0042
      4 C         -23.9890   -4.5490   28.8530 C.2     1  UNL1       -0.0003
      5 C         -25.1370   -5.2800   29.2050 C.2     1  UNL1       -0.0000
      6 C         -26.2320   -4.6110   29.7840 C.2     1  UNL1       -0.0003
      7 C         -26.1550   -3.2320   30.0650 C.2     1  UNL1       -0.0042
      8 C         -25.3870   -0.6790   31.5710 C.3     1  UNL1        0.0918
      9 C         -25.1890    0.7730   32.0280 C.3     1  UNL1        0.0775
     10 C         -25.3360    0.6840   33.5440 C.3     1  UNL1        0.0363
     11 C         -24.8290   -0.7150   33.9050 C.3     1  UNL1        0.0901
     12 N         -24.7580   -1.4810   32.6460 N.3     1  UNL1       -0.2177
     13 C         -25.6880    1.6140   26.4610 C.3     1  UNL1        0.0924
     14 C         -26.2500    2.9200   26.3950 C.2     1  UNL1        0.0567
     15 C         -25.6420    4.0930   27.1230 C.2     1  UNL1        0.2181
     16 N         -25.6140    5.2520   26.4490 N.2     1  UNL1       -0.2359
     17 C         -25.0260    6.4790   26.9630 C.3     1  UNL1        0.1550
     18 O         -25.1430    3.9660   28.2430 O.2     1  UNL1       -0.4606
     19 C         -27.4380    3.0910   25.6450 C.2     1  UNL1        0.1025
     20 N         -28.0750    2.0890   25.0030 N.2     1  UNL1       -0.2118
     21 C         -27.5430    0.8490   25.0790 C.2     1  UNL1        0.2344
     22 O         -28.1930   -0.2080   24.4770 O.2     1  UNL1       -0.4585
     23 C         -29.4600    0.0050   23.8660 C.3     1  UNL1        0.2423
     24 C         -30.0650   -1.3770   23.5730 C.3     1  UNL1        0.2292
     25 O         -30.7290   -1.8780   24.7210 O.3     1  UNL1       -0.2162
     26 C         -26.3540    0.5760   25.7770 C.3     1  UNL1        0.2440
     27 F         -25.8600   -0.6810   25.7950 F       1  UNL1       -0.2265
     28 C         -23.2074    2.0048   25.7701 C.2     1  UNL1       -0.0038
     29 C         -21.4608    1.5537   27.2592 C.2     1  UNL1        0.0180
     30 C         -22.4235    1.2663   28.2416 C.2     1  UNL1        0.0888
     31 N         -25.6915    1.9648   31.3676 N.3     1  UNL1       -0.2445
     32 O         -23.7780    4.9652   32.4782 O.2     1  UNL1       -0.2591
     33 N         -22.1814    0.6181   29.4362 N.pl3   1  UNL1       -0.1281
     34 C         -24.0085    1.6997   26.7850 C.2     1  UNL1       -0.0137
     35 C         -25.8003    5.2388   31.3701 C.3     1  UNL1        0.1060
     36 CA        -26.5527    3.1511   31.3508 C.3     1  UNL1        0.1100
     37 C         -21.8502    2.0046   26.0123 C.2     1  UNL1        0.0011
     38 C         -27.2608    2.0363   31.2172 C.3     1  UNL1        0.2275
     39 C         -25.0544    4.9214   32.5063 C.2     1  UNL1        0.3108
     40 F         -25.5518    4.3241   33.5809 F       1  UNL1       -0.1636
     41 C         -25.9298    4.0734   30.6453 C.3     1  UNL1        0.0726
     42 C         -25.4101    3.8481   29.3463 C.3     1  UNL1        0.2090
     43 O         -27.5744    0.9495   30.3450 O.3     1  UNL1       -0.2035
     44 C         -23.6412    1.5122   27.9731 C.2     1  UNL1        0.0142
@<TRIPOS>BOND
     1     2     7    1
     2     2     1    1
     3     3     2    2
     4     4     3    1
     5     4     5    2
     6     5     6    1
     7     6     7    2
     8     8     1    1
     9     8     9    1
    10     8    12    1
    11     9    10    1
    12    10    11    1
    13    12    11    1
    14    13    34    1
    15    14    13    1
    16    14    15    1
    17    15    18    1
    18    16    17    1
    19    16    15    2
    20    18    42    1
    21    19    14    2
    22    20    21    2
    23    20    19    1
    24    21    26    1
    25    22    21    1
    26    23    22    1
    27    24    23    1
    28    24    25    1
    29    26    27    1
    30    26    13    1
    31    28    37    2
    32    28    34    1
    33    29    30    2
    34    30    33    1
    35    31     9    1
    36    32    39    2
    37    34    44    2
    38    35    39    1
    39    36    41    1
    40    36    31    1
    41    37    29    1
    42    38    43    1
    43    38    36    1
    44    38    31    1
    45    39    40    1
    46    41    42    1
    47    41    35    1
    48    44    30    1
