@<TRIPOS>MOLECULE
outputs/IAG933/test6/raw/output_6734_IAG933_linker_design_.xyz
 44 47 0 0 0
SMALL
GASTEIGER

@<TRIPOS>ATOM
      1 C         -24.8550   -1.0120   30.1430 C.3     1  UNL1        0.0530
      2 C         -24.9730   -2.5050   29.7880 C.2     1  UNL1       -0.0198
      3 C         -23.9060   -3.1730   29.1460 C.2     1  UNL1       -0.0042
      4 C         -23.9890   -4.5490   28.8530 C.2     1  UNL1       -0.0003
      5 C         -25.1370   -5.2800   29.2050 C.2     1  UNL1       -0.0000
      6 C         -26.2320   -4.6110   29.7840 C.2     1  UNL1       -0.0003
      7 C         -26.1550   -3.2320   30.0650 C.2     1  UNL1       -0.0042
      8 C         -25.3870   -0.6790   31.5710 C.3     1  UNL1        0.0781
      9 C         -25.1890    0.7730   32.0280 C.3     1  UNL1        0.0192
     10 C         -25.3360    0.6840   33.5440 C.3     1  UNL1        0.0202
     11 C         -24.8290   -0.7150   33.9050 C.3     1  UNL1        0.0887
     12 N         -24.7580   -1.4810   32.6460 N.3     1  UNL1       -0.2191
     13 C         -25.6880    1.6140   26.4610 C.3     1  UNL1        0.1284
     14 C         -26.2500    2.9200   26.3950 C.2     1  UNL1        0.0696
     15 C         -25.6420    4.0930   27.1230 C.2     1  UNL1        0.2637
     16 N         -25.6140    5.2520   26.4490 N.am    1  UNL1       -0.2000
     17 C         -25.0260    6.4790   26.9630 C.3     1  UNL1        0.1388
     18 O         -25.1430    3.9660   28.2430 O.2     1  UNL1       -0.2686
     19 C         -27.4380    3.0910   25.6450 C.2     1  UNL1        0.1035
     20 N         -28.0750    2.0890   25.0030 N.2     1  UNL1       -0.2118
     21 C         -27.5430    0.8490   25.0790 C.2     1  UNL1        0.2355
     22 O         -28.1930   -0.2080   24.4770 O.2     1  UNL1       -0.4585
     23 C         -29.4600    0.0050   23.8660 C.3     1  UNL1        0.2423
     24 C         -30.0650   -1.3770   23.5730 C.3     1  UNL1        0.2292
     25 O         -30.7290   -1.8780   24.7210 O.3     1  UNL1       -0.2162
     26 C         -26.3540    0.5760   25.7770 C.3     1  UNL1        0.2546
     27 F         -25.8600   -0.6810   25.7950 F       1  UNL1       -0.2254
     28 C         -22.7689    0.9306   28.1431 C.3     1  UNL1        0.2006
     29 C         -23.6980    0.9793   27.0749 C.3     1  UNL1        0.1084
     30 C         -21.6632    1.7488   27.5637 C.3     1  UNL1        0.2162
     31 N         -32.2213    1.7161   31.6804 N.3     1  UNL1       -0.1286
     32 C         -27.8545   -0.5221   28.8768 C.3     1  UNL1        0.0065
     33 C         -29.0273    0.0433   29.5466 C.3     1  UNL1        0.0626
     34 N         -24.9192    1.3631   27.6318 N.3     1  UNL1       -0.2662
     35 C         -30.2708   -0.1822   29.2274 C.3     1  UNL1        0.1827
     36 C         -32.3083    1.2480   30.2684 C.3     1  UNL1        0.1413
     37 O         -20.4179    1.1020   27.7730 O.3     1  UNL1       -0.2175
     38 C         -25.2566    0.1520   28.7485 C.3     1  UNL1        0.0633
     39 C         -26.7561    0.5366   29.0573 C.3     1  UNL1        0.0165
     40 O         -22.5811   -0.1465   28.8374 O.3     1  UNL1       -0.2188
     41 O         -30.0351    1.7789   30.1250 O.3     1  UNL1       -0.3520
     42 C         -30.9352    0.9258   29.8153 C.3     1  UNL1        0.1644
     43 O         -30.6299   -1.3752   28.6790 O.3     1  UNL1       -0.2204
     44 C         -29.0134    1.5138   29.3335 C.3     1  UNL1        0.1448
@<TRIPOS>BOND
     1     1    38    1
     2     2     7    1
     3     2     1    1
     4     3     2    2
     5     4     3    1
     6     4     5    2
     7     5     6    1
     8     6     7    2
     9     8     1    1
    10     8     9    1
    11     8    12    1
    12     9    10    1
    13    10    11    1
    14    12    11    1
    15    13    34    1
    16    14    13    1
    17    14    15    1
    18    15    18    2
    19    16    17    1
    20    16    15    1
    21    19    14    2
    22    20    21    2
    23    20    19    1
    24    21    26    1
    25    22    21    1
    26    23    22    1
    27    24    23    1
    28    24    25    1
    29    26    27    1
    30    26    13    1
    31    28    40    1
    32    29    34    1
    33    29    28    1
    34    30    37    1
    35    30    28    1
    36    32    39    1
    37    33    32    1
    38    34    38    1
    39    35    43    1
    40    35    33    1
    41    35    42    1
    42    36    31    1
    43    38    39    1
    44    42    41    1
    45    42    36    1
    46    44    33    1
    47    44    41    1
