@<TRIPOS>MOLECULE
outputs/IAG933/test6/raw/output_6738_IAG933_linker_design_.xyz
 48 51 0 0 0
SMALL
GASTEIGER

@<TRIPOS>ATOM
      1 C         -24.8550   -1.0120   30.1430 C.3     1  UNL1        0.0404
      2 C         -24.9730   -2.5050   29.7880 C.2     1  UNL1       -0.0211
      3 C         -23.9060   -3.1730   29.1460 C.2     1  UNL1       -0.0042
      4 C         -23.9890   -4.5490   28.8530 C.2     1  UNL1       -0.0003
      5 C         -25.1370   -5.2800   29.2050 C.2     1  UNL1       -0.0000
      6 C         -26.2320   -4.6110   29.7840 C.2     1  UNL1       -0.0003
      7 C         -26.1550   -3.2320   30.0650 C.2     1  UNL1       -0.0042
      8 C         -25.3870   -0.6790   31.5710 C.3     1  UNL1        0.0769
      9 C         -25.1890    0.7730   32.0280 C.3     1  UNL1        0.0192
     10 C         -25.3360    0.6840   33.5440 C.3     1  UNL1        0.0202
     11 C         -24.8290   -0.7150   33.9050 C.3     1  UNL1        0.0887
     12 N         -24.7580   -1.4810   32.6460 N.3     1  UNL1       -0.2191
     13 C         -25.6880    1.6140   26.4610 C.3     1  UNL1        0.0706
     14 C         -26.2500    2.9200   26.3950 C.2     1  UNL1        0.0548
     15 C         -25.6420    4.0930   27.1230 C.2     1  UNL1        0.2624
     16 N         -25.6140    5.2520   26.4490 N.am    1  UNL1       -0.2000
     17 C         -25.0260    6.4790   26.9630 C.3     1  UNL1        0.1388
     18 O         -25.1430    3.9660   28.2430 O.2     1  UNL1       -0.2687
     19 C         -27.4380    3.0910   25.6450 C.2     1  UNL1        0.1021
     20 N         -28.0750    2.0890   25.0030 N.2     1  UNL1       -0.2119
     21 C         -27.5430    0.8490   25.0790 C.2     1  UNL1        0.2341
     22 O         -28.1930   -0.2080   24.4770 O.2     1  UNL1       -0.4585
     23 C         -29.4600    0.0050   23.8660 C.3     1  UNL1        0.2423
     24 C         -30.0650   -1.3770   23.5730 C.3     1  UNL1        0.2292
     25 O         -30.7290   -1.8780   24.7210 O.3     1  UNL1       -0.2162
     26 C         -26.3540    0.5760   25.7770 C.3     1  UNL1        0.2400
     27 F         -25.8600   -0.6810   25.7950 F       1  UNL1       -0.2269
     28 O         -30.0466   -0.4767   27.1166 O.2     1  UNL1       -0.2913
     29 C         -32.1488    0.6752   29.0924 C.3     1  UNL1        0.1473
     30 C         -32.9424   -1.5041   28.4054 C.3     1  UNL1        0.1076
     31 C         -30.6953    0.4096   29.3575 C.3     1  UNL1        0.2785
     32 N         -32.7372   -0.1658   27.9553 N.3     1  UNL1       -0.2117
     33 C         -24.1030    0.9421   28.1671 C.3     1  UNL1        0.0601
     34 C         -29.1921    3.0425   32.1465 C.3     1  UNL1        0.2535
     35 C         -21.6206    1.4744   27.6329 C.3     1  UNL1        0.0722
     36 C         -24.2069    1.4139   26.6088 C.3     1  UNL1        0.0152
     37 C         -25.0175   -0.0780   28.9601 C.3     1  UNL1        0.0339
     38 C         -28.0832    0.8382   29.6063 C.2     1  UNL1        0.1301
     39 C         -22.6163    0.6187   28.4138 C.2     1  UNL1        0.1508
     40 C         -28.5991   -0.4853   28.8995 C.3     1  UNL1        0.1190
     41 C         -29.0347    1.5817   30.3779 C.2     1  UNL1        0.3207
     42 C         -29.9025   -0.2891   28.2410 C.2     1  UNL1        0.2045
     43 C         -28.3390    3.8185   29.9087 C.3     1  UNL1        0.2535
     44 N         -28.9330    2.8170   30.7367 N.pl3   1  UNL1       -0.1840
     45 O         -22.1858   -0.3480   29.1156 O.2     1  UNL1       -0.2961
     46 C         -26.5329   -0.0658   28.6574 C.3     1  UNL1        0.1128
     47 N         -26.9725    1.2006   29.2922 N.pl3   1  UNL1       -0.2345
     48 N         -30.1946    0.9393   30.4902 N.pl3   1  UNL1       -0.0306
@<TRIPOS>BOND
     1     1    37    1
     2     2     7    1
     3     2     1    1
     4     3     2    2
     5     4     3    1
     6     4     5    2
     7     5     6    1
     8     6     7    2
     9     8     1    1
    10     8     9    1
    11     8    12    1
    12     9    10    1
    13    10    11    1
    14    12    11    1
    15    13    36    1
    16    14    13    1
    17    14    15    1
    18    15    18    2
    19    16    17    1
    20    16    15    1
    21    19    14    2
    22    20    21    2
    23    20    19    1
    24    21    26    1
    25    22    21    1
    26    23    22    1
    27    24    23    1
    28    24    25    1
    29    26    27    1
    30    26    13    1
    31    28    42    2
    32    31    29    1
    33    31    48    1
    34    32    30    1
    35    32    29    1
    36    33    36    1
    37    33    39    1
    38    33    37    1
    39    35    39    1
    40    37    46    1
    41    38    41    2
    42    39    45    2
    43    40    38    1
    44    41    48    1
    45    41    44    1
    46    42    40    1
    47    42    31    1
    48    43    44    1
    49    44    34    1
    50    46    47    1
    51    47    38    1
