@<TRIPOS>MOLECULE
outputs/IAG933/test6/raw/output_6745_IAG933_linker_design_.xyz
 44 48 0 0 0
SMALL
GASTEIGER

@<TRIPOS>ATOM
      1 C         -24.8550   -1.0120   30.1430 C.3     1  UNL1        0.0690
      2 C         -24.9730   -2.5050   29.7880 C.2     1  UNL1       -0.0187
      3 C         -23.9060   -3.1730   29.1460 C.2     1  UNL1       -0.0042
      4 C         -23.9890   -4.5490   28.8530 C.2     1  UNL1       -0.0003
      5 C         -25.1370   -5.2800   29.2050 C.2     1  UNL1       -0.0000
      6 C         -26.2320   -4.6110   29.7840 C.2     1  UNL1       -0.0003
      7 C         -26.1550   -3.2320   30.0650 C.2     1  UNL1       -0.0042
      8 C         -25.3870   -0.6790   31.5710 C.3     1  UNL1        0.0793
      9 C         -25.1890    0.7730   32.0280 C.3     1  UNL1        0.0193
     10 C         -25.3360    0.6840   33.5440 C.3     1  UNL1        0.0202
     11 C         -24.8290   -0.7150   33.9050 C.3     1  UNL1        0.0887
     12 N         -24.7580   -1.4810   32.6460 N.3     1  UNL1       -0.2190
     13 C         -25.6880    1.6140   26.4610 C.2     1  UNL1        0.0431
     14 C         -26.2500    2.9200   26.3950 C.2     1  UNL1        0.0748
     15 C         -25.6420    4.0930   27.1230 C.2     1  UNL1        0.2662
     16 N         -25.6140    5.2520   26.4490 N.am    1  UNL1       -0.1997
     17 C         -25.0260    6.4790   26.9630 C.3     1  UNL1        0.1388
     18 O         -25.1430    3.9660   28.2430 O.2     1  UNL1       -0.2683
     19 C         -27.4380    3.0910   25.6450 C.2     1  UNL1        0.1065
     20 N         -28.0750    2.0890   25.0030 N.2     1  UNL1       -0.2081
     21 C         -27.5430    0.8490   25.0790 C.2     1  UNL1        0.2530
     22 O         -28.1930   -0.2080   24.4770 O.2     1  UNL1       -0.4558
     23 C         -29.4600    0.0050   23.8660 C.3     1  UNL1        0.2426
     24 C         -30.0650   -1.3770   23.5730 C.3     1  UNL1        0.2292
     25 O         -30.7290   -1.8780   24.7210 O.3     1  UNL1       -0.2162
     26 C         -26.3540    0.5760   25.7770 C.2     1  UNL1        0.1914
     27 F         -25.8600   -0.6810   25.7950 F       1  UNL1       -0.1995
     28 C         -19.1298    1.9319   26.8750 C.3     1  UNL1        0.3408
     29 C         -22.7303    1.0211   28.9552 C.3     1  UNL1        0.3135
     30 C         -21.3253    1.5933   27.9372 C.2     1  UNL1        0.2157
     31 F         -22.1724    1.8876   24.3374 F       1  UNL1       -0.1668
     32 C         -24.0032    0.3735   28.1495 C.3     1  UNL1        0.1288
     33 O         -19.9692    1.7706   28.1611 O.2     1  UNL1       -0.4392
     34 O         -23.3031    2.0814   29.6229 O.3     1  UNL1       -0.1816
     35 C         -17.9278    2.5787   27.1385 C.3     1  UNL1        0.0996
     36 F         -23.2738    3.2356   25.5663 F       1  UNL1       -0.1668
     37 O         -26.5111   -0.4070   28.6037 O.3     1  UNL1       -0.2225
     38 F         -22.1886    0.1487   29.7769 F       1  UNL1       -0.1984
     39 O         -20.0755    1.9349   25.9040 O.2     1  UNL1       -0.4363
     40 C         -22.4267    2.0974   25.7184 C.3     1  UNL1        0.4207
     41 C         -21.4950    1.8171   26.6033 C.2     1  UNL1        0.2436
     42 O         -23.3817    1.1423   26.0169 O.3     1  UNL1       -0.2979
     43 C         -24.3344    1.3894   27.0512 C.3     1  UNL1        0.1536
     44 C         -25.2205   -0.2714   28.8989 C.3     1  UNL1        0.1655
@<TRIPOS>BOND
     1     1    44    1
     2     2     7    1
     3     2     1    1
     4     3     2    2
     5     4     3    1
     6     4     5    2
     7     5     6    1
     8     6     7    2
     9     8     1    1
    10     8     9    1
    11     8    12    1
    12     9    10    1
    13    10    11    1
    14    12    11    1
    15    14    13    1
    16    14    15    1
    17    15    18    2
    18    16    17    1
    19    16    15    1
    20    19    14    2
    21    20    21    2
    22    20    19    1
    23    21    26    1
    24    22    21    1
    25    23    22    1
    26    24    23    1
    27    24    25    1
    28    26    27    1
    29    26    13    2
    30    28    35    1
    31    28    33    1
    32    29    34    1
    33    29    38    1
    34    30    33    1
    35    30    29    1
    36    31    40    1
    37    32    44    1
    38    32    29    1
    39    36    40    1
    40    39    41    1
    41    39    28    1
    42    40    42    1
    43    40    41    1
    44    41    30    2
    45    42    43    1
    46    43    13    1
    47    43    32    1
    48    44    37    1
