@<TRIPOS>MOLECULE
outputs/IAG933/test6/raw/output_6748_IAG933_linker_design_.xyz
 48 51 0 0 0
SMALL
GASTEIGER

@<TRIPOS>ATOM
      1 C         -24.8550   -1.0120   30.1430 C.3     1  UNL1        0.0814
      2 C         -24.9730   -2.5050   29.7880 C.2     1  UNL1       -0.0152
      3 C         -23.9060   -3.1730   29.1460 C.2     1  UNL1       -0.0038
      4 C         -23.9890   -4.5490   28.8530 C.2     1  UNL1       -0.0003
      5 C         -25.1370   -5.2800   29.2050 C.2     1  UNL1       -0.0000
      6 C         -26.2320   -4.6110   29.7840 C.2     1  UNL1       -0.0003
      7 C         -26.1550   -3.2320   30.0650 C.2     1  UNL1       -0.0038
      8 C         -25.3870   -0.6790   31.5710 C.3     1  UNL1        0.0827
      9 C         -25.1890    0.7730   32.0280 C.3     1  UNL1        0.0196
     10 C         -25.3360    0.6840   33.5440 C.3     1  UNL1        0.0203
     11 C         -24.8290   -0.7150   33.9050 C.3     1  UNL1        0.0887
     12 N         -24.7580   -1.4810   32.6460 N.3     1  UNL1       -0.2187
     13 C         -25.6880    1.6140   26.4610 C.2     1  UNL1        0.0350
     14 C         -26.2500    2.9200   26.3950 C.2     1  UNL1        0.0742
     15 C         -25.6420    4.0930   27.1230 C.2     1  UNL1        0.2662
     16 N         -25.6140    5.2520   26.4490 N.am    1  UNL1       -0.1997
     17 C         -25.0260    6.4790   26.9630 C.3     1  UNL1        0.1388
     18 O         -25.1430    3.9660   28.2430 O.2     1  UNL1       -0.2683
     19 C         -27.4380    3.0910   25.6450 C.2     1  UNL1        0.1065
     20 N         -28.0750    2.0890   25.0030 N.2     1  UNL1       -0.2081
     21 C         -27.5430    0.8490   25.0790 C.2     1  UNL1        0.2530
     22 O         -28.1930   -0.2080   24.4770 O.2     1  UNL1       -0.4558
     23 C         -29.4600    0.0050   23.8660 C.3     1  UNL1        0.2426
     24 C         -30.0650   -1.3770   23.5730 C.3     1  UNL1        0.2292
     25 O         -30.7290   -1.8780   24.7210 O.3     1  UNL1       -0.2162
     26 C         -26.3540    0.5760   25.7770 C.2     1  UNL1        0.1907
     27 F         -25.8600   -0.6810   25.7950 F       1  UNL1       -0.1995
     28 C         -25.9289    5.8323   33.0425 C.2     1  UNL1        0.0120
     29 C         -25.6096   -0.2673   29.0029 C.2     1  UNL1        0.0662
     30 C         -24.2490    4.3404   32.1345 C.2     1  UNL1        0.0120
     31 C         -28.4403    2.5216   30.4683 C.1     1  UNL1       -0.0491
     32 C         -27.0418   -0.0367   28.8780 C.1     1  UNL1       -0.0916
     33 C         -26.9417    5.1981   32.3511 C.2     1  UNL1        0.0091
     34 CL        -23.3428    6.2124   33.6896 Cl      1  UNL1       -0.0822
     35 CL        -23.1301    2.7288   25.2981 Cl      1  UNL1       -0.1129
     36 C         -25.2330    3.7049   31.3591 C.2     1  UNL1        0.0091
     37 N         -23.3902    1.8419   29.8359 N.3     1  UNL1       -0.1073
     38 C         -23.0816    2.1110   27.0029 C.3     1  UNL1        0.1023
     39 O         -29.6355    0.4511   30.9595 O.3     1  UNL1       -0.2031
     40 C         -21.2813    1.9054   27.4247 C.3     1  UNL1        0.0196
     41 C         -24.4682    1.2072   27.1873 C.3     1  UNL1        0.1143
     42 C         -23.5369    0.6359   29.0543 C.3     1  UNL1        0.2034
     43 C         -24.5618    5.4484   32.8961 C.2     1  UNL1        0.0577
     44 C         -27.5900    3.3209   30.9539 C.1     1  UNL1       -0.0616
     45 C         -29.2905    1.3507   29.9052 C.3     1  UNL1        0.2450
     46 C         -26.6549    4.0688   31.4789 C.2     1  UNL1        0.0418
     47 N         -24.5214    0.5088   28.3817 N.pl3   1  UNL1       -0.2853
     48 C         -28.3160    0.7298   28.6956 C.2     1  UNL1        0.0619
@<TRIPOS>BOND
     1     1    29    1
     2     2     7    1
     3     2     1    1
     4     3     2    2
     5     4     3    1
     6     4     5    2
     7     5     6    1
     8     6     7    2
     9     8     1    1
    10     8     9    1
    11     8    12    1
    12     9    10    1
    13    10    11    1
    14    12    11    1
    15    13    41    1
    16    14    13    1
    17    14    15    1
    18    15    18    2
    19    16    17    1
    20    16    15    1
    21    19    14    2
    22    20    21    2
    23    20    19    1
    24    21    26    1
    25    22    21    1
    26    23    22    1
    27    24    23    1
    28    24    25    1
    29    26    27    1
    30    26    13    2
    31    30    43    2
    32    31    44    3
    33    32    29    2
    34    33    28    2
    35    35    38    1
    36    36    46    2
    37    36    30    1
    38    38    41    1
    39    38    40    1
    40    41    47    1
    41    42    37    1
    42    43    28    1
    43    43    34    1
    44    44    46    1
    45    45    31    1
    46    45    39    1
    47    46    33    1
    48    47    29    1
    49    47    42    1
    50    48    32    2
    51    48    45    1
