@<TRIPOS>MOLECULE
outputs/IAG933/test6/raw/output_675_IAG933_linker_design_.xyz
 42 45 0 0 0
SMALL
GASTEIGER

@<TRIPOS>ATOM
      1 C         -24.8550   -1.0120   30.1430 C.3     1  UNL1        0.0630
      2 C         -24.9730   -2.5050   29.7880 C.2     1  UNL1       -0.0170
      3 C         -23.9060   -3.1730   29.1460 C.2     1  UNL1       -0.0039
      4 C         -23.9890   -4.5490   28.8530 C.2     1  UNL1       -0.0003
      5 C         -25.1370   -5.2800   29.2050 C.2     1  UNL1       -0.0000
      6 C         -26.2320   -4.6110   29.7840 C.2     1  UNL1       -0.0003
      7 C         -26.1550   -3.2320   30.0650 C.2     1  UNL1       -0.0039
      8 C         -25.3870   -0.6790   31.5710 C.3     1  UNL1        0.0809
      9 C         -25.1890    0.7730   32.0280 C.3     1  UNL1        0.0195
     10 C         -25.3360    0.6840   33.5440 C.3     1  UNL1        0.0203
     11 C         -24.8290   -0.7150   33.9050 C.3     1  UNL1        0.0887
     12 N         -24.7580   -1.4810   32.6460 N.3     1  UNL1       -0.2188
     13 C         -25.6880    1.6140   26.4610 C.2     1  UNL1        0.0271
     14 C         -26.2500    2.9200   26.3950 C.2     1  UNL1        0.0733
     15 C         -25.6420    4.0930   27.1230 C.2     1  UNL1        0.2661
     16 N         -25.6140    5.2520   26.4490 N.am    1  UNL1       -0.1997
     17 C         -25.0260    6.4790   26.9630 C.3     1  UNL1        0.1388
     18 O         -25.1430    3.9660   28.2430 O.2     1  UNL1       -0.2683
     19 C         -27.4380    3.0910   25.6450 C.2     1  UNL1        0.1064
     20 N         -28.0750    2.0890   25.0030 N.2     1  UNL1       -0.2081
     21 C         -27.5430    0.8490   25.0790 C.2     1  UNL1        0.2530
     22 O         -28.1930   -0.2080   24.4770 O.2     1  UNL1       -0.4558
     23 C         -29.4600    0.0050   23.8660 C.3     1  UNL1        0.2426
     24 C         -30.0650   -1.3770   23.5730 C.3     1  UNL1        0.2292
     25 O         -30.7290   -1.8780   24.7210 O.3     1  UNL1       -0.2162
     26 C         -26.3540    0.5760   25.7770 C.2     1  UNL1        0.1898
     27 F         -25.8600   -0.6810   25.7950 F       1  UNL1       -0.1996
     28 F         -19.6791    1.7910   28.1527 F       1  UNL1        0.0139
     29 C         -25.0549    0.0196   29.0034 C.2     1  UNL1        0.0147
     30 C         -26.2694    0.0379   28.6174 C.2     1  UNL1        0.1696
     31 C         -27.3688    0.9964   29.0511 C.3     1  UNL1        0.0769
     32 C         -22.1044    1.6314   27.5525 C.2     1  UNL1        0.2299
     33 C         -22.6427    0.8611   28.4325 C.2     1  UNL1        0.1173
     34 O         -22.4225   -0.1980   30.5643 O.co2   1  UNL1       -0.2404
     35 O         -23.0293    2.6229   25.5640 O.2     1  UNL1       -0.2873
     36 C         -23.1992    1.9339   26.6161 C.2     1  UNL1        0.2188
     37 O         -20.7608    1.9191   27.3734 O.2     1  UNL1       -0.2887
     38 O         -26.4999   -0.8215   27.8182 O.2     1  UNL1       -0.2917
     39 C         -24.3758    1.4049   27.0941 C.3     1  UNL1        0.1122
     40 O         -20.6034   -0.2408   29.0035 O.co2   1  UNL1       -0.2404
     41 C         -24.1090    0.7103   28.2665 C.2     1  UNL1       -0.0022
     42 C         -21.9922    0.0526   29.3421 C.2     1  UNL1        0.3906
@<TRIPOS>BOND
     1     1    29    1
     2     2     7    1
     3     2     1    1
     4     3     2    2
     5     4     3    1
     6     4     5    2
     7     5     6    1
     8     6     7    2
     9     8     1    1
    10     8     9    1
    11     8    12    1
    12     9    10    1
    13    10    11    1
    14    12    11    1
    15    14    13    1
    16    14    15    1
    17    15    18    2
    18    16    17    1
    19    16    15    1
    20    19    14    2
    21    20    21    2
    22    20    19    1
    23    21    26    1
    24    22    21    1
    25    23    22    1
    26    24    23    1
    27    24    25    1
    28    26    27    1
    29    26    13    2
    30    30    29    1
    31    30    31    1
    32    32    33    2
    33    33    42    1
    34    35    36    2
    35    36    39    1
    36    36    32    1
    37    37    32    1
    38    37    28    1
    39    38    30    2
    40    39    13    1
    41    39    41    1
    42    40    42   ar
    43    41    33    1
    44    41    29    2
    45    42    34   ar
