@<TRIPOS>MOLECULE
outputs/IAG933/test6/raw/output_6756_IAG933_linker_design_.xyz
 42 45 0 0 0
SMALL
GASTEIGER

@<TRIPOS>ATOM
      1 C         -24.8550   -1.0120   30.1430 C.3     1  UNL1        0.2039
      2 C         -24.9730   -2.5050   29.7880 C.2     1  UNL1        0.0186
      3 C         -23.9060   -3.1730   29.1460 C.2     1  UNL1       -0.0008
      4 C         -23.9890   -4.5490   28.8530 C.2     1  UNL1       -0.0002
      5 C         -25.1370   -5.2800   29.2050 C.2     1  UNL1       -0.0000
      6 C         -26.2320   -4.6110   29.7840 C.2     1  UNL1       -0.0002
      7 C         -26.1550   -3.2320   30.0650 C.2     1  UNL1       -0.0008
      8 C         -25.3870   -0.6790   31.5710 C.3     1  UNL1        0.1170
      9 C         -25.1890    0.7730   32.0280 C.3     1  UNL1        0.0251
     10 C         -25.3360    0.6840   33.5440 C.3     1  UNL1        0.0204
     11 C         -24.8290   -0.7150   33.9050 C.3     1  UNL1        0.0888
     12 N         -24.7580   -1.4810   32.6460 N.3     1  UNL1       -0.2154
     13 C         -25.6880    1.6140   26.4610 C.2     1  UNL1        0.0419
     14 C         -26.2500    2.9200   26.3950 C.2     1  UNL1        0.0767
     15 C         -25.6420    4.0930   27.1230 C.2     1  UNL1        0.2664
     16 N         -25.6140    5.2520   26.4490 N.am    1  UNL1       -0.1997
     17 C         -25.0260    6.4790   26.9630 C.3     1  UNL1        0.1388
     18 O         -25.1430    3.9660   28.2430 O.2     1  UNL1       -0.2683
     19 C         -27.4380    3.0910   25.6450 C.2     1  UNL1        0.1067
     20 N         -28.0750    2.0890   25.0030 N.2     1  UNL1       -0.2081
     21 C         -27.5430    0.8490   25.0790 C.2     1  UNL1        0.2533
     22 O         -28.1930   -0.2080   24.4770 O.2     1  UNL1       -0.4558
     23 C         -29.4600    0.0050   23.8660 C.3     1  UNL1        0.2426
     24 C         -30.0650   -1.3770   23.5730 C.3     1  UNL1        0.2292
     25 O         -30.7290   -1.8780   24.7210 O.3     1  UNL1       -0.2162
     26 C         -26.3540    0.5760   25.7770 C.2     1  UNL1        0.1932
     27 F         -25.8600   -0.6810   25.7950 F       1  UNL1       -0.1992
     28 C         -22.1316    1.6200   27.5760 C.2     1  UNL1        0.1508
     29 C         -22.2904    1.1032   28.8307 C.2     1  UNL1        0.0336
     30 F         -20.8959    1.9184   27.2107 F       1  UNL1       -0.2033
     31 C         -23.2774    1.7726   26.7969 C.2     1  UNL1        0.0880
     32 CL        -23.1331    2.4201   25.2696 Cl      1  UNL1       -0.0798
     33 C         -24.5451    1.3556   27.1971 C.2     1  UNL1        0.0493
     34 C         -25.6135    2.0990   31.3851 C.3     1  UNL1        0.0489
     35 O         -25.5242   -0.2048   29.0695 O.2     1  UNL1       -0.4733
     36 O         -25.2037    4.6038   31.4950 O.2     1  UNL1       -0.4622
     37 C         -25.2690    3.3561   32.1822 C.3     1  UNL1        0.2069
     38 C         -23.5953    0.7511   29.1701 C.2     1  UNL1        0.0393
     39 N         -25.5709    6.8920   31.8546 N.2     1  UNL1       -0.1122
     40 C         -24.5328    5.6325   33.6020 C.3     1  UNL1        0.0962
     41 C         -24.6462    0.6968   28.4355 C.2     1  UNL1        0.1399
     42 C         -25.1359    5.7111   32.2747 C.2     1  UNL1        0.2200
@<TRIPOS>BOND
     1     1    35    1
     2     2     7    1
     3     2     1    1
     4     3     2    2
     5     4     3    1
     6     4     5    2
     7     5     6    1
     8     6     7    2
     9     8     1    1
    10     8     9    1
    11     8    12    1
    12     9    34    1
    13     9    10    1
    14    10    11    1
    15    12    11    1
    16    13    33    1
    17    14    13    1
    18    14    15    1
    19    15    18    2
    20    16    17    1
    21    16    15    1
    22    19    14    2
    23    20    21    2
    24    20    19    1
    25    21    26    1
    26    22    21    1
    27    23    22    1
    28    24    23    1
    29    24    25    1
    30    26    27    1
    31    26    13    2
    32    28    29    1
    33    29    38    2
    34    30    28    1
    35    31    33    1
    36    31    28    2
    37    32    31    1
    38    33    41    2
    39    34    37    1
    40    36    37    1
    41    36    42    1
    42    39    42    2
    43    41    35    1
    44    41    38    1
    45    42    40    1
