@<TRIPOS>MOLECULE
outputs/IAG933/test6/raw/output_676_IAG933_linker_design_.xyz
 46 50 0 0 0
SMALL
GASTEIGER

@<TRIPOS>ATOM
      1 C         -24.8550   -1.0120   30.1430 C.3     1  UNL1        0.0439
      2 C         -24.9730   -2.5050   29.7880 C.2     1  UNL1       -0.0208
      3 C         -23.9060   -3.1730   29.1460 C.2     1  UNL1       -0.0042
      4 C         -23.9890   -4.5490   28.8530 C.2     1  UNL1       -0.0003
      5 C         -25.1370   -5.2800   29.2050 C.2     1  UNL1       -0.0000
      6 C         -26.2320   -4.6110   29.7840 C.2     1  UNL1       -0.0003
      7 C         -26.1550   -3.2320   30.0650 C.2     1  UNL1       -0.0042
      8 C         -25.3870   -0.6790   31.5710 C.3     1  UNL1        0.0821
      9 C         -25.1890    0.7730   32.0280 C.3     1  UNL1        0.0768
     10 C         -25.3360    0.6840   33.5440 C.3     1  UNL1        0.0253
     11 C         -24.8290   -0.7150   33.9050 C.3     1  UNL1        0.0889
     12 N         -24.7580   -1.4810   32.6460 N.3     1  UNL1       -0.2189
     13 C         -25.6880    1.6140   26.4610 C.2     1  UNL1        0.0530
     14 C         -26.2500    2.9200   26.3950 C.2     1  UNL1        0.0756
     15 C         -25.6420    4.0930   27.1230 C.2     1  UNL1        0.2662
     16 N         -25.6140    5.2520   26.4490 N.am    1  UNL1       -0.1997
     17 C         -25.0260    6.4790   26.9630 C.3     1  UNL1        0.1388
     18 O         -25.1430    3.9660   28.2430 O.2     1  UNL1       -0.2683
     19 C         -27.4380    3.0910   25.6450 C.2     1  UNL1        0.1065
     20 N         -28.0750    2.0890   25.0030 N.2     1  UNL1       -0.2081
     21 C         -27.5430    0.8490   25.0790 C.2     1  UNL1        0.2531
     22 O         -28.1930   -0.2080   24.4770 O.2     1  UNL1       -0.4558
     23 C         -29.4600    0.0050   23.8660 C.3     1  UNL1        0.2426
     24 C         -30.0650   -1.3770   23.5730 C.3     1  UNL1        0.2292
     25 O         -30.7290   -1.8780   24.7210 O.3     1  UNL1       -0.2162
     26 C         -26.3540    0.5760   25.7770 C.2     1  UNL1        0.1922
     27 F         -25.8600   -0.6810   25.7950 F       1  UNL1       -0.1995
     28 C         -24.7607    5.8785   33.2378 C.2     1  UNL1        0.1501
     29 C         -24.6809    8.5267   34.2674 C.2     1  UNL1       -0.0217
     30 N         -25.2906    2.8255   31.0971 N.am    1  UNL1       -0.1308
     31 O         -24.7566    4.3537   32.8762 O.3     1  UNL1       -0.4090
     32 C         -24.2024    6.1932   34.4892 C.2     1  UNL1        0.0373
     33 C         -24.6586    1.7433   30.9463 C.3     1  UNL1        0.2688
     34 C         -25.2854    3.9941   31.5550 C.2     1  UNL1        0.4284
     35 C         -24.1322    7.4844   34.9329 C.2     1  UNL1       -0.0011
     36 C         -24.7814    9.8594   34.9962 C.3     1  UNL1        0.0310
     37 C         -25.1315    8.2756   32.9488 C.2     1  UNL1       -0.0011
     38 N         -23.5532    1.8131   27.6215 N.pl3   1  UNL1       -0.1878
     39 C         -24.6230    1.1742   27.1543 C.3     1  UNL1        0.1970
     40 C         -25.2051    6.9557   32.4225 C.2     1  UNL1        0.0373
     41 C         -21.2946    1.8085   27.3771 C.3     1  UNL1        0.2599
     42 C         -22.5067    1.7983   26.4346 C.3     1  UNL1        0.2144
     43 N         -21.5968    1.4627   28.6686 N.2     1  UNL1       -0.0952
     44 O         -25.8565    4.8515   30.8705 O.2     1  UNL1       -0.2240
     45 C         -22.9556    1.5941   28.8125 C.cat   1  UNL1        0.4053
     46 N         -23.6839    1.6155   29.9350 N.pl3   1  UNL1       -0.0464
@<TRIPOS>BOND
     1     2     7    1
     2     2     1    1
     3     3     2    2
     4     4     3    1
     5     4     5    2
     6     5     6    1
     7     6     7    2
     8     8     1    1
     9     8     9    1
    10     8    12    1
    11     9    33    1
    12     9    10    1
    13    10    11    1
    14    12    11    1
    15    13    39    1
    16    14    13    1
    17    14    15    1
    18    15    18    2
    19    16    17    1
    20    16    15    1
    21    19    14    2
    22    20    21    2
    23    20    19    1
    24    21    26    1
    25    22    21    1
    26    23    22    1
    27    24    23    1
    28    24    25    1
    29    26    27    1
    30    26    13    2
    31    28    32    1
    32    29    35    1
    33    29    36    1
    34    30    34    1
    35    31    28    1
    36    32    35    2
    37    33    46    1
    38    33    30    1
    39    34    31    1
    40    37    29    2
    41    38    45    1
    42    39    38    1
    43    40    37    1
    44    40    28    2
    45    41    43    1
    46    42    41    1
    47    42    38    1
    48    43    45    2
    49    44    34    2
    50    45    46    1
