@<TRIPOS>MOLECULE
outputs/IAG933/test6/raw/output_6764_IAG933_linker_design_.xyz
 50 55 0 0 0
SMALL
GASTEIGER

@<TRIPOS>ATOM
      1 C         -24.8550   -1.0120   30.1430 C.3     1  UNL1        0.0383
      2 C         -24.9730   -2.5050   29.7880 C.2     1  UNL1       -0.0212
      3 C         -23.9060   -3.1730   29.1460 C.2     1  UNL1       -0.0042
      4 C         -23.9890   -4.5490   28.8530 C.2     1  UNL1       -0.0003
      5 C         -25.1370   -5.2800   29.2050 C.2     1  UNL1       -0.0000
      6 C         -26.2320   -4.6110   29.7840 C.2     1  UNL1       -0.0003
      7 C         -26.1550   -3.2320   30.0650 C.2     1  UNL1       -0.0042
      8 C         -25.3870   -0.6790   31.5710 C.3     1  UNL1        0.0768
      9 C         -25.1890    0.7730   32.0280 C.3     1  UNL1        0.0192
     10 C         -25.3360    0.6840   33.5440 C.3     1  UNL1        0.0202
     11 C         -24.8290   -0.7150   33.9050 C.3     1  UNL1        0.0887
     12 N         -24.7580   -1.4810   32.6460 N.3     1  UNL1       -0.2191
     13 C         -25.6880    1.6140   26.4610 C.2     1  UNL1        0.0156
     14 C         -26.2500    2.9200   26.3950 C.2     1  UNL1        0.0726
     15 C         -25.6420    4.0930   27.1230 C.2     1  UNL1        0.2661
     16 N         -25.6140    5.2520   26.4490 N.am    1  UNL1       -0.1997
     17 C         -25.0260    6.4790   26.9630 C.3     1  UNL1        0.1388
     18 O         -25.1430    3.9660   28.2430 O.2     1  UNL1       -0.2683
     19 C         -27.4380    3.0910   25.6450 C.2     1  UNL1        0.1064
     20 N         -28.0750    2.0890   25.0030 N.2     1  UNL1       -0.2081
     21 C         -27.5430    0.8490   25.0790 C.2     1  UNL1        0.2530
     22 O         -28.1930   -0.2080   24.4770 O.2     1  UNL1       -0.4558
     23 C         -29.4600    0.0050   23.8660 C.3     1  UNL1        0.2426
     24 C         -30.0650   -1.3770   23.5730 C.3     1  UNL1        0.2292
     25 O         -30.7290   -1.8780   24.7210 O.3     1  UNL1       -0.2162
     26 C         -26.3540    0.5760   25.7770 C.2     1  UNL1        0.1891
     27 F         -25.8600   -0.6810   25.7950 F       1  UNL1       -0.1996
     28 C         -25.2456    0.0817   29.1632 C.3     1  UNL1        0.0061
     29 C         -24.4148    1.3648   27.0710 C.3     1  UNL1        0.0277
     30 C         -29.8868   -0.1661   29.7470 C.3     1  UNL1        0.1765
     31 O         -26.9295    2.7939   31.9180 O.2     1  UNL1       -0.2730
     32 C         -22.9067    1.1626   28.5948 C.3     1  UNL1        0.0356
     33 C         -28.2607    3.3978   30.0848 C.3     1  UNL1        0.0963
     34 C         -28.6836    5.6414   31.3222 C.3     1  UNL1        0.0242
     35 C         -27.2771    5.8432   30.6865 C.3     1  UNL1        0.1152
     36 C         -26.6760    0.2256   28.9360 C.3     1  UNL1        0.0044
     37 N         -26.3584    4.7194   30.8510 N.am    1  UNL1       -0.2052
     38 C         -22.4136    1.5750   27.3958 C.3     1  UNL1        0.1613
     39 C         -27.1283    3.5737   31.0123 C.2     1  UNL1        0.2447
     40 C         -29.3287    4.3716   30.7053 C.3     1  UNL1        0.0150
     41 O         -29.9728   -2.4729   30.0189 O.3     1  UNL1       -0.0344
     42 O         -30.2930   -1.2168   30.5245 O.3     1  UNL1       -0.1872
     43 C         -23.3615    1.6271   26.3616 C.3     1  UNL1        0.0397
     44 C         -28.5458    1.8268   29.8342 C.2     1  UNL1       -0.0381
     45 C         -28.6261    0.3189   27.9471 C.3     1  UNL1        0.0070
     46 C         -27.7947    0.8928   28.9474 C.3     1  UNL1        0.0186
     47 C         -29.4902   -0.5679   28.4874 C.3     1  UNL1        0.0379
     48 F         -21.0994    1.8550   27.0893 F       1  UNL1       -0.2373
     49 C         -29.6790    1.1278   30.2927 C.2     1  UNL1       -0.0018
     50 C         -24.2614    0.8569   28.3716 C.3     1  UNL1        0.0073
@<TRIPOS>BOND
     1     1    28    1
     2     2     7    1
     3     2     1    1
     4     3     2    2
     5     4     3    1
     6     4     5    2
     7     5     6    1
     8     6     7    2
     9     8     1    1
    10     8     9    1
    11     8    12    1
    12     9    10    1
    13    10    11    1
    14    12    11    1
    15    14    13    1
    16    14    15    1
    17    15    18    2
    18    16    17    1
    19    16    15    1
    20    19    14    2
    21    20    21    2
    22    20    19    1
    23    21    26    1
    24    22    21    1
    25    23    22    1
    26    24    23    1
    27    24    25    1
    28    26    27    1
    29    26    13    2
    30    28    36    1
    31    29    13    1
    32    29    50    1
    33    30    49    1
    34    30    42    1
    35    33    44    1
    36    33    40    1
    37    33    39    1
    38    35    37    1
    39    35    34    1
    40    37    39    1
    41    38    48    1
    42    38    32    1
    43    39    31    2
    44    40    34    1
    45    41    42    1
    46    43    29    1
    47    43    38    1
    48    44    49    2
    49    45    47    1
    50    45    46    1
    51    46    36    1
    52    46    44    1
    53    47    30    1
    54    50    32    1
    55    50    28    1
