@<TRIPOS>MOLECULE
outputs/IAG933/test6/raw/output_6766_IAG933_linker_design_.xyz
 41 45 0 0 0
SMALL
GASTEIGER

@<TRIPOS>ATOM
      1 C         -24.8550   -1.0120   30.1430 C.3     1  UNL1        0.0553
      2 C         -24.9730   -2.5050   29.7880 C.2     1  UNL1       -0.0198
      3 C         -23.9060   -3.1730   29.1460 C.2     1  UNL1       -0.0042
      4 C         -23.9890   -4.5490   28.8530 C.2     1  UNL1       -0.0003
      5 C         -25.1370   -5.2800   29.2050 C.2     1  UNL1       -0.0000
      6 C         -26.2320   -4.6110   29.7840 C.2     1  UNL1       -0.0003
      7 C         -26.1550   -3.2320   30.0650 C.2     1  UNL1       -0.0042
      8 C         -25.3870   -0.6790   31.5710 C.3     1  UNL1        0.0782
      9 C         -25.1890    0.7730   32.0280 C.3     1  UNL1        0.0192
     10 C         -25.3360    0.6840   33.5440 C.3     1  UNL1        0.0202
     11 C         -24.8290   -0.7150   33.9050 C.3     1  UNL1        0.0887
     12 N         -24.7580   -1.4810   32.6460 N.3     1  UNL1       -0.2191
     13 C         -25.6880    1.6140   26.4610 C.2     1  UNL1        0.0303
     14 C         -26.2500    2.9200   26.3950 C.2     1  UNL1        0.0738
     15 C         -25.6420    4.0930   27.1230 C.2     1  UNL1        0.2662
     16 N         -25.6140    5.2520   26.4490 N.am    1  UNL1       -0.1997
     17 C         -25.0260    6.4790   26.9630 C.3     1  UNL1        0.1388
     18 O         -25.1430    3.9660   28.2430 O.2     1  UNL1       -0.2683
     19 C         -27.4380    3.0910   25.6450 C.2     1  UNL1        0.1065
     20 N         -28.0750    2.0890   25.0030 N.2     1  UNL1       -0.2081
     21 C         -27.5430    0.8490   25.0790 C.2     1  UNL1        0.2530
     22 O         -28.1930   -0.2080   24.4770 O.2     1  UNL1       -0.4558
     23 C         -29.4600    0.0050   23.8660 C.3     1  UNL1        0.2426
     24 C         -30.0650   -1.3770   23.5730 C.3     1  UNL1        0.2292
     25 O         -30.7290   -1.8780   24.7210 O.3     1  UNL1       -0.2162
     26 C         -26.3540    0.5760   25.7770 C.2     1  UNL1        0.1904
     27 F         -25.8600   -0.6810   25.7950 F       1  UNL1       -0.1995
     28 N         -27.4014    1.0356   29.7199 N.3     1  UNL1       -0.1214
     29 C         -24.2398    1.1443   26.8479 C.3     1  UNL1        0.0827
     30 C         -26.8845    0.1306   28.9267 C.3     1  UNL1        0.1537
     31 S         -28.3433   -0.4929   27.9761 S.3     1  UNL1       -0.1192
     32 C         -25.4701   -0.1425   28.7974 C.3     1  UNL1        0.0910
     33 C         -21.9474    1.7729   26.6557 C.3     1  UNL1        0.0032
     34 CL        -28.8532    2.6520   31.0805 Cl      1  UNL1       -0.0027
     35 C         -22.8546    0.6154   28.7098 C.3     1  UNL1        0.0724
     36 C         -29.7277   -0.3571   29.0655 C.3     1  UNL1        0.0793
     37 N         -24.3215    0.6149   28.3478 N.3     1  UNL1       -0.2691
     38 C         -29.6257    0.3323   30.2196 C.3     1  UNL1        0.1197
     39 C         -23.2315    1.8629   26.0997 C.3     1  UNL1        0.0206
     40 N         -28.5308    1.1842   30.2355 N.3     1  UNL1       -0.1243
     41 C         -21.8240    1.5206   28.0155 C.3     1  UNL1        0.0174
@<TRIPOS>BOND
     1     1    32    1
     2     2     7    1
     3     2     1    1
     4     3     2    2
     5     4     3    1
     6     4     5    2
     7     5     6    1
     8     6     7    2
     9     8     1    1
    10     8     9    1
    11     8    12    1
    12     9    10    1
    13    10    11    1
    14    12    11    1
    15    14    13    1
    16    14    15    1
    17    15    18    2
    18    16    17    1
    19    16    15    1
    20    19    14    2
    21    20    21    2
    22    20    19    1
    23    21    26    1
    24    22    21    1
    25    23    22    1
    26    24    23    1
    27    24    25    1
    28    26    27    1
    29    26    13    2
    30    28    40    1
    31    29    13    1
    32    29    37    1
    33    30    32    1
    34    30    28    1
    35    31    30    1
    36    31    36    1
    37    32    37    1
    38    33    41    1
    39    36    38    1
    40    37    35    1
    41    38    40    1
    42    39    33    1
    43    39    29    1
    44    40    34    1
    45    41    35    1
