@<TRIPOS>MOLECULE
outputs/IAG933/test6/raw/output_6769_IAG933_linker_design_.xyz
 42 45 0 0 0
SMALL
GASTEIGER

@<TRIPOS>ATOM
      1 C         -24.8550   -1.0120   30.1430 C.3     1  UNL1        0.1131
      2 C         -24.9730   -2.5050   29.7880 C.2     1  UNL1       -0.0029
      3 C         -23.9060   -3.1730   29.1460 C.2     1  UNL1       -0.0026
      4 C         -23.9890   -4.5490   28.8530 C.2     1  UNL1       -0.0003
      5 C         -25.1370   -5.2800   29.2050 C.2     1  UNL1       -0.0000
      6 C         -26.2320   -4.6110   29.7840 C.2     1  UNL1       -0.0003
      7 C         -26.1550   -3.2320   30.0650 C.2     1  UNL1       -0.0026
      8 C         -25.3870   -0.6790   31.5710 C.3     1  UNL1        0.0951
      9 C         -25.1890    0.7730   32.0280 C.3     1  UNL1        0.0209
     10 C         -25.3360    0.6840   33.5440 C.3     1  UNL1        0.0203
     11 C         -24.8290   -0.7150   33.9050 C.3     1  UNL1        0.0888
     12 N         -24.7580   -1.4810   32.6460 N.3     1  UNL1       -0.2174
     13 C         -25.6880    1.6140   26.4610 C.2     1  UNL1        0.0602
     14 C         -26.2500    2.9200   26.3950 C.2     1  UNL1        0.0803
     15 C         -25.6420    4.0930   27.1230 C.2     1  UNL1        0.2667
     16 N         -25.6140    5.2520   26.4490 N.am    1  UNL1       -0.1997
     17 C         -25.0260    6.4790   26.9630 C.3     1  UNL1        0.1388
     18 O         -25.1430    3.9660   28.2430 O.2     1  UNL1       -0.2683
     19 C         -27.4380    3.0910   25.6450 C.2     1  UNL1        0.1067
     20 N         -28.0750    2.0890   25.0030 N.2     1  UNL1       -0.2112
     21 C         -27.5430    0.8490   25.0790 C.2     1  UNL1        0.2389
     22 O         -28.1930   -0.2080   24.4770 O.2     1  UNL1       -0.4583
     23 C         -29.4600    0.0050   23.8660 C.3     1  UNL1        0.2423
     24 C         -30.0650   -1.3770   23.5730 C.3     1  UNL1        0.2292
     25 O         -30.7290   -1.8780   24.7210 O.3     1  UNL1       -0.2162
     26 C         -26.3540    0.5760   25.7770 C.3     1  UNL1        0.2653
     27 F         -25.8600   -0.6810   25.7950 F       1  UNL1       -0.2217
     28 C         -23.3639    1.4262   25.7276 C.3     1  UNL1        0.1684
     29 N         -24.1143    0.0630   29.4547 N.pl3   1  UNL1       -0.2819
     30 C         -20.4874    0.6708   27.8379 C.3     1  UNL1        0.0509
     31 O         -22.4235    3.1954   24.3721 O.3     1  UNL1       -0.1000
     32 C         -24.8585    1.0653   27.4711 C.1     1  UNL1       -0.0894
     33 C         -23.2565   -0.0365   29.0113 C.3     1  UNL1        0.1927
     34 C         -23.5377    0.3086   24.7919 C.3     1  UNL1        0.2046
     35 C         -21.5911    1.3961   27.4963 C.3     1  UNL1        0.1437
     36 O         -22.1157    2.2189   27.3621 O.3     1  UNL1       -0.3521
     37 N         -22.4048    1.9859   25.0579 N.3     1  UNL1       -0.0440
     38 N         -21.9707   -0.5097   29.2300 N.3     1  UNL1       -0.1945
     39 C         -24.1915    0.4488   28.4973 C.2     1  UNL1        0.0968
     40 C         -20.8698   -0.3115   28.6519 C.3     1  UNL1        0.0935
     41 O         -23.5301    0.5639   23.3997 O.3     1  UNL1       -0.2187
     42 C         -22.8377    1.7269   26.5580 C.3     1  UNL1        0.1648
@<TRIPOS>BOND
     1     1     2    1
     2     2     7    1
     3     3     2    2
     4     4     3    1
     5     4     5    2
     6     5     6    1
     7     6     7    2
     8     8     1    1
     9     8     9    1
    10     8    12    1
    11     9    10    1
    12    10    11    1
    13    12    11    1
    14    13    32    2
    15    14    13    1
    16    14    15    1
    17    15    18    2
    18    16    17    1
    19    16    15    1
    20    19    14    2
    21    20    21    2
    22    20    19    1
    23    21    26    1
    24    22    21    1
    25    23    22    1
    26    24    23    1
    27    24    25    1
    28    26    27    1
    29    26    13    1
    30    28    34    1
    31    28    42    1
    32    29     1    1
    33    30    40    1
    34    31    37    1
    35    32    39    2
    36    33    38    1
    37    33    29    1
    38    35    30    1
    39    36    35    1
    40    37    28    1
    41    39    33    1
    42    39    29    1
    43    40    38    1
    44    41    34    1
    45    42    36    1
