@<TRIPOS>MOLECULE
outputs/IAG933/test6/raw/output_677_IAG933_linker_design_.xyz
 42 46 0 0 0
SMALL
GASTEIGER

@<TRIPOS>ATOM
      1 C         -24.8550   -1.0120   30.1430 C.3     1  UNL1        0.1989
      2 C         -24.9730   -2.5050   29.7880 C.2     1  UNL1        0.0213
      3 C         -23.9060   -3.1730   29.1460 C.2     1  UNL1       -0.0004
      4 C         -23.9890   -4.5490   28.8530 C.2     1  UNL1       -0.0002
      5 C         -25.1370   -5.2800   29.2050 C.2     1  UNL1       -0.0000
      6 C         -26.2320   -4.6110   29.7840 C.2     1  UNL1       -0.0002
      7 C         -26.1550   -3.2320   30.0650 C.2     1  UNL1       -0.0004
      8 C         -25.3870   -0.6790   31.5710 C.3     1  UNL1        0.1197
      9 C         -25.1890    0.7730   32.0280 C.3     1  UNL1        0.0233
     10 C         -25.3360    0.6840   33.5440 C.3     1  UNL1        0.0204
     11 C         -24.8290   -0.7150   33.9050 C.3     1  UNL1        0.0889
     12 N         -24.7580   -1.4810   32.6460 N.3     1  UNL1       -0.2150
     13 C         -25.6880    1.6140   26.4610 C.2     1  UNL1        0.0379
     14 C         -26.2500    2.9200   26.3950 C.2     1  UNL1        0.0764
     15 C         -25.6420    4.0930   27.1230 C.2     1  UNL1        0.2664
     16 N         -25.6140    5.2520   26.4490 N.am    1  UNL1       -0.1997
     17 C         -25.0260    6.4790   26.9630 C.3     1  UNL1        0.1388
     18 O         -25.1430    3.9660   28.2430 O.2     1  UNL1       -0.2683
     19 C         -27.4380    3.0910   25.6450 C.2     1  UNL1        0.1067
     20 N         -28.0750    2.0890   25.0030 N.2     1  UNL1       -0.2081
     21 C         -27.5430    0.8490   25.0790 C.2     1  UNL1        0.2533
     22 O         -28.1930   -0.2080   24.4770 O.2     1  UNL1       -0.4558
     23 C         -29.4600    0.0050   23.8660 C.3     1  UNL1        0.2426
     24 C         -30.0650   -1.3770   23.5730 C.3     1  UNL1        0.2292
     25 O         -30.7290   -1.8780   24.7210 O.3     1  UNL1       -0.2162
     26 C         -26.3540    0.5760   25.7770 C.2     1  UNL1        0.1929
     27 F         -25.8600   -0.6810   25.7950 F       1  UNL1       -0.1992
     28 C         -25.1259    0.9084   28.5505 C.3     1  UNL1        0.2055
     29 C         -26.5528    0.9631   29.1184 C.2     1  UNL1        0.0243
     30 N         -24.3511   -0.0153   29.2209 N.pl3   1  UNL1       -0.1816
     31 C         -23.0192    0.3576   29.0484 C.2     1  UNL1        0.3921
     32 C         -23.3912    1.6128   27.0064 C.2     1  UNL1        0.0132
     33 C         -28.8508   -0.1157   29.2670 C.2     1  UNL1       -0.0002
     34 C         -29.3492    1.0643   29.9456 C.2     1  UNL1       -0.0000
     35 C         -24.7215    1.3350   27.3366 C.2     1  UNL1        0.0252
     36 C         -22.4990    1.2169   27.9693 C.2     1  UNL1        0.2199
     37 F         -21.2050    1.6273   27.7869 F       1  UNL1       -0.1967
     38 N         -22.1760   -0.1980   30.0067 N.pl3   1  UNL1        0.2122
     39 C         -27.4445   -0.1233   28.8680 C.2     1  UNL1       -0.0001
     40 C         -28.5399    2.1113   30.3317 C.2     1  UNL1       -0.0002
     41 C         -27.0866    2.1128   29.8795 C.2     1  UNL1       -0.0001
     42 C         -22.9320    2.3022   25.7370 C.3     1  UNL1        0.0335
@<TRIPOS>BOND
     1     1     2    1
     2     2     7    1
     3     3     2    2
     4     4     3    1
     5     4     5    2
     6     5     6    1
     7     6     7    2
     8     8     1    1
     9     8     9    1
    10     8    12    1
    11     9    10    1
    12    10    11    1
    13    12    11    1
    14    13    35    1
    15    14    13    1
    16    14    15    1
    17    15    18    2
    18    16    17    1
    19    16    15    1
    20    19    14    2
    21    20    21    2
    22    20    19    1
    23    21    26    1
    24    22    21    1
    25    23    22    1
    26    24    23    1
    27    24    25    1
    28    26    27    1
    29    26    13    2
    30    28    29    1
    31    28    30    1
    32    29    41    1
    33    30     1    1
    34    31    30    1
    35    31    38    1
    36    32    35    2
    37    32    36    1
    38    33    34    2
    39    34    40    1
    40    35    28    1
    41    36    31    2
    42    37    36    1
    43    39    29    2
    44    39    33    1
    45    41    40    2
    46    42    32    1
