@<TRIPOS>MOLECULE
outputs/IAG933/test6/raw/output_6779_IAG933_linker_design_.xyz
 45 49 0 0 0
SMALL
GASTEIGER

@<TRIPOS>ATOM
      1 C         -24.8550   -1.0120   30.1430 C.3     1  UNL1        0.2071
      2 C         -24.9730   -2.5050   29.7880 C.2     1  UNL1        0.0187
      3 C         -23.9060   -3.1730   29.1460 C.2     1  UNL1       -0.0008
      4 C         -23.9890   -4.5490   28.8530 C.2     1  UNL1       -0.0002
      5 C         -25.1370   -5.2800   29.2050 C.2     1  UNL1       -0.0000
      6 C         -26.2320   -4.6110   29.7840 C.2     1  UNL1       -0.0002
      7 C         -26.1550   -3.2320   30.0650 C.2     1  UNL1       -0.0008
      8 C         -25.3870   -0.6790   31.5710 C.3     1  UNL1        0.1195
      9 C         -25.1890    0.7730   32.0280 C.3     1  UNL1        0.0510
     10 C         -25.3360    0.6840   33.5440 C.3     1  UNL1        0.0228
     11 C         -24.8290   -0.7150   33.9050 C.3     1  UNL1        0.0889
     12 N         -24.7580   -1.4810   32.6460 N.3     1  UNL1       -0.2154
     13 C         -25.6880    1.6140   26.4610 C.2     1  UNL1        0.0759
     14 C         -26.2500    2.9200   26.3950 C.2     1  UNL1        0.0796
     15 C         -25.6420    4.0930   27.1230 C.2     1  UNL1        0.2665
     16 N         -25.6140    5.2520   26.4490 N.am    1  UNL1       -0.1997
     17 C         -25.0260    6.4790   26.9630 C.3     1  UNL1        0.1388
     18 O         -25.1430    3.9660   28.2430 O.2     1  UNL1       -0.2683
     19 C         -27.4380    3.0910   25.6450 C.2     1  UNL1        0.1068
     20 N         -28.0750    2.0890   25.0030 N.2     1  UNL1       -0.2081
     21 C         -27.5430    0.8490   25.0790 C.2     1  UNL1        0.2534
     22 O         -28.1930   -0.2080   24.4770 O.2     1  UNL1       -0.4558
     23 C         -29.4600    0.0050   23.8660 C.3     1  UNL1        0.2426
     24 C         -30.0650   -1.3770   23.5730 C.3     1  UNL1        0.2292
     25 O         -30.7290   -1.8780   24.7210 O.3     1  UNL1       -0.2162
     26 C         -26.3540    0.5760   25.7770 C.2     1  UNL1        0.1961
     27 F         -25.8600   -0.6810   25.7950 F       1  UNL1       -0.1991
     28 C         -22.2447    0.9112   28.7962 C.2     1  UNL1        0.0781
     29 C         -25.7201    2.1002   31.5503 C.3     1  UNL1        0.1435
     30 C         -24.4669    1.2440   26.9243 C.2     1  UNL1        0.1897
     31 C         -29.7951    2.2654   31.7853 C.3     1  UNL1        0.0746
     32 C         -22.1105    1.8816   26.5394 C.2     1  UNL1        0.0454
     33 C         -29.1169    3.0200   30.6330 C.3     1  UNL1        0.0469
     34 O         -24.4224    0.3660   28.0199 O.2     1  UNL1       -0.4203
     35 C         -27.8616    4.5137   32.1649 C.3     1  UNL1        0.0469
     36 O         -24.0197    0.1220   30.0686 O.2     1  UNL1       -0.4456
     37 C         -23.5207    0.4836   28.9578 C.2     1  UNL1        0.2969
     38 C         -27.7330    3.5115   31.0628 C.3     1  UNL1        0.1180
     39 N         -29.4155    2.8188   33.0310 N.3     1  UNL1       -0.2713
     40 O         -23.6677    1.7121   24.8687 O.2     1  UNL1       -0.2833
     41 O         -27.0947    2.3469   31.4438 O.3     1  UNL1       -0.3561
     42 C         -29.0152    4.2243   33.0834 C.3     1  UNL1        0.0746
     43 C         -30.4139    2.5758   34.1333 C.3     1  UNL1        0.0896
     44 C         -23.3890    1.6792   26.1588 C.2     1  UNL1        0.2300
     45 C         -21.5431    1.5260   27.7579 C.2     1  UNL1        0.0099
@<TRIPOS>BOND
     1     1    36    1
     2     2     7    1
     3     2     1    1
     4     3     2    2
     5     4     3    1
     6     4     5    2
     7     5     6    1
     8     6     7    2
     9     8     1    1
    10     8     9    1
    11     8    12    1
    12     9    29    1
    13     9    10    1
    14    10    11    1
    15    12    11    1
    16    13    30    1
    17    14    13    1
    18    14    15    1
    19    15    18    2
    20    16    17    1
    21    16    15    1
    22    19    14    2
    23    20    21    2
    24    20    19    1
    25    21    26    1
    26    22    21    1
    27    23    22    1
    28    24    23    1
    29    24    25    1
    30    26    27    1
    31    26    13    2
    32    28    37    2
    33    30    34    1
    34    31    39    1
    35    32    45    2
    36    33    38    1
    37    33    31    1
    38    34    37    1
    39    35    42    1
    40    37    36    1
    41    38    41    1
    42    38    35    1
    43    39    42    1
    44    39    43    1
    45    40    44    1
    46    41    29    1
    47    44    32    1
    48    44    30    2
    49    45    28    1
