@<TRIPOS>MOLECULE
outputs/IAG933/test6/raw/output_6780_IAG933_linker_design_.xyz
 42 46 0 0 0
SMALL
GASTEIGER

@<TRIPOS>ATOM
      1 C         -24.8550   -1.0120   30.1430 C.3     1  UNL1        0.0857
      2 C         -24.9730   -2.5050   29.7880 C.2     1  UNL1       -0.0170
      3 C         -23.9060   -3.1730   29.1460 C.2     1  UNL1       -0.0041
      4 C         -23.9890   -4.5490   28.8530 C.2     1  UNL1       -0.0003
      5 C         -25.1370   -5.2800   29.2050 C.2     1  UNL1       -0.0000
      6 C         -26.2320   -4.6110   29.7840 C.2     1  UNL1       -0.0003
      7 C         -26.1550   -3.2320   30.0650 C.2     1  UNL1       -0.0041
      8 C         -25.3870   -0.6790   31.5710 C.3     1  UNL1        0.0822
      9 C         -25.1890    0.7730   32.0280 C.3     1  UNL1        0.0341
     10 C         -25.3360    0.6840   33.5440 C.3     1  UNL1        0.0216
     11 C         -24.8290   -0.7150   33.9050 C.3     1  UNL1        0.0888
     12 N         -24.7580   -1.4810   32.6460 N.3     1  UNL1       -0.2189
     13 C         -25.6880    1.6140   26.4610 C.2     1  UNL1        0.0375
     14 C         -26.2500    2.9200   26.3950 C.2     1  UNL1        0.0765
     15 C         -25.6420    4.0930   27.1230 C.2     1  UNL1        0.2664
     16 N         -25.6140    5.2520   26.4490 N.am    1  UNL1       -0.1997
     17 C         -25.0260    6.4790   26.9630 C.3     1  UNL1        0.1388
     18 O         -25.1430    3.9660   28.2430 O.2     1  UNL1       -0.2683
     19 C         -27.4380    3.0910   25.6450 C.2     1  UNL1        0.1067
     20 N         -28.0750    2.0890   25.0030 N.2     1  UNL1       -0.2081
     21 C         -27.5430    0.8490   25.0790 C.2     1  UNL1        0.2533
     22 O         -28.1930   -0.2080   24.4770 O.2     1  UNL1       -0.4558
     23 C         -29.4600    0.0050   23.8660 C.3     1  UNL1        0.2426
     24 C         -30.0650   -1.3770   23.5730 C.3     1  UNL1        0.2292
     25 O         -30.7290   -1.8780   24.7210 O.3     1  UNL1       -0.2162
     26 C         -26.3540    0.5760   25.7770 C.2     1  UNL1        0.1930
     27 F         -25.8600   -0.6810   25.7950 F       1  UNL1       -0.1992
     28 C         -22.0330    1.1134   27.7097 C.2     1  UNL1        0.1505
     29 C         -25.0683    1.8876   30.9689 C.3     1  UNL1        0.0768
     30 O         -22.2075   -0.3563   29.5517 O.3     1  UNL1       -0.2111
     31 C         -26.2225    2.9681   31.0694 C.3     1  UNL1        0.0175
     32 O         -26.4392   -0.4121   28.4880 O.3     1  UNL1       -0.2029
     33 F         -23.1572    1.1557   24.3522 F       1  UNL1       -0.2290
     34 N         -25.6393    1.4288   29.7402 N.3     1  UNL1       -0.1902
     35 C         -24.3558    1.3103   27.0370 C.2     1  UNL1        0.0016
     36 C         -22.9378    1.5610   26.6445 C.2     1  UNL1        0.0388
     37 C         -22.7912    0.4183   28.6065 C.3     1  UNL1        0.2231
     38 F         -20.7027    1.0925   27.6662 F       1  UNL1       -0.2061
     39 C         -27.5386    3.1295   30.3918 C.3     1  UNL1        0.0015
     40 C         -22.7370    2.0336   25.3502 C.3     1  UNL1        0.2217
     41 C         -25.2481    0.1061   29.1521 C.3     1  UNL1        0.2089
     42 C         -24.2146    0.5568   28.3086 C.2     1  UNL1        0.0348
@<TRIPOS>BOND
     1     1     2    1
     2     1     8    1
     3     2     7    1
     4     3     2    2
     5     4     3    1
     6     4     5    2
     7     5     6    1
     8     6     7    2
     9     8     9    1
    10     8    12    1
    11     9    10    1
    12    10    11    1
    13    12    11    1
    14    13    35    1
    15    14    13    1
    16    14    15    1
    17    15    18    2
    18    16    17    1
    19    16    15    1
    20    19    14    2
    21    20    21    2
    22    20    19    1
    23    21    26    1
    24    22    21    1
    25    23    22    1
    26    24    23    1
    27    24    25    1
    28    26    27    1
    29    26    13    2
    30    28    37    1
    31    29    31    1
    32    29     9    1
    33    33    40    1
    34    34    29    1
    35    35    42    2
    36    36    35    1
    37    36    28    2
    38    37    30    1
    39    38    28    1
    40    39    31    1
    41    40    36    1
    42    41    32    1
    43    41    34    1
    44    41     1    1
    45    42    37    1
    46    42    41    1
