@<TRIPOS>MOLECULE
outputs/IAG933/test6/raw/output_6789_IAG933_linker_design_.xyz
 41 45 0 0 0
SMALL
GASTEIGER

@<TRIPOS>ATOM
      1 C         -24.8550   -1.0120   30.1430 C.3     1  UNL1        0.0469
      2 C         -24.9730   -2.5050   29.7880 C.2     1  UNL1       -0.0207
      3 C         -23.9060   -3.1730   29.1460 C.2     1  UNL1       -0.0042
      4 C         -23.9890   -4.5490   28.8530 C.2     1  UNL1       -0.0003
      5 C         -25.1370   -5.2800   29.2050 C.2     1  UNL1       -0.0000
      6 C         -26.2320   -4.6110   29.7840 C.2     1  UNL1       -0.0003
      7 C         -26.1550   -3.2320   30.0650 C.2     1  UNL1       -0.0042
      8 C         -25.3870   -0.6790   31.5710 C.3     1  UNL1        0.0773
      9 C         -25.1890    0.7730   32.0280 C.3     1  UNL1        0.0192
     10 C         -25.3360    0.6840   33.5440 C.3     1  UNL1        0.0202
     11 C         -24.8290   -0.7150   33.9050 C.3     1  UNL1        0.0887
     12 N         -24.7580   -1.4810   32.6460 N.3     1  UNL1       -0.2191
     13 C         -25.6880    1.6140   26.4610 C.2     1  UNL1        0.0864
     14 C         -26.2500    2.9200   26.3950 C.2     1  UNL1        0.0899
     15 C         -25.6420    4.0930   27.1230 C.2     1  UNL1        0.2676
     16 N         -25.6140    5.2520   26.4490 N.am    1  UNL1       -0.1997
     17 C         -25.0260    6.4790   26.9630 C.3     1  UNL1        0.1388
     18 O         -25.1430    3.9660   28.2430 O.2     1  UNL1       -0.2683
     19 C         -27.4380    3.0910   25.6450 C.2     1  UNL1        0.1080
     20 N         -28.0750    2.0890   25.0030 N.2     1  UNL1       -0.2080
     21 C         -27.5430    0.8490   25.0790 C.2     1  UNL1        0.2546
     22 O         -28.1930   -0.2080   24.4770 O.2     1  UNL1       -0.4558
     23 C         -29.4600    0.0050   23.8660 C.3     1  UNL1        0.2426
     24 C         -30.0650   -1.3770   23.5730 C.3     1  UNL1        0.2292
     25 O         -30.7290   -1.8780   24.7210 O.3     1  UNL1       -0.2162
     26 C         -26.3540    0.5760   25.7770 C.2     1  UNL1        0.2062
     27 F         -25.8600   -0.6810   25.7950 F       1  UNL1       -0.1979
     28 C         -23.6332    1.6136   26.4436 C.3     1  UNL1        0.1033
     29 C         -21.5570   -0.0867   28.8189 C.2     1  UNL1        0.2698
     30 C         -24.9440   -0.1795   27.7424 C.3     1  UNL1        0.0985
     31 C         -21.8729    2.2192   25.2535 C.3     1  UNL1        0.1439
     32 N         -24.7149    1.2358   27.0485 N.pl3   1  UNL1       -0.3042
     33 N         -20.3693   -0.0652   28.3331 N.am    1  UNL1       -0.0874
     34 C         -23.3462    2.5717   25.2909 C.3     1  UNL1        0.0543
     35 C         -23.6408    0.9832   29.3678 C.2     1  UNL1        0.1631
     36 O         -21.2799    1.6691   26.4250 O.3     1  UNL1       -0.3536
     37 C         -24.7264    0.0903   29.2635 C.3     1  UNL1        0.0832
     38 C         -22.4157    1.3573   27.1597 C.3     1  UNL1        0.1489
     39 O         -21.9500   -1.0573   29.4409 O.2     1  UNL1       -0.2711
     40 C         -22.5002    0.8283   28.4457 C.3     1  UNL1        0.1657
     41 O         -23.7036    1.9798   30.0857 O.2     1  UNL1       -0.2954
@<TRIPOS>BOND
     1     1     2    1
     2     2     7    1
     3     3     2    2
     4     4     3    1
     5     4     5    2
     6     5     6    1
     7     6     7    2
     8     8     1    1
     9     8     9    1
    10     8    12    1
    11     9    10    1
    12    10    11    1
    13    12    11    1
    14    13    32    1
    15    14    13    1
    16    14    15    1
    17    15    18    2
    18    16    17    1
    19    16    15    1
    20    19    14    2
    21    20    21    2
    22    20    19    1
    23    21    26    1
    24    22    21    1
    25    23    22    1
    26    24    23    1
    27    24    25    1
    28    26    27    1
    29    26    13    2
    30    28    34    1
    31    28    32    1
    32    28    38    1
    33    29    39    2
    34    30    37    1
    35    31    34    1
    36    31    36    1
    37    32    30    1
    38    33    29    1
    39    35    41    2
    40    37    35    1
    41    37     1    1
    42    38    36    1
    43    38    40    1
    44    40    29    1
    45    40    35    1
