@<TRIPOS>MOLECULE
outputs/IAG933/test6/raw/output_6797_IAG933_linker_design_.xyz
 46 50 0 0 0
SMALL
GASTEIGER

@<TRIPOS>ATOM
      1 C         -24.8550   -1.0120   30.1430 C.3     1  UNL1        0.0621
      2 C         -24.9730   -2.5050   29.7880 C.2     1  UNL1       -0.0170
      3 C         -23.9060   -3.1730   29.1460 C.2     1  UNL1       -0.0039
      4 C         -23.9890   -4.5490   28.8530 C.2     1  UNL1       -0.0003
      5 C         -25.1370   -5.2800   29.2050 C.2     1  UNL1       -0.0000
      6 C         -26.2320   -4.6110   29.7840 C.2     1  UNL1       -0.0003
      7 C         -26.1550   -3.2320   30.0650 C.2     1  UNL1       -0.0039
      8 C         -25.3870   -0.6790   31.5710 C.3     1  UNL1        0.0809
      9 C         -25.1890    0.7730   32.0280 C.3     1  UNL1        0.0195
     10 C         -25.3360    0.6840   33.5440 C.3     1  UNL1        0.0203
     11 C         -24.8290   -0.7150   33.9050 C.3     1  UNL1        0.0887
     12 N         -24.7580   -1.4810   32.6460 N.3     1  UNL1       -0.2188
     13 C         -25.6880    1.6140   26.4610 C.2     1  UNL1        0.0404
     14 C         -26.2500    2.9200   26.3950 C.2     1  UNL1        0.0766
     15 C         -25.6420    4.0930   27.1230 C.2     1  UNL1        0.2664
     16 N         -25.6140    5.2520   26.4490 N.am    1  UNL1       -0.1997
     17 C         -25.0260    6.4790   26.9630 C.3     1  UNL1        0.1388
     18 O         -25.1430    3.9660   28.2430 O.2     1  UNL1       -0.2683
     19 C         -27.4380    3.0910   25.6450 C.2     1  UNL1        0.1067
     20 N         -28.0750    2.0890   25.0030 N.2     1  UNL1       -0.2081
     21 C         -27.5430    0.8490   25.0790 C.2     1  UNL1        0.2533
     22 O         -28.1930   -0.2080   24.4770 O.2     1  UNL1       -0.4558
     23 C         -29.4600    0.0050   23.8660 C.3     1  UNL1        0.2426
     24 C         -30.0650   -1.3770   23.5730 C.3     1  UNL1        0.2292
     25 O         -30.7290   -1.8780   24.7210 O.3     1  UNL1       -0.2162
     26 C         -26.3540    0.5760   25.7770 C.2     1  UNL1        0.1931
     27 F         -25.8600   -0.6810   25.7950 F       1  UNL1       -0.1992
     28 C         -28.6615    3.2064   29.1174 C.3     1  UNL1        0.0065
     29 F         -21.1371    1.5512   27.7310 F       1  UNL1       -0.2033
     30 C         -29.0475    0.3658   29.0026 C.3     1  UNL1        0.0468
     31 C         -24.2297   -0.0027   29.1970 C.2     1  UNL1        0.0028
     32 O         -30.1575   -0.6224   26.8978 O.co2   1  UNL1       -0.2457
     33 N         -26.6171    0.1271   28.5366 N.2     1  UNL1       -0.2542
     34 C         -22.8480    0.3671   29.0870 C.2     1  UNL1        0.0281
     35 C         -24.7560    1.2303   27.3056 C.2     1  UNL1        0.0326
     36 C         -27.4883    2.2273   29.3042 C.3     1  UNL1        0.0413
     37 C         -22.4490    1.1642   27.9868 C.2     1  UNL1        0.1504
     38 CL        -22.9033    2.2619   25.5325 Cl      1  UNL1       -0.0799
     39 C         -30.3333    1.1329   28.6341 C.3     1  UNL1        0.1086
     40 O         -31.8575   -0.8857   28.2407 O.co2   1  UNL1       -0.2457
     41 C         -23.4233    1.5406   27.0562 C.2     1  UNL1        0.0865
     42 C         -29.2418   -1.1162   29.5590 C.3     1  UNL1        0.0065
     43 C         -25.2403    0.4538   28.3751 C.2     1  UNL1        0.0779
     44 C         -27.6838    0.9347   28.9256 C.2     1  UNL1        0.0369
     45 C         -30.9147   -0.3037   27.8024 C.2     1  UNL1        0.3647
     46 C         -29.9775    2.5139   29.6295 C.3     1  UNL1        0.0120
@<TRIPOS>BOND
     1     1    31    1
     2     2     7    1
     3     2     1    1
     4     3     2    2
     5     4     3    1
     6     4     5    2
     7     5     6    1
     8     6     7    2
     9     8     1    1
    10     8     9    1
    11     8    12    1
    12     9    10    1
    13    10    11    1
    14    12    11    1
    15    13    35    1
    16    14    13    1
    17    14    15    1
    18    15    18    2
    19    16    17    1
    20    16    15    1
    21    19    14    2
    22    20    21    2
    23    20    19    1
    24    21    26    1
    25    22    21    1
    26    23    22    1
    27    24    23    1
    28    24    25    1
    29    26    27    1
    30    26    13    2
    31    28    36    1
    32    28    46    1
    33    29    37    1
    34    30    42    1
    35    32    45   ar
    36    33    44    2
    37    34    31    1
    38    35    43    1
    39    37    34    2
    40    38    41    1
    41    39    45    1
    42    39    30    1
    43    39    46    1
    44    41    35    2
    45    41    37    1
    46    43    33    1
    47    43    31    2
    48    44    30    1
    49    44    36    1
    50    45    40   ar
