@<TRIPOS>MOLECULE
outputs/IAG933/test6/raw/output_6799_IAG933_linker_design_.xyz
 47 50 0 0 0
SMALL
GASTEIGER

@<TRIPOS>ATOM
      1 C         -24.8550   -1.0120   30.1430 C.3     1  UNL1        0.0457
      2 C         -24.9730   -2.5050   29.7880 C.2     1  UNL1       -0.0207
      3 C         -23.9060   -3.1730   29.1460 C.2     1  UNL1       -0.0042
      4 C         -23.9890   -4.5490   28.8530 C.2     1  UNL1       -0.0003
      5 C         -25.1370   -5.2800   29.2050 C.2     1  UNL1       -0.0000
      6 C         -26.2320   -4.6110   29.7840 C.2     1  UNL1       -0.0003
      7 C         -26.1550   -3.2320   30.0650 C.2     1  UNL1       -0.0042
      8 C         -25.3870   -0.6790   31.5710 C.3     1  UNL1        0.0999
      9 C         -25.1890    0.7730   32.0280 C.3     1  UNL1        0.1273
     10 C         -25.3360    0.6840   33.5440 C.3     1  UNL1        0.0450
     11 C         -24.8290   -0.7150   33.9050 C.3     1  UNL1        0.0908
     12 N         -24.7580   -1.4810   32.6460 N.3     1  UNL1       -0.2171
     13 C         -25.6880    1.6140   26.4610 C.2     1  UNL1        0.0159
     14 C         -26.2500    2.9200   26.3950 C.2     1  UNL1        0.0726
     15 C         -25.6420    4.0930   27.1230 C.2     1  UNL1        0.2661
     16 N         -25.6140    5.2520   26.4490 N.am    1  UNL1       -0.1997
     17 C         -25.0260    6.4790   26.9630 C.3     1  UNL1        0.1388
     18 O         -25.1430    3.9660   28.2430 O.2     1  UNL1       -0.2683
     19 C         -27.4380    3.0910   25.6450 C.2     1  UNL1        0.1064
     20 N         -28.0750    2.0890   25.0030 N.2     1  UNL1       -0.2081
     21 C         -27.5430    0.8490   25.0790 C.2     1  UNL1        0.2530
     22 O         -28.1930   -0.2080   24.4770 O.2     1  UNL1       -0.4558
     23 C         -29.4600    0.0050   23.8660 C.3     1  UNL1        0.2426
     24 C         -30.0650   -1.3770   23.5730 C.3     1  UNL1        0.2292
     25 O         -30.7290   -1.8780   24.7210 O.3     1  UNL1       -0.2162
     26 C         -26.3540    0.5760   25.7770 C.2     1  UNL1        0.1891
     27 F         -25.8600   -0.6810   25.7950 F       1  UNL1       -0.1996
     28 C         -24.9400    7.9632   33.4220 C.2     1  UNL1        0.0002
     29 C         -21.9214    0.7356   28.3892 C.3     1  UNL1        0.0277
     30 N         -22.8127    7.2719   34.1990 N.3     1  UNL1       -0.1233
     31 C         -21.9320    1.9246   27.4328 C.3     1  UNL1        0.0051
     32 C         -23.9553    6.9794   33.5381 C.3     1  UNL1        0.1359
     33 C         -26.6081    7.0953   31.8069 C.2     1  UNL1        0.2086
     34 N         -24.7758    1.8528   31.1696 N.3     1  UNL1       -0.2366
     35 C         -23.1772    2.0280   26.4443 C.3     1  UNL1        0.0051
     36 C         -27.9168    4.8000   30.0248 C.3     1  UNL1        0.1147
     37 C         -25.0726    5.2597   32.2792 C.2     1  UNL1        0.0150
     38 C         -26.7204    3.3303   31.8066 C.3     1  UNL1        0.2699
     39 C         -24.0868    5.6790   33.0858 C.2     1  UNL1       -0.0017
     40 O         -25.8292    2.7847   30.8310 O.3     1  UNL1       -0.2346
     41 C         -23.6088    1.8074   30.2045 C.2     1  UNL1        0.0952
     42 C         -26.0827    8.0370   32.7434 C.2     1  UNL1        0.0405
     43 C         -22.9716    0.6272   29.3437 C.2     1  UNL1       -0.0055
     44 C         -24.4078    1.3587   26.9982 C.3     1  UNL1        0.0290
     45 C         -26.2453    5.7605   31.7776 C.2     1  UNL1        0.0888
     46 N         -26.9465    4.6713   31.1405 N.pl3   1  UNL1       -0.2764
     47 O         -27.3916    7.6819   30.9047 O.2     1  UNL1       -0.2853
@<TRIPOS>BOND
     1     2     7    1
     2     2     1    1
     3     3     2    2
     4     4     3    1
     5     4     5    2
     6     5     6    1
     7     6     7    2
     8     8     1    1
     9     8     9    1
    10     8    12    1
    11     9    34    1
    12     9    10    1
    13    10    11    1
    14    12    11    1
    15    13    44    1
    16    14    13    1
    17    14    15    1
    18    15    18    2
    19    16    17    1
    20    16    15    1
    21    19    14    2
    22    20    21    2
    23    20    19    1
    24    21    26    1
    25    22    21    1
    26    23    22    1
    27    24    23    1
    28    24    25    1
    29    26    27    1
    30    26    13    2
    31    28    32    1
    32    29    43    1
    33    31    29    1
    34    32    30    1
    35    33    42    1
    36    35    44    1
    37    35    31    1
    38    36    46    1
    39    37    39    2
    40    39    32    1
    41    40    34    1
    42    40    38    1
    43    41    34    1
    44    42    28    2
    45    43    41    2
    46    45    33    2
    47    45    37    1
    48    46    45    1
    49    46    38    1
    50    47    33    1
