@<TRIPOS>MOLECULE
outputs/IAG933/test6/raw/output_6807_IAG933_linker_design_.xyz
 39 42 0 0 0
SMALL
GASTEIGER

@<TRIPOS>ATOM
      1 C         -24.8550   -1.0120   30.1430 C.3     1  UNL1        0.1112
      2 C         -24.9730   -2.5050   29.7880 C.2     1  UNL1       -0.0051
      3 C         -23.9060   -3.1730   29.1460 C.2     1  UNL1       -0.0029
      4 C         -23.9890   -4.5490   28.8530 C.2     1  UNL1       -0.0003
      5 C         -25.1370   -5.2800   29.2050 C.2     1  UNL1       -0.0000
      6 C         -26.2320   -4.6110   29.7840 C.2     1  UNL1       -0.0003
      7 C         -26.1550   -3.2320   30.0650 C.2     1  UNL1       -0.0029
      8 C         -25.3870   -0.6790   31.5710 C.3     1  UNL1        0.0929
      9 C         -25.1890    0.7730   32.0280 C.3     1  UNL1        0.0206
     10 C         -25.3360    0.6840   33.5440 C.3     1  UNL1        0.0203
     11 C         -24.8290   -0.7150   33.9050 C.3     1  UNL1        0.0888
     12 N         -24.7580   -1.4810   32.6460 N.3     1  UNL1       -0.2177
     13 C         -25.6880    1.6140   26.4610 C.3     1  UNL1        0.0826
     14 C         -26.2500    2.9200   26.3950 C.2     1  UNL1        0.0554
     15 C         -25.6420    4.0930   27.1230 C.2     1  UNL1        0.2625
     16 N         -25.6140    5.2520   26.4490 N.am    1  UNL1       -0.2000
     17 C         -25.0260    6.4790   26.9630 C.3     1  UNL1        0.1388
     18 O         -25.1430    3.9660   28.2430 O.2     1  UNL1       -0.2687
     19 C         -27.4380    3.0910   25.6450 C.2     1  UNL1        0.1022
     20 N         -28.0750    2.0890   25.0030 N.2     1  UNL1       -0.2119
     21 C         -27.5430    0.8490   25.0790 C.2     1  UNL1        0.2341
     22 O         -28.1930   -0.2080   24.4770 O.2     1  UNL1       -0.4585
     23 C         -29.4600    0.0050   23.8660 C.3     1  UNL1        0.2423
     24 C         -30.0650   -1.3770   23.5730 C.3     1  UNL1        0.2292
     25 O         -30.7290   -1.8780   24.7210 O.3     1  UNL1       -0.2162
     26 C         -26.3540    0.5760   25.7770 C.3     1  UNL1        0.2406
     27 F         -25.8600   -0.6810   25.7950 F       1  UNL1       -0.2269
     28 N         -24.3597   -0.2591   29.1959 N.3     1  UNL1       -0.2101
     29 C         -21.2831    2.1701   25.7404 C.2     1  UNL1       -0.0000
     30 C         -27.0434    0.5996   28.4936 C.2     1  UNL1        0.3664
     31 C         -23.4855    2.2946   26.4614 C.2     1  UNL1       -0.0029
     32 C         -24.3567    0.5508   28.3132 C.3     1  UNL1        0.1064
     33 C         -21.9544    1.0646   27.7859 C.2     1  UNL1       -0.0029
     34 C         -23.2746    1.3632   27.5053 C.2     1  UNL1       -0.0059
     35 O         -27.7400    1.4722   28.9871 O.co2   1  UNL1       -0.2456
     36 C         -22.5758    2.5789   25.5071 C.2     1  UNL1       -0.0003
     37 O         -27.3547   -0.6084   28.6042 O.co2   1  UNL1       -0.2456
     38 C         -20.9850    1.4496   26.8858 C.2     1  UNL1       -0.0003
     39 C         -25.7306    1.0826   27.8627 C.3     1  UNL1        0.1308
@<TRIPOS>BOND
     1     1    28    1
     2     2     7    1
     3     2     1    1
     4     3     2    2
     5     4     3    1
     6     4     5    2
     7     5     6    1
     8     6     7    2
     9     8     1    1
    10     8     9    1
    11     8    12    1
    12     9    10    1
    13    10    11    1
    14    12    11    1
    15    13    39    1
    16    14    13    1
    17    14    15    1
    18    15    18    2
    19    16    17    1
    20    16    15    1
    21    19    14    2
    22    20    21    2
    23    20    19    1
    24    21    26    1
    25    22    21    1
    26    23    22    1
    27    24    23    1
    28    24    25    1
    29    26    27    1
    30    26    13    1
    31    29    38    1
    32    30    37   ar
    33    30    35   ar
    34    31    34    2
    35    32    28    1
    36    34    33    1
    37    34    32    1
    38    36    29    2
    39    36    31    1
    40    38    33    2
    41    39    32    1
    42    39    30    1
