@<TRIPOS>MOLECULE
outputs/IAG933/test6/raw/output_6808_IAG933_linker_design_.xyz
 42 47 0 0 0
SMALL
GASTEIGER

@<TRIPOS>ATOM
      1 C         -24.8550   -1.0120   30.1430 C.3     1  UNL1        0.0662
      2 C         -24.9730   -2.5050   29.7880 C.2     1  UNL1       -0.0166
      3 C         -23.9060   -3.1730   29.1460 C.2     1  UNL1       -0.0039
      4 C         -23.9890   -4.5490   28.8530 C.2     1  UNL1       -0.0003
      5 C         -25.1370   -5.2800   29.2050 C.2     1  UNL1       -0.0000
      6 C         -26.2320   -4.6110   29.7840 C.2     1  UNL1       -0.0003
      7 C         -26.1550   -3.2320   30.0650 C.2     1  UNL1       -0.0039
      8 C         -25.3870   -0.6790   31.5710 C.3     1  UNL1        0.0813
      9 C         -25.1890    0.7730   32.0280 C.3     1  UNL1        0.0195
     10 C         -25.3360    0.6840   33.5440 C.3     1  UNL1        0.0203
     11 C         -24.8290   -0.7150   33.9050 C.3     1  UNL1        0.0887
     12 N         -24.7580   -1.4810   32.6460 N.3     1  UNL1       -0.2188
     13 C         -25.6880    1.6140   26.4610 C.3     1  UNL1        0.1096
     14 C         -26.2500    2.9200   26.3950 C.2     1  UNL1        0.0604
     15 C         -25.6420    4.0930   27.1230 C.2     1  UNL1        0.2628
     16 N         -25.6140    5.2520   26.4490 N.am    1  UNL1       -0.2000
     17 C         -25.0260    6.4790   26.9630 C.3     1  UNL1        0.1388
     18 O         -25.1430    3.9660   28.2430 O.2     1  UNL1       -0.2686
     19 C         -27.4380    3.0910   25.6450 C.2     1  UNL1        0.1025
     20 N         -28.0750    2.0890   25.0030 N.2     1  UNL1       -0.2118
     21 C         -27.5430    0.8490   25.0790 C.2     1  UNL1        0.2345
     22 O         -28.1930   -0.2080   24.4770 O.2     1  UNL1       -0.4585
     23 C         -29.4600    0.0050   23.8660 C.3     1  UNL1        0.2423
     24 C         -30.0650   -1.3770   23.5730 C.3     1  UNL1        0.2292
     25 O         -30.7290   -1.8780   24.7210 O.3     1  UNL1       -0.2162
     26 C         -26.3540    0.5760   25.7770 C.3     1  UNL1        0.2455
     27 F         -25.8600   -0.6810   25.7950 F       1  UNL1       -0.2265
     28 C         -29.3227    1.4691   30.1830 C.3     1  UNL1        0.0297
     29 CL        -21.2311    1.7572   27.0459 Cl      1  UNL1       -0.0757
     30 C         -29.7988   -0.1603   28.4970 C.3     1  UNL1        0.0027
     31 C         -29.0085   -0.0001   29.8104 C.3     1  UNL1        0.0053
     32 C         -25.3294    0.6526   28.5584 C.2     1  UNL1        0.0203
     33 C         -24.9274    1.3000   27.4968 C.2     1  UNL1        0.0615
     34 C         -28.9399    2.0633   28.8242 C.3     1  UNL1        0.1156
     35 O         -27.5225    1.9505   28.6587 O.3     1  UNL1       -0.3543
     36 C         -22.7045    1.1461   27.8649 C.3     1  UNL1        0.2331
     37 C         -27.7731   -0.1691   29.6234 C.3     1  UNL1        0.0343
     38 C         -29.5938    1.1664   27.7985 C.3     1  UNL1        0.0296
     39 C         -26.9217    0.5824   28.6073 C.3     1  UNL1        0.1386
     40 S         -22.6393    0.1925   29.1232 S.3     1  UNL1       -0.0781
     41 C         -24.4400    0.0726   29.3056 C.2     1  UNL1        0.0104
     42 N         -23.6774    1.6097   27.3624 N.2     1  UNL1       -0.2490
@<TRIPOS>BOND
     1     1    41    1
     2     2     7    1
     3     2     1    1
     4     3     2    2
     5     4     3    1
     6     4     5    2
     7     5     6    1
     8     6     7    2
     9     8     1    1
    10     8     9    1
    11     8    12    1
    12     9    10    1
    13    10    11    1
    14    12    11    1
    15    13    33    1
    16    14    13    1
    17    14    15    1
    18    15    18    2
    19    16    17    1
    20    16    15    1
    21    19    14    2
    22    20    21    2
    23    20    19    1
    24    21    26    1
    25    22    21    1
    26    23    22    1
    27    24    23    1
    28    24    25    1
    29    26    27    1
    30    26    13    1
    31    31    30    1
    32    31    28    1
    33    32    41    2
    34    33    32    1
    35    34    38    1
    36    34    28    1
    37    35    34    1
    38    36    29    1
    39    36    40    1
    40    37    31    1
    41    38    30    1
    42    39    32    1
    43    39    35    1
    44    39    37    1
    45    40    41    1
    46    42    33    2
    47    42    36    1
