@<TRIPOS>MOLECULE
outputs/IAG933/test6/raw/output_6812_IAG933_linker_design_.xyz
 47 50 0 0 0
SMALL
GASTEIGER

@<TRIPOS>ATOM
      1 C         -24.8550   -1.0120   30.1430 C.3     1  UNL1        0.0437
      2 C         -24.9730   -2.5050   29.7880 C.2     1  UNL1       -0.0208
      3 C         -23.9060   -3.1730   29.1460 C.2     1  UNL1       -0.0042
      4 C         -23.9890   -4.5490   28.8530 C.2     1  UNL1       -0.0003
      5 C         -25.1370   -5.2800   29.2050 C.2     1  UNL1       -0.0000
      6 C         -26.2320   -4.6110   29.7840 C.2     1  UNL1       -0.0003
      7 C         -26.1550   -3.2320   30.0650 C.2     1  UNL1       -0.0042
      8 C         -25.3870   -0.6790   31.5710 C.3     1  UNL1        0.0776
      9 C         -25.1890    0.7730   32.0280 C.3     1  UNL1        0.0274
     10 C         -25.3360    0.6840   33.5440 C.3     1  UNL1        0.0207
     11 C         -24.8290   -0.7150   33.9050 C.3     1  UNL1        0.0887
     12 N         -24.7580   -1.4810   32.6460 N.3     1  UNL1       -0.2191
     13 C         -25.6880    1.6140   26.4610 C.2     1  UNL1        0.1103
     14 C         -26.2500    2.9200   26.3950 C.2     1  UNL1        0.0918
     15 C         -25.6420    4.0930   27.1230 C.2     1  UNL1        0.2677
     16 N         -25.6140    5.2520   26.4490 N.am    1  UNL1       -0.1997
     17 C         -25.0260    6.4790   26.9630 C.3     1  UNL1        0.1388
     18 O         -25.1430    3.9660   28.2430 O.2     1  UNL1       -0.2683
     19 C         -27.4380    3.0910   25.6450 C.2     1  UNL1        0.1080
     20 N         -28.0750    2.0890   25.0030 N.2     1  UNL1       -0.2080
     21 C         -27.5430    0.8490   25.0790 C.2     1  UNL1        0.2546
     22 O         -28.1930   -0.2080   24.4770 O.2     1  UNL1       -0.4558
     23 C         -29.4600    0.0050   23.8660 C.3     1  UNL1        0.2426
     24 C         -30.0650   -1.3770   23.5730 C.3     1  UNL1        0.2292
     25 O         -30.7290   -1.8780   24.7210 O.3     1  UNL1       -0.2162
     26 C         -26.3540    0.5760   25.7770 C.2     1  UNL1        0.2082
     27 F         -25.8600   -0.6810   25.7950 F       1  UNL1       -0.1978
     28 C         -28.2135    4.1081   33.9309 C.2     1  UNL1        0.2211
     29 O         -27.5410    3.2053   33.1017 O.2     1  UNL1       -0.4494
     30 C         -28.9643    3.8696   35.0456 C.3     1  UNL1        0.0963
     31 C         -23.2742    1.4186   27.0577 C.2     1  UNL1        0.1627
     32 N         -27.9321    5.1406   33.4904 N.2     1  UNL1       -0.1121
     33 C         -25.9475    6.4553   29.9974 C.3     1  UNL1        0.0216
     34 C         -25.4417    5.4245   32.2899 C.3     1  UNL1        0.1901
     35 S         -22.7504    2.2355   25.6311 S.2     1  UNL1       -0.0163
     36 N         -22.4148    0.8324   28.0356 N.am    1  UNL1       -0.2597
     37 C         -21.0098    1.2584   27.8665 C.3     1  UNL1        0.1197
     38 C         -25.5775    2.3180   31.5810 C.3     1  UNL1        0.0876
     39 C         -26.6485    3.3759   32.2806 C.3     1  UNL1        0.2359
     40 O         -24.2699    4.8552   32.8139 O.3     1  UNL1       -0.2075
     41 C         -24.8529    2.7113   30.7425 C.2     1  UNL1        0.0213
     42 N         -24.5735    1.2958   27.3596 N.am    1  UNL1       -0.1888
     43 C         -22.7666    1.0079   29.4796 C.2     1  UNL1        0.1093
     44 C         -23.8614    1.9212   30.0297 C.1     1  UNL1       -0.0889
     45 C         -25.0691    6.9003   32.5035 C.3     1  UNL1        0.0516
     46 C         -26.3470    5.4949   31.1479 C.3     1  UNL1        0.1051
     47 N         -26.3640    4.7454   32.2660 N.3     1  UNL1       -0.2143
@<TRIPOS>BOND
     1     2     7    1
     2     2     1    1
     3     3     2    2
     4     4     3    1
     5     4     5    2
     6     5     6    1
     7     6     7    2
     8     8     1    1
     9     8     9    1
    10     8    12    1
    11     9    38    1
    12     9    10    1
    13    10    11    1
    14    12    11    1
    15    13    42    1
    16    14    13    1
    17    14    15    1
    18    15    18    2
    19    16    17    1
    20    16    15    1
    21    19    14    2
    22    20    21    2
    23    20    19    1
    24    21    26    1
    25    22    21    1
    26    23    22    1
    27    24    23    1
    28    24    25    1
    29    26    27    1
    30    26    13    2
    31    28    30    1
    32    29    28    1
    33    31    42    1
    34    31    36    1
    35    32    28    2
    36    34    45    1
    37    34    40    1
    38    35    31    2
    39    36    43    1
    40    37    36    1
    41    38    41    1
    42    38    39    1
    43    39    29    1
    44    43    44    2
    45    44    41    2
    46    46    33    1
    47    46    47    1
    48    46    34    1
    49    47    39    1
    50    47    34    1
