@<TRIPOS>MOLECULE
outputs/IAG933/test6/raw/output_6816_IAG933_linker_design_.xyz
 42 46 0 0 0
SMALL
GASTEIGER

@<TRIPOS>ATOM
      1 C         -24.8550   -1.0120   30.1430 C.3     1  UNL1        0.1147
      2 C         -24.9730   -2.5050   29.7880 C.2     1  UNL1       -0.0050
      3 C         -23.9060   -3.1730   29.1460 C.2     1  UNL1       -0.0029
      4 C         -23.9890   -4.5490   28.8530 C.2     1  UNL1       -0.0003
      5 C         -25.1370   -5.2800   29.2050 C.2     1  UNL1       -0.0000
      6 C         -26.2320   -4.6110   29.7840 C.2     1  UNL1       -0.0003
      7 C         -26.1550   -3.2320   30.0650 C.2     1  UNL1       -0.0029
      8 C         -25.3870   -0.6790   31.5710 C.3     1  UNL1        0.0930
      9 C         -25.1890    0.7730   32.0280 C.3     1  UNL1        0.0206
     10 C         -25.3360    0.6840   33.5440 C.3     1  UNL1        0.0203
     11 C         -24.8290   -0.7150   33.9050 C.3     1  UNL1        0.0888
     12 N         -24.7580   -1.4810   32.6460 N.3     1  UNL1       -0.2177
     13 C         -25.6880    1.6140   26.4610 C.3     1  UNL1        0.1465
     14 C         -26.2500    2.9200   26.3950 C.2     1  UNL1        0.0731
     15 C         -25.6420    4.0930   27.1230 C.2     1  UNL1        0.2640
     16 N         -25.6140    5.2520   26.4490 N.am    1  UNL1       -0.1999
     17 C         -25.0260    6.4790   26.9630 C.3     1  UNL1        0.1388
     18 O         -25.1430    3.9660   28.2430 O.2     1  UNL1       -0.2686
     19 C         -27.4380    3.0910   25.6450 C.2     1  UNL1        0.1038
     20 N         -28.0750    2.0890   25.0030 N.2     1  UNL1       -0.2118
     21 C         -27.5430    0.8490   25.0790 C.2     1  UNL1        0.2358
     22 O         -28.1930   -0.2080   24.4770 O.2     1  UNL1       -0.4585
     23 C         -29.4600    0.0050   23.8660 C.3     1  UNL1        0.2423
     24 C         -30.0650   -1.3770   23.5730 C.3     1  UNL1        0.2292
     25 O         -30.7290   -1.8780   24.7210 O.3     1  UNL1       -0.2162
     26 C         -26.3540    0.5760   25.7770 C.3     1  UNL1        0.2581
     27 F         -25.8600   -0.6810   25.7950 F       1  UNL1       -0.2251
     28 C         -27.5729    1.0738   29.3140 C.3     1  UNL1        0.1917
     29 C         -22.7110    0.5655   28.0175 C.2     1  UNL1        0.1835
     30 F         -22.3246   -0.2320   29.0557 F       1  UNL1       -0.2031
     31 F         -20.4951    1.4023   27.7476 F       1  UNL1       -0.1995
     32 C         -22.1440    2.1297   26.3101 C.2     1  UNL1        0.2108
     33 N         -24.3943    1.5761   26.7170 N.pl3   1  UNL1       -0.2587
     34 N         -24.8917   -0.2115   28.0672 N.3     1  UNL1       -0.1182
     35 O         -28.4186    0.4955   28.4218 O.3     1  UNL1       -0.3332
     36 F         -23.9230    3.1923   25.0682 F       1  UNL1       -0.1853
     37 C         -24.0438    0.6834   27.6240 C.3     1  UNL1        0.2196
     38 C         -21.7928    1.3587   27.3638 C.2     1  UNL1        0.1971
     39 N         -25.6777   -0.3320   29.1145 N.3     1  UNL1       -0.1712
     40 F         -21.1798    2.4749   25.4515 F       1  UNL1       -0.1979
     41 C         -27.2238   -0.2079   28.7323 C.3     1  UNL1        0.2210
     42 C         -23.4693    2.4014   26.0344 C.2     1  UNL1        0.2235
@<TRIPOS>BOND
     1     1    39    1
     2     2     7    1
     3     2     1    1
     4     3     2    2
     5     4     3    1
     6     4     5    2
     7     5     6    1
     8     6     7    2
     9     8     1    1
    10     8     9    1
    11     8    12    1
    12     9    10    1
    13    10    11    1
    14    12    11    1
    15    13    33    1
    16    14    13    1
    17    14    15    1
    18    15    18    2
    19    16    17    1
    20    16    15    1
    21    19    14    2
    22    20    21    2
    23    20    19    1
    24    21    26    1
    25    22    21    1
    26    23    22    1
    27    24    23    1
    28    24    25    1
    29    26    27    1
    30    26    13    1
    31    29    30    1
    32    32    38    1
    33    33    37    1
    34    34    39    1
    35    35    41    1
    36    35    28    1
    37    36    42    1
    38    37    29    1
    39    37    34    1
    40    38    31    1
    41    38    29    2
    42    40    32    1
    43    41    39    1
    44    41    28    1
    45    42    32    2
    46    42    33    1
