@<TRIPOS>MOLECULE
outputs/IAG933/test6/raw/output_6817_IAG933_linker_design_.xyz
 41 44 0 0 0
SMALL
GASTEIGER

@<TRIPOS>ATOM
      1 C         -24.8550   -1.0120   30.1430 C.3     1  UNL1        0.0659
      2 C         -24.9730   -2.5050   29.7880 C.2     1  UNL1       -0.0190
      3 C         -23.9060   -3.1730   29.1460 C.2     1  UNL1       -0.0042
      4 C         -23.9890   -4.5490   28.8530 C.2     1  UNL1       -0.0003
      5 C         -25.1370   -5.2800   29.2050 C.2     1  UNL1       -0.0000
      6 C         -26.2320   -4.6110   29.7840 C.2     1  UNL1       -0.0003
      7 C         -26.1550   -3.2320   30.0650 C.2     1  UNL1       -0.0042
      8 C         -25.3870   -0.6790   31.5710 C.3     1  UNL1        0.0789
      9 C         -25.1890    0.7730   32.0280 C.3     1  UNL1        0.0193
     10 C         -25.3360    0.6840   33.5440 C.3     1  UNL1        0.0202
     11 C         -24.8290   -0.7150   33.9050 C.3     1  UNL1        0.0887
     12 N         -24.7580   -1.4810   32.6460 N.3     1  UNL1       -0.2191
     13 C         -25.6880    1.6140   26.4610 C.3     1  UNL1        0.0924
     14 C         -26.2500    2.9200   26.3950 C.2     1  UNL1        0.0589
     15 C         -25.6420    4.0930   27.1230 C.2     1  UNL1        0.2628
     16 N         -25.6140    5.2520   26.4490 N.am    1  UNL1       -0.2000
     17 C         -25.0260    6.4790   26.9630 C.3     1  UNL1        0.1388
     18 O         -25.1430    3.9660   28.2430 O.2     1  UNL1       -0.2686
     19 C         -27.4380    3.0910   25.6450 C.2     1  UNL1        0.1025
     20 N         -28.0750    2.0890   25.0030 N.2     1  UNL1       -0.2118
     21 C         -27.5430    0.8490   25.0790 C.2     1  UNL1        0.2344
     22 O         -28.1930   -0.2080   24.4770 O.2     1  UNL1       -0.4585
     23 C         -29.4600    0.0050   23.8660 C.3     1  UNL1        0.2423
     24 C         -30.0650   -1.3770   23.5730 C.3     1  UNL1        0.2292
     25 O         -30.7290   -1.8780   24.7210 O.3     1  UNL1       -0.2162
     26 C         -26.3540    0.5760   25.7770 C.3     1  UNL1        0.2440
     27 F         -25.8600   -0.6810   25.7950 F       1  UNL1       -0.2265
     28 C         -24.2127    1.5533   26.3938 C.2     1  UNL1       -0.0069
     29 O         -22.4519   -0.0388   29.3197 O.2     1  UNL1       -0.2896
     30 C         -27.2404    0.8468   29.3597 C.2     1  UNL1        0.4633
     31 C         -23.2184    1.2402   27.4067 C.2     1  UNL1        0.0849
     32 O         -21.4914    2.0066   25.8346 O.2     1  UNL1       -0.4429
     33 C         -23.4195    0.4463   28.6304 C.2     1  UNL1        0.1950
     34 C         -21.8682    1.6296   27.0785 C.3     1  UNL1        0.3538
     35 O         -27.7766   -0.2675   29.2876 O.co2   1  UNL1       -0.2207
     36 N         -25.9387    1.0168   29.0287 N.am    1  UNL1       -0.1592
     37 C         -24.8085    0.0275   29.0736 C.3     1  UNL1        0.1652
     38 C         -22.4222    2.0556   24.8391 C.2     1  UNL1        0.1753
     39 F         -20.8469    1.6802   28.0407 F       1  UNL1       -0.1832
     40 C         -23.7671    1.8690   25.0775 C.2     1  UNL1        0.0363
     41 O         -27.8668    1.8730   29.6018 O.co2   1  UNL1       -0.2207
@<TRIPOS>BOND
     1     1    37    1
     2     2     7    1
     3     2     1    1
     4     3     2    2
     5     4     3    1
     6     4     5    2
     7     5     6    1
     8     6     7    2
     9     8     1    1
    10     8     9    1
    11     8    12    1
    12     9    10    1
    13    10    11    1
    14    12    11    1
    15    13    28    1
    16    14    13    1
    17    14    15    1
    18    15    18    2
    19    16    17    1
    20    16    15    1
    21    19    14    2
    22    20    21    2
    23    20    19    1
    24    21    26    1
    25    22    21    1
    26    23    22    1
    27    24    23    1
    28    24    25    1
    29    26    27    1
    30    26    13    1
    31    28    31    2
    32    30    41   ar
    33    31    33    1
    34    32    34    1
    35    33    29    2
    36    34    31    1
    37    34    39    1
    38    35    30   ar
    39    36    37    1
    40    36    30    1
    41    37    33    1
    42    38    40    2
    43    38    32    1
    44    40    28    1
