@<TRIPOS>MOLECULE
outputs/IAG933/test6/raw/output_6820_IAG933_linker_design_.xyz
 39 43 0 0 0
SMALL
GASTEIGER

@<TRIPOS>ATOM
      1 C         -24.8550   -1.0120   30.1430 C.3     1  UNL1        0.2071
      2 C         -24.9730   -2.5050   29.7880 C.2     1  UNL1        0.0218
      3 C         -23.9060   -3.1730   29.1460 C.2     1  UNL1       -0.0004
      4 C         -23.9890   -4.5490   28.8530 C.2     1  UNL1       -0.0002
      5 C         -25.1370   -5.2800   29.2050 C.2     1  UNL1       -0.0000
      6 C         -26.2320   -4.6110   29.7840 C.2     1  UNL1       -0.0002
      7 C         -26.1550   -3.2320   30.0650 C.2     1  UNL1       -0.0004
      8 C         -25.3870   -0.6790   31.5710 C.3     1  UNL1        0.1202
      9 C         -25.1890    0.7730   32.0280 C.3     1  UNL1        0.0233
     10 C         -25.3360    0.6840   33.5440 C.3     1  UNL1        0.0204
     11 C         -24.8290   -0.7150   33.9050 C.3     1  UNL1        0.0889
     12 N         -24.7580   -1.4810   32.6460 N.3     1  UNL1       -0.2150
     13 C         -25.6880    1.6140   26.4610 C.3     1  UNL1        0.2352
     14 C         -26.2500    2.9200   26.3950 C.2     1  UNL1        0.0977
     15 C         -25.6420    4.0930   27.1230 C.2     1  UNL1        0.2662
     16 N         -25.6140    5.2520   26.4490 N.am    1  UNL1       -0.1999
     17 C         -25.0260    6.4790   26.9630 C.3     1  UNL1        0.1388
     18 O         -25.1430    3.9660   28.2430 O.2     1  UNL1       -0.2685
     19 C         -27.4380    3.0910   25.6450 C.2     1  UNL1        0.1061
     20 N         -28.0750    2.0890   25.0030 N.2     1  UNL1       -0.2116
     21 C         -27.5430    0.8490   25.0790 C.2     1  UNL1        0.2384
     22 O         -28.1930   -0.2080   24.4770 O.2     1  UNL1       -0.4584
     23 C         -29.4600    0.0050   23.8660 C.3     1  UNL1        0.2423
     24 C         -30.0650   -1.3770   23.5730 C.3     1  UNL1        0.2292
     25 O         -30.7290   -1.8780   24.7210 O.3     1  UNL1       -0.2162
     26 C         -26.3540    0.5760   25.7770 C.3     1  UNL1        0.2828
     27 F         -25.8600   -0.6810   25.7950 F       1  UNL1       -0.2224
     28 N         -25.0555    1.1014   27.4920 N.pl3   1  UNL1       -0.1571
     29 O         -22.9442    2.8597   26.1817 O.3     1  UNL1       -0.2064
     30 C         -25.7785    0.1932   28.3316 C.2     1  UNL1        0.3598
     31 C         -23.4838    0.4694   28.9003 C.2     1  UNL1        0.3552
     32 C         -22.9314    2.0241   27.1619 C.3     1  UNL1        0.2989
     33 N         -24.6442   -0.0794   29.0963 N.pl3   1  UNL1       -0.1269
     34 O         -27.8017   -0.3972   29.2947 O.2     1  UNL1       -0.2238
     35 C         -23.9558    1.2196   27.5276 C.2     1  UNL1        0.2348
     36 C         -26.8744   -0.1052   28.7984 C.1     1  UNL1        0.2173
     37 N         -22.1751    0.9016   29.2678 N.pl3   1  UNL1        0.0027
     38 C         -21.8443    1.6974   28.1059 C.3     1  UNL1        0.3986
     39 F         -20.6211    1.6959   27.5733 F       1  UNL1       -0.1781
@<TRIPOS>BOND
     1     1     2    1
     2     2     7    1
     3     3     2    2
     4     4     3    1
     5     4     5    2
     6     5     6    1
     7     6     7    2
     8     8     1    1
     9     8     9    1
    10     8    12    1
    11     9    10    1
    12    10    11    1
    13    12    11    1
    14    13    28    1
    15    14    13    1
    16    14    15    1
    17    15    18    2
    18    16    17    1
    19    16    15    1
    20    19    14    2
    21    20    21    2
    22    20    19    1
    23    21    26    1
    24    22    21    1
    25    23    22    1
    26    24    23    1
    27    24    25    1
    28    26    27    1
    29    26    13    1
    30    28    35    1
    31    28    30    1
    32    30    36    2
    33    30    33    1
    34    31    33    1
    35    31    37    1
    36    32    29    1
    37    32    35    1
    38    32    38    1
    39    33     1    1
    40    35    31    2
    41    36    34    2
    42    38    39    1
    43    38    37    1
