@<TRIPOS>MOLECULE
outputs/IAG933/test6/raw/output_6823_IAG933_linker_design_.xyz
 40 42 0 0 0
SMALL
GASTEIGER

@<TRIPOS>ATOM
      1 C         -24.8550   -1.0120   30.1430 C.3     1  UNL1        0.1548
      2 C         -24.9730   -2.5050   29.7880 C.2     1  UNL1        0.0060
      3 C         -23.9060   -3.1730   29.1460 C.2     1  UNL1       -0.0019
      4 C         -23.9890   -4.5490   28.8530 C.2     1  UNL1       -0.0002
      5 C         -25.1370   -5.2800   29.2050 C.2     1  UNL1       -0.0000
      6 C         -26.2320   -4.6110   29.7840 C.2     1  UNL1       -0.0002
      7 C         -26.1550   -3.2320   30.0650 C.2     1  UNL1       -0.0019
      8 C         -25.3870   -0.6790   31.5710 C.3     1  UNL1        0.1041
      9 C         -25.1890    0.7730   32.0280 C.3     1  UNL1        0.0217
     10 C         -25.3360    0.6840   33.5440 C.3     1  UNL1        0.0203
     11 C         -24.8290   -0.7150   33.9050 C.3     1  UNL1        0.0888
     12 N         -24.7580   -1.4810   32.6460 N.3     1  UNL1       -0.2166
     13 C         -25.6880    1.6140   26.4610 C.2     1  UNL1        0.0379
     14 C         -26.2500    2.9200   26.3950 C.2     1  UNL1        0.0765
     15 C         -25.6420    4.0930   27.1230 C.2     1  UNL1        0.2664
     16 N         -25.6140    5.2520   26.4490 N.am    1  UNL1       -0.1997
     17 C         -25.0260    6.4790   26.9630 C.3     1  UNL1        0.1388
     18 O         -25.1430    3.9660   28.2430 O.2     1  UNL1       -0.2683
     19 C         -27.4380    3.0910   25.6450 C.2     1  UNL1        0.1067
     20 N         -28.0750    2.0890   25.0030 N.2     1  UNL1       -0.2081
     21 C         -27.5430    0.8490   25.0790 C.2     1  UNL1        0.2533
     22 O         -28.1930   -0.2080   24.4770 O.2     1  UNL1       -0.4558
     23 C         -29.4600    0.0050   23.8660 C.3     1  UNL1        0.2426
     24 C         -30.0650   -1.3770   23.5730 C.3     1  UNL1        0.2292
     25 O         -30.7290   -1.8780   24.7210 O.3     1  UNL1       -0.2162
     26 C         -26.3540    0.5760   25.7770 C.2     1  UNL1        0.1930
     27 F         -25.8600   -0.6810   25.7950 F       1  UNL1       -0.1992
     28 F         -20.6262    1.4848   28.1024 F       1  UNL1       -0.2063
     29 C         -24.9025    2.2243   30.4418 C.1     1  UNL1       -0.0574
     30 C         -22.8333    0.9112   28.6237 C.2     1  UNL1        0.0268
     31 O         -25.4507   -0.3005   29.1176 O.3     1  UNL1       -0.3361
     32 C         -25.1203    1.0957   29.3841 C.3     1  UNL1        0.2015
     33 C         -24.9498    3.0550   31.2345 C.1     1  UNL1       -0.0873
     34 C         -24.6017    1.3016   27.0167 C.2     1  UNL1        0.0017
     35 O         -23.0366    2.5570   25.7079 O.3     1  UNL1       -0.3439
     36 C         -22.2827    1.9854   26.3975 C.3     1  UNL1        0.1982
     37 C         -25.0919    4.1126   32.2430 C.3     1  UNL1        0.0901
     38 C         -22.4287    2.6743   24.7159 C.3     1  UNL1        0.1747
     39 C         -24.1293    1.1159   28.3522 C.2     1  UNL1        0.0191
     40 C         -21.8816    1.4030   27.6653 C.2     1  UNL1        0.1472
@<TRIPOS>BOND
     1     1    31    1
     2     2     7    1
     3     2     1    1
     4     3     2    2
     5     4     3    1
     6     4     5    2
     7     5     6    1
     8     6     7    2
     9     8     1    1
    10     8     9    1
    11     8    12    1
    12     9    10    1
    13    10    11    1
    14    12    11    1
    15    13    34    1
    16    14    13    1
    17    14    15    1
    18    15    18    2
    19    16    17    1
    20    16    15    1
    21    19    14    2
    22    20    21    2
    23    20    19    1
    24    21    26    1
    25    22    21    1
    26    23    22    1
    27    24    23    1
    28    24    25    1
    29    26    27    1
    30    26    13    2
    31    29    33    3
    32    31    32    1
    33    32    29    1
    34    33    37    1
    35    34    39    2
    36    35    36    1
    37    36    40    1
    38    38    35    1
    39    39    30    1
    40    39    32    1
    41    40    28    1
    42    40    30    2
