@<TRIPOS>MOLECULE
outputs/IAG933/test6/raw/output_6826_IAG933_linker_design_.xyz
 42 46 0 0 0
SMALL
GASTEIGER

@<TRIPOS>ATOM
      1 C         -24.8550   -1.0120   30.1430 C.3     1  UNL1        0.0977
      2 C         -24.9730   -2.5050   29.7880 C.2     1  UNL1       -0.0137
      3 C         -23.9060   -3.1730   29.1460 C.2     1  UNL1       -0.0038
      4 C         -23.9890   -4.5490   28.8530 C.2     1  UNL1       -0.0003
      5 C         -25.1370   -5.2800   29.2050 C.2     1  UNL1       -0.0000
      6 C         -26.2320   -4.6110   29.7840 C.2     1  UNL1       -0.0003
      7 C         -26.1550   -3.2320   30.0650 C.2     1  UNL1       -0.0038
      8 C         -25.3870   -0.6790   31.5710 C.3     1  UNL1        0.0843
      9 C         -25.1890    0.7730   32.0280 C.3     1  UNL1        0.0197
     10 C         -25.3360    0.6840   33.5440 C.3     1  UNL1        0.0203
     11 C         -24.8290   -0.7150   33.9050 C.3     1  UNL1        0.0887
     12 N         -24.7580   -1.4810   32.6460 N.3     1  UNL1       -0.2187
     13 C         -25.6880    1.6140   26.4610 C.3     1  UNL1        0.1143
     14 C         -26.2500    2.9200   26.3950 C.2     1  UNL1        0.0588
     15 C         -25.6420    4.0930   27.1230 C.2     1  UNL1        0.2626
     16 N         -25.6140    5.2520   26.4490 N.am    1  UNL1       -0.2000
     17 C         -25.0260    6.4790   26.9630 C.3     1  UNL1        0.1388
     18 O         -25.1430    3.9660   28.2430 O.2     1  UNL1       -0.2687
     19 C         -27.4380    3.0910   25.6450 C.2     1  UNL1        0.1023
     20 N         -28.0750    2.0890   25.0030 N.2     1  UNL1       -0.2119
     21 C         -27.5430    0.8490   25.0790 C.2     1  UNL1        0.2342
     22 O         -28.1930   -0.2080   24.4770 O.2     1  UNL1       -0.4585
     23 C         -29.4600    0.0050   23.8660 C.3     1  UNL1        0.2423
     24 C         -30.0650   -1.3770   23.5730 C.3     1  UNL1        0.2292
     25 O         -30.7290   -1.8780   24.7210 O.3     1  UNL1       -0.2162
     26 C         -26.3540    0.5760   25.7770 C.3     1  UNL1        0.2439
     27 F         -25.8600   -0.6810   25.7950 F       1  UNL1       -0.2267
     28 C         -23.3676    1.4259   26.7942 C.3     1  UNL1        0.1276
     29 C         -29.3304    1.1501   28.7903 C.3     1  UNL1        0.1573
     30 O         -30.2933   -0.9966   28.0234 O.2     1  UNL1       -0.2419
     31 C         -24.7734    1.3528   27.4789 C.3     1  UNL1        0.1868
     32 CL        -22.8981    2.6311   25.6782 Cl      1  UNL1       -0.1104
     33 C         -26.8651    0.3096   28.7709 C.2     1  UNL1        0.3278
     34 C         -29.2799   -0.1745   28.2467 C.2     1  UNL1        0.3618
     35 C         -22.3378    1.2503   27.9131 C.3     1  UNL1        0.0496
     36 C         -24.2196   -0.0119   29.0547 C.2     1  UNL1        0.1164
     37 C         -22.9791    0.4243   29.0588 C.2     1  UNL1        0.0113
     38 N         -25.4211    0.2195   28.2970 N.pl3   1  UNL1       -0.1773
     39 C         -30.4929    1.9865   28.3629 C.3     1  UNL1        0.0244
     40 S         -28.5284    2.0609   30.0788 S.3     1  UNL1       -0.0950
     41 N         -27.9279   -0.5803   28.2427 N.am    1  UNL1        0.0278
     42 C         -26.8568    1.4663   29.5277 C.2     1  UNL1        0.1192
@<TRIPOS>BOND
     1     1    36    1
     2     2     7    1
     3     2     1    1
     4     3     2    2
     5     4     3    1
     6     4     5    2
     7     5     6    1
     8     6     7    2
     9     8     1    1
    10     8     9    1
    11     8    12    1
    12     9    10    1
    13    10    11    1
    14    12    11    1
    15    13    14    1
    16    13    31    1
    17    14    15    1
    18    15    18    2
    19    16    17    1
    20    16    15    1
    21    19    14    2
    22    20    21    2
    23    20    19    1
    24    21    26    1
    25    22    21    1
    26    23    22    1
    27    24    23    1
    28    24    25    1
    29    26    27    1
    30    26    13    1
    31    28    32    1
    32    28    31    1
    33    28    35    1
    34    29    39    1
    35    29    40    1
    36    30    34    2
    37    31    38    1
    38    33    42    2
    39    34    29    1
    40    35    37    1
    41    36    37    2
    42    38    33    1
    43    38    36    1
    44    41    34    1
    45    41    33    1
    46    42    40    1
