@<TRIPOS>MOLECULE
outputs/IAG933/test6/raw/output_6835_IAG933_linker_design_.xyz
 44 48 0 0 0
SMALL
GASTEIGER

@<TRIPOS>ATOM
      1 C         -24.8550   -1.0120   30.1430 C.3     1  UNL1        0.2039
      2 C         -24.9730   -2.5050   29.7880 C.2     1  UNL1        0.0186
      3 C         -23.9060   -3.1730   29.1460 C.2     1  UNL1       -0.0008
      4 C         -23.9890   -4.5490   28.8530 C.2     1  UNL1       -0.0002
      5 C         -25.1370   -5.2800   29.2050 C.2     1  UNL1       -0.0000
      6 C         -26.2320   -4.6110   29.7840 C.2     1  UNL1       -0.0002
      7 C         -26.1550   -3.2320   30.0650 C.2     1  UNL1       -0.0008
      8 C         -25.3870   -0.6790   31.5710 C.3     1  UNL1        0.1174
      9 C         -25.1890    0.7730   32.0280 C.3     1  UNL1        0.0291
     10 C         -25.3360    0.6840   33.5440 C.3     1  UNL1        0.0208
     11 C         -24.8290   -0.7150   33.9050 C.3     1  UNL1        0.0889
     12 N         -24.7580   -1.4810   32.6460 N.3     1  UNL1       -0.2154
     13 C         -25.6880    1.6140   26.4610 C.2     1  UNL1        0.0390
     14 C         -26.2500    2.9200   26.3950 C.2     1  UNL1        0.0766
     15 C         -25.6420    4.0930   27.1230 C.2     1  UNL1        0.2664
     16 N         -25.6140    5.2520   26.4490 N.am    1  UNL1       -0.1997
     17 C         -25.0260    6.4790   26.9630 C.3     1  UNL1        0.1388
     18 O         -25.1430    3.9660   28.2430 O.2     1  UNL1       -0.2683
     19 C         -27.4380    3.0910   25.6450 C.2     1  UNL1        0.1067
     20 N         -28.0750    2.0890   25.0030 N.2     1  UNL1       -0.2081
     21 C         -27.5430    0.8490   25.0790 C.2     1  UNL1        0.2533
     22 O         -28.1930   -0.2080   24.4770 O.2     1  UNL1       -0.4558
     23 C         -29.4600    0.0050   23.8660 C.3     1  UNL1        0.2426
     24 C         -30.0650   -1.3770   23.5730 C.3     1  UNL1        0.2292
     25 O         -30.7290   -1.8780   24.7210 O.3     1  UNL1       -0.2162
     26 C         -26.3540    0.5760   25.7770 C.2     1  UNL1        0.1931
     27 F         -25.8600   -0.6810   25.7950 F       1  UNL1       -0.1992
     28 C         -26.0278    1.8846   31.3862 C.3     1  UNL1        0.0707
     29 C         -26.4660    6.4609   32.8679 C.2     1  UNL1        0.0001
     30 C         -27.4616    6.1584   33.7839 C.2     1  UNL1        0.0000
     31 C         -22.0778    0.9567   28.5449 C.2     1  UNL1        0.0378
     32 C         -27.5982    4.8629   34.2770 C.2     1  UNL1        0.0001
     33 O         -24.7962    3.7429   30.7374 O.2     1  UNL1       -0.2913
     34 C         -25.9443    4.1986   32.6706 C.2     1  UNL1        0.0347
     35 C         -23.2446    0.2511   28.8502 C.2     1  UNL1        0.1390
     36 C         -25.4560    3.2688   31.5295 C.2     1  UNL1        0.1731
     37 C         -24.4115    1.3725   27.1201 C.2     1  UNL1        0.0161
     38 C         -26.7852    3.8677   33.7468 C.2     1  UNL1        0.0028
     39 C         -25.5710    5.5123   32.4579 C.2     1  UNL1        0.0028
     40 CL        -23.2982    3.3311   25.5070 Cl      1  UNL1       -0.0822
     41 C         -24.3331    0.3226   28.0386 C.2     1  UNL1        0.0378
     42 O         -23.4953   -0.4765   29.9768 O.2     1  UNL1       -0.4733
     43 C         -23.2597    2.1364   26.7903 C.2     1  UNL1        0.0579
     44 C         -22.1297    1.9249   27.5124 C.2     1  UNL1        0.0145
@<TRIPOS>BOND
     1     1    42    1
     2     2     7    1
     3     2     1    1
     4     3     2    2
     5     4     3    1
     6     4     5    2
     7     5     6    1
     8     6     7    2
     9     8     1    1
    10     8     9    1
    11     8    12    1
    12     9    28    1
    13     9    10    1
    14    10    11    1
    15    12    11    1
    16    13    37    1
    17    14    13    1
    18    14    15    1
    19    15    18    2
    20    16    17    1
    21    16    15    1
    22    19    14    2
    23    20    21    2
    24    20    19    1
    25    21    26    1
    26    22    21    1
    27    23    22    1
    28    24    23    1
    29    24    25    1
    30    26    27    1
    31    26    13    2
    32    28    36    1
    33    29    30    1
    34    30    32    2
    35    31    35    1
    36    33    36    2
    37    34    38    2
    38    35    42    1
    39    36    34    1
    40    37    41    1
    41    38    32    1
    42    39    34    1
    43    39    29    2
    44    40    43    1
    45    41    35    2
    46    43    37    2
    47    43    44    1
    48    44    31    2
