@<TRIPOS>MOLECULE
outputs/IAG933/test6/raw/output_6836_IAG933_linker_design_.xyz
 48 51 0 0 0
SMALL
GASTEIGER

@<TRIPOS>ATOM
      1 C         -24.8550   -1.0120   30.1430 C.3     1  UNL1        0.0426
      2 C         -24.9730   -2.5050   29.7880 C.2     1  UNL1       -0.0210
      3 C         -23.9060   -3.1730   29.1460 C.2     1  UNL1       -0.0042
      4 C         -23.9890   -4.5490   28.8530 C.2     1  UNL1       -0.0003
      5 C         -25.1370   -5.2800   29.2050 C.2     1  UNL1       -0.0000
      6 C         -26.2320   -4.6110   29.7840 C.2     1  UNL1       -0.0003
      7 C         -26.1550   -3.2320   30.0650 C.2     1  UNL1       -0.0042
      8 C         -25.3870   -0.6790   31.5710 C.3     1  UNL1        0.0769
      9 C         -25.1890    0.7730   32.0280 C.3     1  UNL1        0.0192
     10 C         -25.3360    0.6840   33.5440 C.3     1  UNL1        0.0202
     11 C         -24.8290   -0.7150   33.9050 C.3     1  UNL1        0.0887
     12 N         -24.7580   -1.4810   32.6460 N.3     1  UNL1       -0.2191
     13 C         -25.6880    1.6140   26.4610 C.3     1  UNL1        0.1168
     14 C         -26.2500    2.9200   26.3950 C.2     1  UNL1        0.0589
     15 C         -25.6420    4.0930   27.1230 C.2     1  UNL1        0.2626
     16 N         -25.6140    5.2520   26.4490 N.am    1  UNL1       -0.2000
     17 C         -25.0260    6.4790   26.9630 C.3     1  UNL1        0.1388
     18 O         -25.1430    3.9660   28.2430 O.2     1  UNL1       -0.2687
     19 C         -27.4380    3.0910   25.6450 C.2     1  UNL1        0.1023
     20 N         -28.0750    2.0890   25.0030 N.2     1  UNL1       -0.2119
     21 C         -27.5430    0.8490   25.0790 C.2     1  UNL1        0.2342
     22 O         -28.1930   -0.2080   24.4770 O.2     1  UNL1       -0.4585
     23 C         -29.4600    0.0050   23.8660 C.3     1  UNL1        0.2423
     24 C         -30.0650   -1.3770   23.5730 C.3     1  UNL1        0.2292
     25 O         -30.7290   -1.8780   24.7210 O.3     1  UNL1       -0.2162
     26 C         -26.3540    0.5760   25.7770 C.3     1  UNL1        0.2440
     27 F         -25.8600   -0.6810   25.7950 F       1  UNL1       -0.2267
     28 C         -21.4796    1.3552   27.4806 C.3     1  UNL1        0.3140
     29 C         -30.3480    1.1187   29.0059 C.3     1  UNL1        0.0235
     30 N         -23.8135    1.0493   27.9938 N.pl3   1  UNL1       -0.1877
     31 C         -29.1928    1.9345   29.4556 C.2     1  UNL1       -0.0070
     32 C         -25.6281   -0.2019   29.0949 C.3     1  UNL1        0.0566
     33 N         -22.1520   -0.0454   29.3395 N.2     1  UNL1        0.1911
     34 N         -30.0164    5.5985   30.4756 N.am    1  UNL1       -0.0826
     35 C         -27.1247    4.9899   30.4836 C.3     1  UNL1        0.1174
     36 C         -27.2196    0.0256   29.0550 C.3     1  UNL1        0.0319
     37 O         -31.1582    3.7615   30.6556 O.2     1  UNL1       -0.2653
     38 N         -27.7309    3.6211   30.0881 N.pl3   1  UNL1       -0.2810
     39 C         -30.0496   -0.3286   28.5781 C.3     1  UNL1        0.0047
     40 C         -29.1084    3.3580   29.8608 C.2     1  UNL1        0.1047
     41 C         -27.7570    1.4325   29.4997 C.2     1  UNL1       -0.0098
     42 F         -20.2972    1.3320   28.2370 F       1  UNL1       -0.2202
     43 C         -22.5739    0.7779   28.3812 C.2     1  UNL1        0.3885
     44 C         -30.1601    4.2523   30.3308 C.2     1  UNL1        0.2975
     45 C         -24.8813    1.0754   28.9646 C.3     1  UNL1        0.2028
     46 C         -31.1750    1.6635   27.8332 C.3     1  UNL1        0.0047
     47 C         -26.9627    2.4449   29.9798 C.2     1  UNL1        0.0609
     48 C         -24.2092    1.4641   26.6194 C.3     1  UNL1        0.2099
@<TRIPOS>BOND
     1     1    32    1
     2     2     7    1
     3     2     1    1
     4     3     2    2
     5     4     3    1
     6     4     5    2
     7     5     6    1
     8     6     7    2
     9     8     1    1
    10     8     9    1
    11     8    12    1
    12     9    10    1
    13    10    11    1
    14    12    11    1
    15    13    48    1
    16    14    13    1
    17    14    15    1
    18    15    18    2
    19    16    17    1
    20    16    15    1
    21    19    14    2
    22    20    21    2
    23    20    19    1
    24    21    26    1
    25    22    21    1
    26    23    22    1
    27    24    23    1
    28    24    25    1
    29    26    27    1
    30    26    13    1
    31    28    42    1
    32    28    43    1
    33    29    31    1
    34    30    43    1
    35    30    45    1
    36    31    41    1
    37    31    40    2
    38    32    45    1
    39    36    32    1
    40    36    41    1
    41    38    35    1
    42    39    29    1
    43    40    38    1
    44    40    44    1
    45    41    47    2
    46    43    33    2
    47    44    34    1
    48    44    37    2
    49    46    29    1
    50    47    38    1
    51    48    30    1
