@<TRIPOS>MOLECULE
outputs/IAG933/test6/raw/output_6839_IAG933_linker_design_.xyz
 42 47 0 0 0
SMALL
GASTEIGER

@<TRIPOS>ATOM
      1 C         -24.8550   -1.0120   30.1430 C.3     1  UNL1        0.0454
      2 C         -24.9730   -2.5050   29.7880 C.2     1  UNL1       -0.0207
      3 C         -23.9060   -3.1730   29.1460 C.2     1  UNL1       -0.0042
      4 C         -23.9890   -4.5490   28.8530 C.2     1  UNL1       -0.0003
      5 C         -25.1370   -5.2800   29.2050 C.2     1  UNL1       -0.0000
      6 C         -26.2320   -4.6110   29.7840 C.2     1  UNL1       -0.0003
      7 C         -26.1550   -3.2320   30.0650 C.2     1  UNL1       -0.0042
      8 C         -25.3870   -0.6790   31.5710 C.3     1  UNL1        0.0951
      9 C         -25.1890    0.7730   32.0280 C.3     1  UNL1        0.0903
     10 C         -25.3360    0.6840   33.5440 C.3     1  UNL1        0.0399
     11 C         -24.8290   -0.7150   33.9050 C.3     1  UNL1        0.0905
     12 N         -24.7580   -1.4810   32.6460 N.3     1  UNL1       -0.2174
     13 C         -25.6880    1.6140   26.4610 C.3     1  UNL1        0.0924
     14 C         -26.2500    2.9200   26.3950 C.2     1  UNL1        0.0568
     15 C         -25.6420    4.0930   27.1230 C.2     1  UNL1        0.2625
     16 N         -25.6140    5.2520   26.4490 N.am    1  UNL1       -0.2000
     17 C         -25.0260    6.4790   26.9630 C.3     1  UNL1        0.1388
     18 O         -25.1430    3.9660   28.2430 O.2     1  UNL1       -0.2687
     19 C         -27.4380    3.0910   25.6450 C.2     1  UNL1        0.1022
     20 N         -28.0750    2.0890   25.0030 N.2     1  UNL1       -0.2119
     21 C         -27.5430    0.8490   25.0790 C.2     1  UNL1        0.2341
     22 O         -28.1930   -0.2080   24.4770 O.2     1  UNL1       -0.4585
     23 C         -29.4600    0.0050   23.8660 C.3     1  UNL1        0.2423
     24 C         -30.0650   -1.3770   23.5730 C.3     1  UNL1        0.2292
     25 O         -30.7290   -1.8780   24.7210 O.3     1  UNL1       -0.2162
     26 C         -26.3540    0.5760   25.7770 C.3     1  UNL1        0.2419
     27 F         -25.8600   -0.6810   25.7950 F       1  UNL1       -0.2268
     28 N         -25.2655    2.0125   31.1903 N.pl3   1  UNL1       -0.3073
     29 C         -26.4903    2.8493   31.3952 C.2     1  UNL1        0.0508
     30 C         -26.2492    3.9644   31.7115 C.2     1  UNL1       -0.0110
     31 C         -24.2670    2.1210   30.0950 C.3     1  UNL1        0.1162
     32 O         -28.7658    2.9470   30.9011 O.3     1  UNL1       -0.3473
     33 C         -24.4951    1.5852   26.7576 C.3     1  UNL1        0.1025
     34 C         -21.6737    1.7062   27.5994 C.2     1  UNL1        0.0115
     35 C         -23.7048    1.5180   28.9293 C.3     1  UNL1        0.1286
     36 N         -24.1765    1.3480   28.0903 N.pl3   1  UNL1       -0.3022
     37 C         -28.7503    4.1029   31.7208 C.3     1  UNL1        0.1474
     38 C         -22.0651    1.9302   26.2629 C.2     1  UNL1       -0.0019
     39 C         -23.4306    1.8883   25.9244 C.2     1  UNL1       -0.0063
     40 C         -22.9696    1.4615   28.3923 C.2     1  UNL1        0.0453
     41 C         -27.4830    4.9724   31.6964 C.3     1  UNL1        0.0591
     42 C         -27.6282    2.1531   31.1375 C.3     1  UNL1        0.1825
@<TRIPOS>BOND
     1     2     7    1
     2     2     1    1
     3     3     2    2
     4     4     3    1
     5     4     5    2
     6     5     6    1
     7     6     7    2
     8     8     1    1
     9     8     9    1
    10     8    12    1
    11     9    28    1
    12     9    10    1
    13    10    11    1
    14    12    11    1
    15    13    14    1
    16    13    33    1
    17    14    15    1
    18    15    18    2
    19    16    17    1
    20    16    15    1
    21    19    14    2
    22    20    21    2
    23    20    19    1
    24    21    26    1
    25    22    21    1
    26    23    22    1
    27    24    23    1
    28    24    25    1
    29    26    27    1
    30    26    13    1
    31    28    29    1
    32    29    30    2
    33    31    28    1
    34    32    42    1
    35    32    37    1
    36    33    39    1
    37    33    36    1
    38    34    40    2
    39    35    31    1
    40    36    40    1
    41    36    35    1
    42    38    34    1
    43    39    38    2
    44    40    35    1
    45    41    30    1
    46    41    37    1
    47    42    29    1
