@<TRIPOS>MOLECULE
outputs/IAG933/test6/raw/output_6840_IAG933_linker_design_.xyz
 48 53 0 0 0
SMALL
GASTEIGER

@<TRIPOS>ATOM
      1 C         -24.8550   -1.0120   30.1430 C.3     1  UNL1        0.0733
      2 C         -24.9730   -2.5050   29.7880 C.2     1  UNL1       -0.0183
      3 C         -23.9060   -3.1730   29.1460 C.2     1  UNL1       -0.0041
      4 C         -23.9890   -4.5490   28.8530 C.2     1  UNL1       -0.0003
      5 C         -25.1370   -5.2800   29.2050 C.2     1  UNL1       -0.0000
      6 C         -26.2320   -4.6110   29.7840 C.2     1  UNL1       -0.0003
      7 C         -26.1550   -3.2320   30.0650 C.2     1  UNL1       -0.0041
      8 C         -25.3870   -0.6790   31.5710 C.3     1  UNL1        0.0796
      9 C         -25.1890    0.7730   32.0280 C.3     1  UNL1        0.0193
     10 C         -25.3360    0.6840   33.5440 C.3     1  UNL1        0.0202
     11 C         -24.8290   -0.7150   33.9050 C.3     1  UNL1        0.0887
     12 N         -24.7580   -1.4810   32.6460 N.3     1  UNL1       -0.2190
     13 C         -25.6880    1.6140   26.4610 C.2     1  UNL1        0.0926
     14 C         -26.2500    2.9200   26.3950 C.2     1  UNL1        0.0903
     15 C         -25.6420    4.0930   27.1230 C.2     1  UNL1        0.2676
     16 N         -25.6140    5.2520   26.4490 N.am    1  UNL1       -0.1997
     17 C         -25.0260    6.4790   26.9630 C.3     1  UNL1        0.1388
     18 O         -25.1430    3.9660   28.2430 O.2     1  UNL1       -0.2683
     19 C         -27.4380    3.0910   25.6450 C.2     1  UNL1        0.1080
     20 N         -28.0750    2.0890   25.0030 N.2     1  UNL1       -0.2080
     21 C         -27.5430    0.8490   25.0790 C.2     1  UNL1        0.2546
     22 O         -28.1930   -0.2080   24.4770 O.2     1  UNL1       -0.4558
     23 C         -29.4600    0.0050   23.8660 C.3     1  UNL1        0.2426
     24 C         -30.0650   -1.3770   23.5730 C.3     1  UNL1        0.2292
     25 O         -30.7290   -1.8780   24.7210 O.3     1  UNL1       -0.2162
     26 C         -26.3540    0.5760   25.7770 C.2     1  UNL1        0.2066
     27 F         -25.8600   -0.6810   25.7950 F       1  UNL1       -0.1979
     28 N         -27.4419   -0.0818   29.2660 N.3     1  UNL1       -0.0785
     29 N         -27.8067    6.9466   30.6492 N.2     1  UNL1       -0.0287
     30 C         -28.0544    4.1490   30.5233 C.2     1  UNL1        0.0111
     31 C         -27.0643    4.8323   31.3309 C.2     1  UNL1        0.0982
     32 N         -24.3818    1.4423   26.9836 N.pl3   1  UNL1       -0.2450
     33 C         -26.9742    6.2001   31.4107 C.2     1  UNL1        0.4156
     34 C         -23.1347    2.0010   26.5358 C.3     1  UNL1        0.3107
     35 C         -28.1079    2.7809   30.3520 C.2     1  UNL1       -0.0024
     36 C         -28.7864    6.3335   29.8947 C.2     1  UNL1        0.2359
     37 O         -26.2768   -0.1301   28.4350 O.3     1  UNL1       -0.2622
     38 C         -29.9156    4.2998   29.0200 C.2     1  UNL1        0.0035
     39 C         -24.0679    0.8630   28.1451 C.2     1  UNL1        0.1137
     40 C         -28.4719    0.7530   29.2480 C.3     1  UNL1        0.1478
     41 C         -22.7361    1.1180   28.4517 C.2     1  UNL1        0.2435
     42 N         -22.2008    0.6664   29.5818 N.pl3   1  UNL1       -0.0870
     43 C         -29.7693    2.9487   28.6700 C.2     1  UNL1       -0.0027
     44 O         -22.1625    1.8554   27.4651 O.2     1  UNL1       -0.4385
     45 N         -26.1154    6.8254   32.2371 N.pl3   1  UNL1        0.2163
     46 C         -28.9825    4.9435   29.8357 C.2     1  UNL1        0.0470
     47 C         -24.9645    0.0933   29.0942 C.3     1  UNL1        0.1846
     48 C         -28.7960    2.1590   29.3608 C.2     1  UNL1       -0.0022
@<TRIPOS>BOND
     1     1    47    1
     2     2     7    1
     3     2     1    1
     4     3     2    2
     5     4     3    1
     6     4     5    2
     7     5     6    1
     8     6     7    2
     9     8     1    1
    10     8     9    1
    11     8    12    1
    12     9    10    1
    13    10    11    1
    14    12    11    1
    15    13    32    1
    16    14    13    1
    17    14    15    1
    18    15    18    2
    19    16    17    1
    20    16    15    1
    21    19    14    2
    22    20    21    2
    23    20    19    1
    24    21    26    1
    25    22    21    1
    26    23    22    1
    27    24    23    1
    28    24    25    1
    29    26    27    1
    30    26    13    2
    31    29    33    1
    32    30    31    1
    33    31    33    2
    34    32    39    1
    35    33    45    1
    36    34    32    1
    37    34    44    1
    38    35    30    1
    39    36    29    2
    40    37    28    1
    41    38    46    1
    42    39    41    2
    43    39    47    1
    44    40    28    1
    45    40    48    1
    46    41    42    1
    47    43    38    2
    48    43    48    1
    49    44    41    1
    50    46    36    1
    51    46    30    2
    52    47    37    1
    53    48    35    2
