@<TRIPOS>MOLECULE
outputs/IAG933/test6/raw/output_6842_IAG933_linker_design_.xyz
 44 48 0 0 0
SMALL
GASTEIGER

@<TRIPOS>ATOM
      1 C         -24.8550   -1.0120   30.1430 C.3     1  UNL1        0.0605
      2 C         -24.9730   -2.5050   29.7880 C.2     1  UNL1       -0.0194
      3 C         -23.9060   -3.1730   29.1460 C.2     1  UNL1       -0.0042
      4 C         -23.9890   -4.5490   28.8530 C.2     1  UNL1       -0.0003
      5 C         -25.1370   -5.2800   29.2050 C.2     1  UNL1       -0.0000
      6 C         -26.2320   -4.6110   29.7840 C.2     1  UNL1       -0.0003
      7 C         -26.1550   -3.2320   30.0650 C.2     1  UNL1       -0.0042
      8 C         -25.3870   -0.6790   31.5710 C.3     1  UNL1        0.0785
      9 C         -25.1890    0.7730   32.0280 C.3     1  UNL1        0.0193
     10 C         -25.3360    0.6840   33.5440 C.3     1  UNL1        0.0202
     11 C         -24.8290   -0.7150   33.9050 C.3     1  UNL1        0.0887
     12 N         -24.7580   -1.4810   32.6460 N.3     1  UNL1       -0.2191
     13 C         -25.6880    1.6140   26.4610 C.3     1  UNL1        0.0956
     14 C         -26.2500    2.9200   26.3950 C.2     1  UNL1        0.0590
     15 C         -25.6420    4.0930   27.1230 C.2     1  UNL1        0.2628
     16 N         -25.6140    5.2520   26.4490 N.am    1  UNL1       -0.2000
     17 C         -25.0260    6.4790   26.9630 C.3     1  UNL1        0.1388
     18 O         -25.1430    3.9660   28.2430 O.2     1  UNL1       -0.2686
     19 C         -27.4380    3.0910   25.6450 C.2     1  UNL1        0.1025
     20 N         -28.0750    2.0890   25.0030 N.2     1  UNL1       -0.2118
     21 C         -27.5430    0.8490   25.0790 C.2     1  UNL1        0.2344
     22 O         -28.1930   -0.2080   24.4770 O.2     1  UNL1       -0.4585
     23 C         -29.4600    0.0050   23.8660 C.3     1  UNL1        0.2423
     24 C         -30.0650   -1.3770   23.5730 C.3     1  UNL1        0.2292
     25 O         -30.7290   -1.8780   24.7210 O.3     1  UNL1       -0.2162
     26 C         -26.3540    0.5760   25.7770 C.3     1  UNL1        0.2441
     27 F         -25.8600   -0.6810   25.7950 F       1  UNL1       -0.2265
     28 C         -23.2208    1.0371   27.3200 C.2     1  UNL1        0.0716
     29 S         -27.2238    0.6042   29.4404 S.O2    1  UNL1        0.0576
     30 C         -23.3286    2.1610   25.4135 C.2     1  UNL1        0.1792
     31 C         -22.1742   -0.4347   29.0045 C.2     1  UNL1        0.2147
     32 C         -28.0724    0.2933   31.0189 C.3     1  UNL1        0.1706
     33 O         -22.1220   -0.8328   30.3468 O.2     1  UNL1       -0.2877
     34 O         -21.9375    1.9803   25.7856 O.2     1  UNL1       -0.4209
     35 C         -29.4322    0.9622   30.9607 C.3     1  UNL1        0.0289
     36 N         -25.7779    0.8570   28.8823 N.3     1  UNL1       -0.0786
     37 C         -20.8799    0.1360   28.5861 C.3     1  UNL1        0.2765
     38 O         -27.6071   -0.5083   28.6991 O.2     1  UNL1       -0.1561
     39 C         -24.1053    1.5606   26.4371 C.2     1  UNL1        0.0286
     40 O         -20.7895    1.0890   27.6681 O.2     1  UNL1       -0.4393
     41 O         -27.3299    1.9345   29.3823 O.2     1  UNL1       -0.1561
     42 C         -23.3444    0.1892   28.4735 C.2     1  UNL1        0.0401
     43 C         -21.9294    1.3826   26.9373 C.2     1  UNL1        0.2964
     44 C         -24.7934   -0.0938   28.9328 C.3     1  UNL1        0.1278
@<TRIPOS>BOND
     1     1    44    1
     2     2     7    1
     3     2     1    1
     4     3     2    2
     5     4     3    1
     6     4     5    2
     7     5     6    1
     8     6     7    2
     9     8     1    1
    10     8     9    1
    11     8    12    1
    12     9    10    1
    13    10    11    1
    14    12    11    1
    15    13    39    1
    16    14    13    1
    17    14    15    1
    18    15    18    2
    19    16    17    1
    20    16    15    1
    21    19    14    2
    22    20    21    2
    23    20    19    1
    24    21    26    1
    25    22    21    1
    26    23    22    1
    27    24    23    1
    28    24    25    1
    29    26    27    1
    30    26    13    1
    31    28    42    1
    32    29    32    1
    33    30    34    1
    34    30    39    2
    35    31    33    1
    36    34    43    1
    37    35    32    1
    38    36    29    1
    39    37    31    1
    40    38    29    2
    41    39    28    1
    42    40    37    1
    43    41    29    2
    44    42    44    1
    45    42    31    2
    46    43    28    2
    47    43    40    1
    48    44    36    1
