@<TRIPOS>MOLECULE
outputs/IAG933/test6/raw/output_6843_IAG933_linker_design_.xyz
 46 49 0 0 0
SMALL
GASTEIGER

@<TRIPOS>ATOM
      1 C         -24.8550   -1.0120   30.1430 C.3     1  UNL1        0.0437
      2 C         -24.9730   -2.5050   29.7880 C.2     1  UNL1       -0.0208
      3 C         -23.9060   -3.1730   29.1460 C.2     1  UNL1       -0.0042
      4 C         -23.9890   -4.5490   28.8530 C.2     1  UNL1       -0.0003
      5 C         -25.1370   -5.2800   29.2050 C.2     1  UNL1       -0.0000
      6 C         -26.2320   -4.6110   29.7840 C.2     1  UNL1       -0.0003
      7 C         -26.1550   -3.2320   30.0650 C.2     1  UNL1       -0.0042
      8 C         -25.3870   -0.6790   31.5710 C.3     1  UNL1        0.0772
      9 C         -25.1890    0.7730   32.0280 C.3     1  UNL1        0.0195
     10 C         -25.3360    0.6840   33.5440 C.3     1  UNL1        0.0203
     11 C         -24.8290   -0.7150   33.9050 C.3     1  UNL1        0.0887
     12 N         -24.7580   -1.4810   32.6460 N.3     1  UNL1       -0.2191
     13 C         -25.6880    1.6140   26.4610 C.2     1  UNL1        0.0427
     14 C         -26.2500    2.9200   26.3950 C.2     1  UNL1        0.0748
     15 C         -25.6420    4.0930   27.1230 C.2     1  UNL1        0.2662
     16 N         -25.6140    5.2520   26.4490 N.am    1  UNL1       -0.1997
     17 C         -25.0260    6.4790   26.9630 C.3     1  UNL1        0.1388
     18 O         -25.1430    3.9660   28.2430 O.2     1  UNL1       -0.2683
     19 C         -27.4380    3.0910   25.6450 C.2     1  UNL1        0.1065
     20 N         -28.0750    2.0890   25.0030 N.2     1  UNL1       -0.2081
     21 C         -27.5430    0.8490   25.0790 C.2     1  UNL1        0.2530
     22 O         -28.1930   -0.2080   24.4770 O.2     1  UNL1       -0.4558
     23 C         -29.4600    0.0050   23.8660 C.3     1  UNL1        0.2426
     24 C         -30.0650   -1.3770   23.5730 C.3     1  UNL1        0.2292
     25 O         -30.7290   -1.8780   24.7210 O.3     1  UNL1       -0.2162
     26 C         -26.3540    0.5760   25.7770 C.2     1  UNL1        0.1914
     27 F         -25.8600   -0.6810   25.7950 F       1  UNL1       -0.1995
     28 C         -29.6558    4.5943   28.2767 C.3     1  UNL1        0.0992
     29 C         -22.2226    0.7106   28.6427 C.3     1  UNL1        0.0649
     30 C         -25.2769    2.3578   31.6618 C.3     1  UNL1        0.0237
     31 C         -27.3205    2.0630   30.5741 C.3     1  UNL1        0.2796
     32 C         -24.5279    1.2078   27.2604 C.3     1  UNL1        0.1425
     33 C         -23.3121    1.5527   29.4874 C.3     1  UNL1        0.1183
     34 O         -28.4643    5.8781   29.7528 O.3     1  UNL1       -0.4187
     35 F         -20.8957    1.8667   27.1122 F       1  UNL1       -0.2371
     36 N         -28.8908    4.6452   29.3437 N.am    1  UNL1       -0.2692
     37 O         -27.1432    0.9751   30.1214 O.3     1  UNL1       -0.1958
     38 O         -29.4017    2.3590   29.6032 O.2     1  UNL1       -0.5260
     39 N         -27.6195    3.1216   30.6582 N.am    1  UNL1       -0.2623
     40 C         -28.6894    3.3585   29.9466 C.2     1  UNL1        0.1510
     41 O         -24.3356    1.9567   28.5184 O.3     1  UNL1       -0.3541
     42 C         -26.3062    3.5803   31.2111 C.3     1  UNL1        0.0950
     43 C         -23.9275    2.4877   30.7753 C.3     1  UNL1        0.0314
     44 C         -21.9989    1.2784   27.3146 C.3     1  UNL1        0.1662
     45 C         -29.8335    5.8355   27.3429 C.3     1  UNL1        0.0239
     46 C         -23.2481    1.1809   26.4698 C.3     1  UNL1        0.0695
@<TRIPOS>BOND
     1     2     7    1
     2     2     1    1
     3     3     2    2
     4     4     3    1
     5     4     5    2
     6     5     6    1
     7     6     7    2
     8     8     1    1
     9     8     9    1
    10     8    12    1
    11     9    30    1
    12     9    10    1
    13    10    11    1
    14    12    11    1
    15    14    13    1
    16    14    15    1
    17    15    18    2
    18    16    17    1
    19    16    15    1
    20    19    14    2
    21    20    21    2
    22    20    19    1
    23    21    26    1
    24    22    21    1
    25    23    22    1
    26    24    23    1
    27    24    25    1
    28    26    27    1
    29    26    13    2
    30    28    36    1
    31    29    33    1
    32    30    43    1
    33    31    39    1
    34    32    13    1
    35    32    41    1
    36    33    43    1
    37    36    34    1
    38    36    40   am
    39    37    31    1
    40    38    40    2
    41    39    42    1
    42    40    39   am
    43    41    33    1
    44    42    30    1
    45    44    35    1
    46    44    29    1
    47    45    28    1
    48    46    32    1
    49    46    44    1
