@<TRIPOS>MOLECULE
outputs/IAG933/test6/raw/output_6848_IAG933_linker_design_.xyz
 49 54 0 0 0
SMALL
GASTEIGER

@<TRIPOS>ATOM
      1 C         -24.8550   -1.0120   30.1430 C.3     1  UNL1        0.1333
      2 C         -24.9730   -2.5050   29.7880 C.2     1  UNL1       -0.0012
      3 C         -23.9060   -3.1730   29.1460 C.2     1  UNL1       -0.0026
      4 C         -23.9890   -4.5490   28.8530 C.2     1  UNL1       -0.0003
      5 C         -25.1370   -5.2800   29.2050 C.2     1  UNL1       -0.0000
      6 C         -26.2320   -4.6110   29.7840 C.2     1  UNL1       -0.0003
      7 C         -26.1550   -3.2320   30.0650 C.2     1  UNL1       -0.0026
      8 C         -25.3870   -0.6790   31.5710 C.3     1  UNL1        0.0969
      9 C         -25.1890    0.7730   32.0280 C.3     1  UNL1        0.0210
     10 C         -25.3360    0.6840   33.5440 C.3     1  UNL1        0.0203
     11 C         -24.8290   -0.7150   33.9050 C.3     1  UNL1        0.0888
     12 N         -24.7580   -1.4810   32.6460 N.3     1  UNL1       -0.2174
     13 C         -25.6880    1.6140   26.4610 C.3     1  UNL1        0.0702
     14 C         -26.2500    2.9200   26.3950 C.2     1  UNL1        0.0526
     15 C         -25.6420    4.0930   27.1230 C.2     1  UNL1        0.2179
     16 N         -25.6140    5.2520   26.4490 N.2     1  UNL1       -0.2359
     17 C         -25.0260    6.4790   26.9630 C.3     1  UNL1        0.1550
     18 O         -25.1430    3.9660   28.2430 O.2     1  UNL1       -0.4595
     19 C         -27.4380    3.0910   25.6450 C.2     1  UNL1        0.1022
     20 N         -28.0750    2.0890   25.0030 N.2     1  UNL1       -0.2119
     21 C         -27.5430    0.8490   25.0790 C.2     1  UNL1        0.2341
     22 O         -28.1930   -0.2080   24.4770 O.2     1  UNL1       -0.4585
     23 C         -29.4600    0.0050   23.8660 C.3     1  UNL1        0.2423
     24 C         -30.0650   -1.3770   23.5730 C.3     1  UNL1        0.2292
     25 O         -30.7290   -1.8780   24.7210 O.3     1  UNL1       -0.2162
     26 C         -26.3540    0.5760   25.7770 C.3     1  UNL1        0.2400
     27 F         -25.8600   -0.6810   25.7950 F       1  UNL1       -0.2269
     28 C         -27.2479    6.8880   30.3266 C.2     1  UNL1        0.0036
     29 C         -27.7967    3.0590   29.5752 C.2     1  UNL1        0.1609
     30 C         -20.9463    1.4135   27.7070 C.3     1  UNL1        0.0096
     31 C         -27.2091    7.5405   31.5684 C.2     1  UNL1       -0.0022
     32 N         -24.4488   -0.0045   29.2275 N.am    1  UNL1       -0.2013
     33 C         -22.4223    1.2253   28.0106 C.3     1  UNL1        0.0782
     34 C         -28.9325    0.8701   29.0043 C.3     1  UNL1        0.0082
     35 C         -23.3650    2.1708   27.3125 C.3     1  UNL1        0.0096
     36 C         -23.1295    0.2660   29.0896 C.2     1  UNL1        0.2412
     37 C         -25.2979    3.5610   29.6507 C.3     1  UNL1        0.2219
     38 O         -27.4088    8.4187   28.5817 O.3     1  UNL1       -0.3463
     39 C         -26.8779    6.9207   32.7563 C.2     1  UNL1       -0.0006
     40 C         -27.6527    1.5325   29.4777 C.3     1  UNL1        0.0653
     41 O         -22.4191   -0.1985   29.9329 O.2     1  UNL1       -0.2733
     42 O         -28.8224    3.5804   29.1222 O.2     1  UNL1       -0.2953
     43 C         -28.5685    7.7564   28.3018 C.3     1  UNL1        0.1765
     44 C         -24.2748    1.2077   26.6659 C.3     1  UNL1        0.0083
     45 C         -27.7165    7.6401   29.1407 C.3     1  UNL1        0.1668
     46 C         -26.5693    5.5934   32.8164 C.2     1  UNL1       -0.0038
     47 C         -26.8340    5.2937   30.5522 C.2     1  UNL1       -0.0138
     48 C         -26.6092    4.8146   31.5322 C.2     1  UNL1       -0.0124
     49 C         -26.6237    4.0261   30.3027 C.3     1  UNL1        0.1284
@<TRIPOS>BOND
     1     1    32    1
     2     2     7    1
     3     2     1    1
     4     3     2    2
     5     4     3    1
     6     4     5    2
     7     5     6    1
     8     6     7    2
     9     8     1    1
    10     8     9    1
    11     8    12    1
    12     9    10    1
    13    10    11    1
    14    12    11    1
    15    13    44    1
    16    14    13    1
    17    14    15    1
    18    15    18    1
    19    16    17    1
    20    16    15    2
    21    18    37    1
    22    19    14    2
    23    20    21    2
    24    20    19    1
    25    21    26    1
    26    22    21    1
    27    23    22    1
    28    24    23    1
    29    24    25    1
    30    26    27    1
    31    26    13    1
    32    28    47    2
    33    28    31    1
    34    29    49    1
    35    31    39    2
    36    33    30    1
    37    33    36    1
    38    34    40    1
    39    35    33    1
    40    36    32    1
    41    36    41    2
    42    38    45    1
    43    39    46    1
    44    40    29    1
    45    42    29    2
    46    43    38    1
    47    43    45    1
    48    44    35    1
    49    45    28    1
    50    47    48    1
    51    48    46    2
    52    49    37    1
    53    49    47    1
    54    49    48    1
