@<TRIPOS>MOLECULE
outputs/IAG933/test6/raw/output_6849_IAG933_linker_design_.xyz
 43 46 0 0 0
SMALL
GASTEIGER

@<TRIPOS>ATOM
      1 C         -24.8550   -1.0120   30.1430 C.3     1  UNL1        0.0438
      2 C         -24.9730   -2.5050   29.7880 C.2     1  UNL1       -0.0208
      3 C         -23.9060   -3.1730   29.1460 C.2     1  UNL1       -0.0042
      4 C         -23.9890   -4.5490   28.8530 C.2     1  UNL1       -0.0003
      5 C         -25.1370   -5.2800   29.2050 C.2     1  UNL1       -0.0000
      6 C         -26.2320   -4.6110   29.7840 C.2     1  UNL1       -0.0003
      7 C         -26.1550   -3.2320   30.0650 C.2     1  UNL1       -0.0042
      8 C         -25.3870   -0.6790   31.5710 C.3     1  UNL1        0.0785
      9 C         -25.1890    0.7730   32.0280 C.3     1  UNL1        0.0348
     10 C         -25.3360    0.6840   33.5440 C.3     1  UNL1        0.0216
     11 C         -24.8290   -0.7150   33.9050 C.3     1  UNL1        0.0887
     12 N         -24.7580   -1.4810   32.6460 N.3     1  UNL1       -0.2191
     13 C         -25.6880    1.6140   26.4610 C.2     1  UNL1        0.0444
     14 C         -26.2500    2.9200   26.3950 C.2     1  UNL1        0.0749
     15 C         -25.6420    4.0930   27.1230 C.2     1  UNL1        0.2662
     16 N         -25.6140    5.2520   26.4490 N.am    1  UNL1       -0.1997
     17 C         -25.0260    6.4790   26.9630 C.3     1  UNL1        0.1388
     18 O         -25.1430    3.9660   28.2430 O.2     1  UNL1       -0.2683
     19 C         -27.4380    3.0910   25.6450 C.2     1  UNL1        0.1065
     20 N         -28.0750    2.0890   25.0030 N.2     1  UNL1       -0.2081
     21 C         -27.5430    0.8490   25.0790 C.2     1  UNL1        0.2530
     22 O         -28.1930   -0.2080   24.4770 O.2     1  UNL1       -0.4558
     23 C         -29.4600    0.0050   23.8660 C.3     1  UNL1        0.2426
     24 C         -30.0650   -1.3770   23.5730 C.3     1  UNL1        0.2292
     25 O         -30.7290   -1.8780   24.7210 O.3     1  UNL1       -0.2162
     26 C         -26.3540    0.5760   25.7770 C.2     1  UNL1        0.1914
     27 F         -25.8600   -0.6810   25.7950 F       1  UNL1       -0.1995
     28 S         -26.8342    3.9327   32.0631 S.3     1  UNL1        0.0111
     29 C         -21.8463    2.2009   26.6225 C.3     1  UNL1        0.0906
     30 C         -25.3049    3.3790   31.8447 C.3     1  UNL1        0.1021
     31 C         -22.6515    1.3084   28.8810 C.2     1  UNL1        0.1593
     32 C         -21.5058    1.5431   27.9874 C.2     1  UNL1        0.1447
     33 C         -26.7976    5.3206   33.1046 C.3     1  UNL1        0.0985
     34 C         -25.3162    1.9916   31.0036 C.3     1  UNL1        0.0874
     35 C         -24.5638    1.2034   27.1186 C.3     1  UNL1        0.1623
     36 O         -23.6527    1.0024   26.0556 O.3     1  UNL1       -0.3495
     37 F         -22.3565    0.5707   30.0302 F       1  UNL1       -0.2053
     38 C         -22.9685    2.2223   25.6899 C.3     1  UNL1        0.1497
     39 N         -27.8899    2.8961   32.6913 N.3     1  UNL1       -0.0532
     40 O         -27.3978    4.5413   30.6981 O.3     1  UNL1       -0.1543
     41 N         -24.9917    1.9834   29.6005 N.3     1  UNL1       -0.2103
     42 F         -20.3720    1.3322   28.2067 F       1  UNL1       -0.2067
     43 C         -24.0686    1.4696   28.5904 C.3     1  UNL1        0.1558
@<TRIPOS>BOND
     1     2     7    1
     2     2     1    1
     3     3     2    2
     4     4     3    1
     5     4     5    2
     6     5     6    1
     7     6     7    2
     8     8     1    1
     9     8     9    1
    10     8    12    1
    11     9    34    1
    12     9    10    1
    13    10    11    1
    14    12    11    1
    15    14    13    1
    16    14    15    1
    17    15    18    2
    18    16    17    1
    19    16    15    1
    20    19    14    2
    21    20    21    2
    22    20    19    1
    23    21    26    1
    24    22    21    1
    25    23    22    1
    26    24    23    1
    27    24    25    1
    28    26    27    1
    29    26    13    2
    30    28    39    1
    31    28    33    1
    32    29    32    1
    33    30    28    1
    34    31    37    1
    35    32    42    1
    36    32    31    2
    37    34    30    1
    38    35    13    1
    39    35    43    1
    40    36    35    1
    41    38    36    1
    42    38    29    1
    43    40    28    1
    44    41    34    1
    45    43    31    1
    46    43    41    1
