@<TRIPOS>MOLECULE
outputs/IAG933/test6/raw/output_6851_IAG933_linker_design_.xyz
 44 48 0 0 0
SMALL
GASTEIGER

@<TRIPOS>ATOM
      1 C         -24.8550   -1.0120   30.1430 C.3     1  UNL1        0.1110
      2 C         -24.9730   -2.5050   29.7880 C.2     1  UNL1       -0.0092
      3 C         -23.9060   -3.1730   29.1460 C.2     1  UNL1       -0.0033
      4 C         -23.9890   -4.5490   28.8530 C.2     1  UNL1       -0.0003
      5 C         -25.1370   -5.2800   29.2050 C.2     1  UNL1       -0.0000
      6 C         -26.2320   -4.6110   29.7840 C.2     1  UNL1       -0.0003
      7 C         -26.1550   -3.2320   30.0650 C.2     1  UNL1       -0.0033
      8 C         -25.3870   -0.6790   31.5710 C.3     1  UNL1        0.0888
      9 C         -25.1890    0.7730   32.0280 C.3     1  UNL1        0.0201
     10 C         -25.3360    0.6840   33.5440 C.3     1  UNL1        0.0203
     11 C         -24.8290   -0.7150   33.9050 C.3     1  UNL1        0.0887
     12 N         -24.7580   -1.4810   32.6460 N.3     1  UNL1       -0.2182
     13 C         -25.6880    1.6140   26.4610 C.2     1  UNL1        0.0878
     14 C         -26.2500    2.9200   26.3950 C.2     1  UNL1        0.0899
     15 C         -25.6420    4.0930   27.1230 C.2     1  UNL1        0.2676
     16 N         -25.6140    5.2520   26.4490 N.am    1  UNL1       -0.1997
     17 C         -25.0260    6.4790   26.9630 C.3     1  UNL1        0.1388
     18 O         -25.1430    3.9660   28.2430 O.2     1  UNL1       -0.2683
     19 C         -27.4380    3.0910   25.6450 C.2     1  UNL1        0.1080
     20 N         -28.0750    2.0890   25.0030 N.2     1  UNL1       -0.2080
     21 C         -27.5430    0.8490   25.0790 C.2     1  UNL1        0.2546
     22 O         -28.1930   -0.2080   24.4770 O.2     1  UNL1       -0.4558
     23 C         -29.4600    0.0050   23.8660 C.3     1  UNL1        0.2426
     24 C         -30.0650   -1.3770   23.5730 C.3     1  UNL1        0.2292
     25 O         -30.7290   -1.8780   24.7210 O.3     1  UNL1       -0.2162
     26 C         -26.3540    0.5760   25.7770 C.2     1  UNL1        0.2063
     27 F         -25.8600   -0.6810   25.7950 F       1  UNL1       -0.1979
     28 O         -20.9348    2.4207   27.4698 O.3     1  UNL1       -0.2200
     29 C         -22.2372    0.0237   29.5384 C.3     1  UNL1        0.0054
     30 C         -24.3944    0.6562   28.3307 C.3     1  UNL1        0.1460
     31 N         -26.3683    1.4289   29.3779 N.3     1  UNL1       -0.1535
     32 C         -21.9793    1.5717   27.1256 C.3     1  UNL1        0.1855
     33 O         -26.4451   -0.7245   28.3549 O.3     1  UNL1       -0.1539
     34 C         -26.4448    1.9831   30.6795 C.3     1  UNL1        0.1026
     35 C         -26.7740    4.3265   31.2134 C.3     1  UNL1        0.0220
     36 C         -27.4924    2.9890   30.9262 C.3     1  UNL1        0.0214
     37 CL        -22.9267    2.6150   25.0244 Cl      1  UNL1       -0.0900
     38 C         -23.2797    2.2010   26.6700 C.3     1  UNL1        0.1850
     39 C         -27.5821    4.9658   32.4102 C.3     1  UNL1        0.1094
     40 N         -24.4042    1.2833   26.9801 N.pl3   1  UNL1       -0.2830
     41 S         -25.6310   -0.0158   29.0269 S.3     1  UNL1        0.0121
     42 N         -26.6466    5.3924   33.4294 N.3     1  UNL1       -0.1314
     43 C         -23.2576    1.0101   29.3343 C.3     1  UNL1        0.0332
     44 C         -22.1841    0.8490   28.4733 C.3     1  UNL1        0.0360
@<TRIPOS>BOND
     1     1    41    1
     2     2     7    1
     3     2     1    1
     4     3     2    2
     5     4     3    1
     6     4     5    2
     7     5     6    1
     8     6     7    2
     9     8     1    1
    10     8     9    1
    11     8    12    1
    12     9    10    1
    13    10    11    1
    14    12    11    1
    15    13    40    1
    16    14    13    1
    17    14    15    1
    18    15    18    2
    19    16    17    1
    20    16    15    1
    21    19    14    2
    22    20    21    2
    23    20    19    1
    24    21    26    1
    25    22    21    1
    26    23    22    1
    27    24    23    1
    28    24    25    1
    29    26    27    1
    30    26    13    2
    31    30    41    1
    32    30    43    1
    33    31    34    1
    34    32    28    1
    35    32    44    1
    36    34    36    1
    37    35    39    1
    38    36    35    1
    39    38    37    1
    40    38    40    1
    41    38    32    1
    42    39    42    1
    43    40    30    1
    44    41    33    1
    45    41    31    1
    46    43    29    1
    47    44    43    1
    48    44    29    1
