@<TRIPOS>MOLECULE
No_686-gen_results/8p0m/2024-11-27-11-27-31/
 15 17 0 0 0
SMALL
GASTEIGER

@<TRIPOS>ATOM
      1 C         -28.0162   -0.8135   28.8779 C.ar    1  UNL1        0.0147
      2 C         -27.0636   -0.1189   28.6079 C.ar    1  UNL1        0.0534
      3 N         -26.9849    0.5972   27.5218 N.pl3   1  UNL1       -0.2920
      4 C         -27.9606   -1.5421   30.1660 C.ar    1  UNL1        0.0013
      5 C         -26.7813   -1.6198   30.8836 C.ar    1  UNL1        0.0002
      6 C         -25.6460   -0.9698   30.4630 C.ar    1  UNL1        0.0058
      7 C         -25.7563   -0.1767   29.2863 C.ar    1  UNL1        0.0684
      8 C         -27.9271    1.1434   26.9162 C.3     1  UNL1        0.0923
      9 C         -27.7702    1.7507   25.6134 C.3     1  UNL1        0.0216
     10 C         -25.7314    0.7066   26.7126 C.3     1  UNL1        0.1703
     11 C         -25.5014    1.2429   25.5135 C.3     1  UNL1        0.0425
     12 C         -26.6005    1.8107   24.9204 C.3     1  UNL1        0.0053
     13 N         -24.5881    0.0940   27.3343 N.am    1  UNL1       -0.1829
     14 C         -24.5374   -0.0250   28.5964 C.2     1  UNL1        0.2674
     15 O         -23.3797   -0.2694   29.0874 O.2     1  UNL1       -0.2683
@<TRIPOS>BOND
     1     2     3    1
     2     3     8    1
     3     3    10    1
     4     9    12    1
     5    11    12    1
     6    10    13    1
     7     7    14    1
     8    13    14   am
     9    14    15    2
    10     8     9    1
    11    11    10    1
    12     1     2   ar
    13     2     7   ar
    14     7     6   ar
    15     6     5   ar
    16     5     4   ar
    17     4     1   ar
