@<TRIPOS>MOLECULE
outputs/IAG933/test6/raw/output_6861_IAG933_linker_design_.xyz
 42 46 0 0 0
SMALL
GASTEIGER

@<TRIPOS>ATOM
      1 C         -24.8550   -1.0120   30.1430 C.3     1  UNL1        0.2032
      2 C         -24.9730   -2.5050   29.7880 C.2     1  UNL1        0.0217
      3 C         -23.9060   -3.1730   29.1460 C.2     1  UNL1       -0.0004
      4 C         -23.9890   -4.5490   28.8530 C.2     1  UNL1       -0.0002
      5 C         -25.1370   -5.2800   29.2050 C.2     1  UNL1       -0.0000
      6 C         -26.2320   -4.6110   29.7840 C.2     1  UNL1       -0.0002
      7 C         -26.1550   -3.2320   30.0650 C.2     1  UNL1       -0.0004
      8 C         -25.3870   -0.6790   31.5710 C.3     1  UNL1        0.1201
      9 C         -25.1890    0.7730   32.0280 C.3     1  UNL1        0.0233
     10 C         -25.3360    0.6840   33.5440 C.3     1  UNL1        0.0204
     11 C         -24.8290   -0.7150   33.9050 C.3     1  UNL1        0.0889
     12 N         -24.7580   -1.4810   32.6460 N.3     1  UNL1       -0.2150
     13 C         -25.6880    1.6140   26.4610 C.2     1  UNL1        0.0475
     14 C         -26.2500    2.9200   26.3950 C.2     1  UNL1        0.0769
     15 C         -25.6420    4.0930   27.1230 C.2     1  UNL1        0.2664
     16 N         -25.6140    5.2520   26.4490 N.am    1  UNL1       -0.1997
     17 C         -25.0260    6.4790   26.9630 C.3     1  UNL1        0.1388
     18 O         -25.1430    3.9660   28.2430 O.2     1  UNL1       -0.2683
     19 C         -27.4380    3.0910   25.6450 C.2     1  UNL1        0.1067
     20 N         -28.0750    2.0890   25.0030 N.2     1  UNL1       -0.2081
     21 C         -27.5430    0.8490   25.0790 C.2     1  UNL1        0.2533
     22 O         -28.1930   -0.2080   24.4770 O.2     1  UNL1       -0.4558
     23 C         -29.4600    0.0050   23.8660 C.3     1  UNL1        0.2426
     24 C         -30.0650   -1.3770   23.5730 C.3     1  UNL1        0.2292
     25 O         -30.7290   -1.8780   24.7210 O.3     1  UNL1       -0.2162
     26 C         -26.3540    0.5760   25.7770 C.2     1  UNL1        0.1934
     27 F         -25.8600   -0.6810   25.7950 F       1  UNL1       -0.1992
     28 C         -27.9346   -0.4734   28.9746 C.2     1  UNL1        0.0403
     29 C         -26.9453    1.5946   29.6801 C.2     1  UNL1        0.0403
     30 F         -23.1396    1.5857   25.3325 F       1  UNL1       -0.2014
     31 C         -22.1090    1.5061   27.4298 C.2     1  UNL1        0.2141
     32 C         -26.7798    0.2829   29.2129 C.2     1  UNL1        0.1390
     33 C         -28.1591    2.0214   30.2086 C.2     1  UNL1        0.0035
     34 N         -23.1996    0.3670   29.1636 N.2     1  UNL1       -0.0333
     35 F         -21.0762    2.1665   26.9628 F       1  UNL1       -0.1977
     36 C         -29.2564    1.1855   30.1556 C.2     1  UNL1        0.0002
     37 C         -24.4848    1.2103   27.2815 C.2     1  UNL1        0.1149
     38 C         -24.4354    0.4612   28.5009 C.2     1  UNL1        0.3308
     39 C         -29.1533   -0.0342   29.4893 C.2     1  UNL1        0.0035
     40 C         -23.2571    1.4353   26.6713 C.2     1  UNL1        0.1784
     41 N         -25.4986   -0.2266   29.0609 N.pl3   1  UNL1       -0.1687
     42 C         -22.0666    0.9287   28.6712 C.2     1  UNL1        0.2674
@<TRIPOS>BOND
     1     1    41    1
     2     2     7    1
     3     2     1    1
     4     3     2    2
     5     4     3    1
     6     4     5    2
     7     5     6    1
     8     6     7    2
     9     8     1    1
    10     8     9    1
    11     8    12    1
    12     9    10    1
    13    10    11    1
    14    12    11    1
    15    13    37    1
    16    14    13    1
    17    14    15    1
    18    15    18    2
    19    16    17    1
    20    16    15    1
    21    19    14    2
    22    20    21    2
    23    20    19    1
    24    21    26    1
    25    22    21    1
    26    23    22    1
    27    24    23    1
    28    24    25    1
    29    26    27    1
    30    26    13    2
    31    28    32    2
    32    28    39    1
    33    29    33    2
    34    30    40    1
    35    31    42    1
    36    32    29    1
    37    35    31    1
    38    36    33    1
    39    37    38    2
    40    38    41    1
    41    38    34    1
    42    39    36    2
    43    40    37    1
    44    40    31    2
    45    41    32    1
    46    42    34    2
