@<TRIPOS>MOLECULE
outputs/IAG933/test6/raw/output_6865_IAG933_linker_design_.xyz
 48 51 0 0 0
SMALL
GASTEIGER

@<TRIPOS>ATOM
      1 C         -24.8550   -1.0120   30.1430 C.3     1  UNL1        0.0636
      2 C         -24.9730   -2.5050   29.7880 C.2     1  UNL1       -0.0170
      3 C         -23.9060   -3.1730   29.1460 C.2     1  UNL1       -0.0039
      4 C         -23.9890   -4.5490   28.8530 C.2     1  UNL1       -0.0003
      5 C         -25.1370   -5.2800   29.2050 C.2     1  UNL1       -0.0000
      6 C         -26.2320   -4.6110   29.7840 C.2     1  UNL1       -0.0003
      7 C         -26.1550   -3.2320   30.0650 C.2     1  UNL1       -0.0039
      8 C         -25.3870   -0.6790   31.5710 C.3     1  UNL1        0.0809
      9 C         -25.1890    0.7730   32.0280 C.3     1  UNL1        0.0195
     10 C         -25.3360    0.6840   33.5440 C.3     1  UNL1        0.0203
     11 C         -24.8290   -0.7150   33.9050 C.3     1  UNL1        0.0887
     12 N         -24.7580   -1.4810   32.6460 N.3     1  UNL1       -0.2188
     13 C         -25.6880    1.6140   26.4610 C.2     1  UNL1        0.0419
     14 C         -26.2500    2.9200   26.3950 C.2     1  UNL1        0.0767
     15 C         -25.6420    4.0930   27.1230 C.2     1  UNL1        0.2664
     16 N         -25.6140    5.2520   26.4490 N.am    1  UNL1       -0.1997
     17 C         -25.0260    6.4790   26.9630 C.3     1  UNL1        0.1388
     18 O         -25.1430    3.9660   28.2430 O.2     1  UNL1       -0.2683
     19 C         -27.4380    3.0910   25.6450 C.2     1  UNL1        0.1067
     20 N         -28.0750    2.0890   25.0030 N.2     1  UNL1       -0.2081
     21 C         -27.5430    0.8490   25.0790 C.2     1  UNL1        0.2533
     22 O         -28.1930   -0.2080   24.4770 O.2     1  UNL1       -0.4558
     23 C         -29.4600    0.0050   23.8660 C.3     1  UNL1        0.2426
     24 C         -30.0650   -1.3770   23.5730 C.3     1  UNL1        0.2292
     25 O         -30.7290   -1.8780   24.7210 O.3     1  UNL1       -0.2162
     26 C         -26.3540    0.5760   25.7770 C.2     1  UNL1        0.1932
     27 F         -25.8600   -0.6810   25.7950 F       1  UNL1       -0.1992
     28 O         -26.7194    0.5046   28.6711 O.2     1  UNL1       -0.4739
     29 C         -23.4340    1.6315   27.0205 C.2     1  UNL1        0.0880
     30 C         -31.1121    1.5935   33.1465 C.3     1  UNL1        0.2069
     31 O         -31.4805   -1.1528   27.8114 O.3     1  UNL1       -0.1709
     32 F         -21.1472    1.4681   27.8260 F       1  UNL1       -0.2033
     33 CL        -22.9081    2.4700   25.6219 Cl      1  UNL1       -0.0798
     34 C         -25.3807    0.6312   28.4935 C.2     1  UNL1        0.1359
     35 O         -28.5824    1.8220   32.3659 O.3     1  UNL1       -0.0717
     36 O         -30.7445    0.9643   31.8668 O.3     1  UNL1       -0.2391
     37 C         -32.0173    1.0211   28.8086 C.3     1  UNL1        0.0801
     38 O         -28.5667   -0.3768   31.8457 O.3     1  UNL1       -0.0717
     39 C         -22.5149    1.1108   27.9708 C.2     1  UNL1        0.1505
     40 C         -24.8279    1.3403   27.2890 C.2     1  UNL1        0.0489
     41 C         -23.0142    0.2861   29.0152 C.2     1  UNL1        0.0296
     42 C         -27.6065    1.4761   29.3330 C.3     1  UNL1        0.2301
     43 C         -30.6219    0.9728   27.1827 C.3     1  UNL1        0.0801
     44 S         -30.9085    0.0238   28.2183 S.3     1  UNL1       -0.0685
     45 C         -29.5153   -0.1027   29.1631 C.3     1  UNL1        0.0956
     46 C         -29.0305    1.1620   29.8979 C.3     1  UNL1        0.1878
     47 C         -24.3896   -0.0074   29.1818 C.2     1  UNL1        0.0192
     48 S         -29.2252    0.8618   31.5469 S.3     1  UNL1       -0.0040
@<TRIPOS>BOND
     1     1    47    1
     2     2     7    1
     3     2     1    1
     4     3     2    2
     5     4     3    1
     6     4     5    2
     7     5     6    1
     8     6     7    2
     9     8     1    1
    10     8     9    1
    11     8    12    1
    12     9    10    1
    13    10    11    1
    14    12    11    1
    15    13    40    1
    16    14    13    1
    17    14    15    1
    18    15    18    2
    19    16    17    1
    20    16    15    1
    21    19    14    2
    22    20    21    2
    23    20    19    1
    24    21    26    1
    25    22    21    1
    26    23    22    1
    27    24    23    1
    28    24    25    1
    29    26    27    1
    30    26    13    2
    31    28    42    1
    32    29    40    2
    33    29    39    1
    34    31    44    1
    35    32    39    1
    36    33    29    1
    37    34    28    1
    38    34    47    2
    39    36    30    1
    40    39    41    2
    41    40    34    1
    42    41    47    1
    43    42    46    1
    44    43    44    1
    45    44    37    1
    46    44    45    1
    47    46    45    1
    48    46    48    1
    49    48    38    1
    50    48    36    1
    51    48    35    1
