@<TRIPOS>MOLECULE
outputs/IAG933/test6/raw/output_6866_IAG933_linker_design_.xyz
 45 49 0 0 0
SMALL
GASTEIGER

@<TRIPOS>ATOM
      1 C         -24.8550   -1.0120   30.1430 C.3     1  UNL1        0.0616
      2 C         -24.9730   -2.5050   29.7880 C.2     1  UNL1       -0.0194
      3 C         -23.9060   -3.1730   29.1460 C.2     1  UNL1       -0.0042
      4 C         -23.9890   -4.5490   28.8530 C.2     1  UNL1       -0.0003
      5 C         -25.1370   -5.2800   29.2050 C.2     1  UNL1       -0.0000
      6 C         -26.2320   -4.6110   29.7840 C.2     1  UNL1       -0.0003
      7 C         -26.1550   -3.2320   30.0650 C.2     1  UNL1       -0.0042
      8 C         -25.3870   -0.6790   31.5710 C.3     1  UNL1        0.0786
      9 C         -25.1890    0.7730   32.0280 C.3     1  UNL1        0.0193
     10 C         -25.3360    0.6840   33.5440 C.3     1  UNL1        0.0202
     11 C         -24.8290   -0.7150   33.9050 C.3     1  UNL1        0.0887
     12 N         -24.7580   -1.4810   32.6460 N.3     1  UNL1       -0.2191
     13 C         -25.6880    1.6140   26.4610 C.2     1  UNL1        0.0415
     14 C         -26.2500    2.9200   26.3950 C.2     1  UNL1        0.0767
     15 C         -25.6420    4.0930   27.1230 C.2     1  UNL1        0.2664
     16 N         -25.6140    5.2520   26.4490 N.am    1  UNL1       -0.1997
     17 C         -25.0260    6.4790   26.9630 C.3     1  UNL1        0.1388
     18 O         -25.1430    3.9660   28.2430 O.2     1  UNL1       -0.2683
     19 C         -27.4380    3.0910   25.6450 C.2     1  UNL1        0.1067
     20 N         -28.0750    2.0890   25.0030 N.2     1  UNL1       -0.2081
     21 C         -27.5430    0.8490   25.0790 C.2     1  UNL1        0.2533
     22 O         -28.1930   -0.2080   24.4770 O.2     1  UNL1       -0.4558
     23 C         -29.4600    0.0050   23.8660 C.3     1  UNL1        0.2426
     24 C         -30.0650   -1.3770   23.5730 C.3     1  UNL1        0.2292
     25 O         -30.7290   -1.8780   24.7210 O.3     1  UNL1       -0.2162
     26 C         -26.3540    0.5760   25.7770 C.2     1  UNL1        0.1932
     27 F         -25.8600   -0.6810   25.7950 F       1  UNL1       -0.1992
     28 C         -28.0695    0.1994   28.8379 C.3     1  UNL1        0.0987
     29 C         -21.9090    1.0845   28.5397 C.3     1  UNL1        0.2322
     30 C         -28.7129    2.6613   29.1996 C.3     1  UNL1        0.0935
     31 C         -30.3089    4.2348   28.6656 C.3     1  UNL1        0.0233
     32 C         -28.9390    4.0505   29.0112 C.3     1  UNL1        0.0233
     33 C         -29.0318   -0.1375   27.6976 C.3     1  UNL1        0.1040
     34 C         -23.0453    1.7753   26.4695 C.2     1  UNL1        0.0597
     35 O         -30.7051    1.0175   26.4775 O.2     1  UNL1       -0.2748
     36 C         -29.9575    1.0193   27.4337 C.2     1  UNL1        0.2271
     37 O         -23.0333    0.6171   29.0574 O.2     1  UNL1       -0.4735
     38 C         -21.9140    1.6662   27.2599 C.2     1  UNL1        0.0321
     39 N         -29.8654    2.1206   28.3162 N.am    1  UNL1       -0.2795
     40 CL        -22.7526    2.4331   24.8643 Cl      1  UNL1       -0.0824
     41 N         -26.6629   -0.1918   28.5838 N.3     1  UNL1       -0.2110
     42 C         -24.3417    1.3224   27.0856 C.2     1  UNL1        0.0440
     43 C         -30.8738    3.0162   28.4115 C.3     1  UNL1        0.0935
     44 C         -24.2511    0.5708   28.3703 C.2     1  UNL1        0.1334
     45 C         -25.3371   -0.2112   28.9848 C.3     1  UNL1        0.1344
@<TRIPOS>BOND
     1     1    45    1
     2     2     7    1
     3     2     1    1
     4     3     2    2
     5     4     3    1
     6     4     5    2
     7     5     6    1
     8     6     7    2
     9     8     1    1
    10     8     9    1
    11     8    12    1
    12     9    10    1
    13    10    11    1
    14    12    11    1
    15    13    42    1
    16    14    13    1
    17    14    15    1
    18    15    18    2
    19    16    17    1
    20    16    15    1
    21    19    14    2
    22    20    21    2
    23    20    19    1
    24    21    26    1
    25    22    21    1
    26    23    22    1
    27    24    23    1
    28    24    25    1
    29    26    27    1
    30    26    13    2
    31    29    37    1
    32    31    32    1
    33    32    30    1
    34    33    28    1
    35    34    42    1
    36    34    38    2
    37    35    36    2
    38    36    33    1
    39    36    39   am
    40    38    29    1
    41    39    43    1
    42    39    30    1
    43    40    34    1
    44    41    28    1
    45    42    44    2
    46    43    31    1
    47    44    45    1
    48    44    37    1
    49    45    41    1
