@<TRIPOS>MOLECULE
outputs/IAG933/test6/raw/output_6870_IAG933_linker_design_.xyz
 39 42 0 0 0
SMALL
GASTEIGER

@<TRIPOS>ATOM
      1 C         -24.8550   -1.0120   30.1430 C.3     1  UNL1        0.0975
      2 C         -24.9730   -2.5050   29.7880 C.2     1  UNL1       -0.0064
      3 C         -23.9060   -3.1730   29.1460 C.2     1  UNL1       -0.0029
      4 C         -23.9890   -4.5490   28.8530 C.2     1  UNL1       -0.0003
      5 C         -25.1370   -5.2800   29.2050 C.2     1  UNL1       -0.0000
      6 C         -26.2320   -4.6110   29.7840 C.2     1  UNL1       -0.0003
      7 C         -26.1550   -3.2320   30.0650 C.2     1  UNL1       -0.0029
      8 C         -25.3870   -0.6790   31.5710 C.3     1  UNL1        0.0916
      9 C         -25.1890    0.7730   32.0280 C.3     1  UNL1        0.0206
     10 C         -25.3360    0.6840   33.5440 C.3     1  UNL1        0.0203
     11 C         -24.8290   -0.7150   33.9050 C.3     1  UNL1        0.0888
     12 N         -24.7580   -1.4810   32.6460 N.3     1  UNL1       -0.2178
     13 C         -25.6880    1.6140   26.4610 C.3     1  UNL1        0.1294
     14 C         -26.2500    2.9200   26.3950 C.2     1  UNL1        0.0696
     15 C         -25.6420    4.0930   27.1230 C.2     1  UNL1        0.2637
     16 N         -25.6140    5.2520   26.4490 N.am    1  UNL1       -0.2000
     17 C         -25.0260    6.4790   26.9630 C.3     1  UNL1        0.1388
     18 O         -25.1430    3.9660   28.2430 O.2     1  UNL1       -0.2686
     19 C         -27.4380    3.0910   25.6450 C.2     1  UNL1        0.1035
     20 N         -28.0750    2.0890   25.0030 N.2     1  UNL1       -0.2118
     21 C         -27.5430    0.8490   25.0790 C.2     1  UNL1        0.2355
     22 O         -28.1930   -0.2080   24.4770 O.2     1  UNL1       -0.4585
     23 C         -29.4600    0.0050   23.8660 C.3     1  UNL1        0.2423
     24 C         -30.0650   -1.3770   23.5730 C.3     1  UNL1        0.2292
     25 O         -30.7290   -1.8780   24.7210 O.3     1  UNL1       -0.2162
     26 C         -26.3540    0.5760   25.7770 C.3     1  UNL1        0.2546
     27 F         -25.8600   -0.6810   25.7950 F       1  UNL1       -0.2254
     28 O         -22.3196   -0.1334   29.3511 O.3     1  UNL1       -0.2189
     29 C         -22.1839    1.8132   27.0268 C.3     1  UNL1        0.0201
     30 C         -27.6584    1.7296   29.1375 C.2     1  UNL1        0.0367
     31 C         -22.9225   -0.2293   28.1822 C.3     1  UNL1        0.1979
     32 C         -23.3340    0.8816   27.4181 C.3     1  UNL1        0.0920
     33 O         -29.0255   -0.1989   28.6010 O.2     1  UNL1       -0.3000
     34 C         -26.3687    0.8565   29.0900 C.3     1  UNL1        0.1148
     35 C         -25.4800    0.6447   28.3603 C.3     1  UNL1        0.1387
     36 O         -28.2128   -0.9610   29.5035 O.3     1  UNL1        0.0285
     37 N         -24.7706    1.1208   27.3834 N.3     1  UNL1       -0.2533
     38 C         -28.9851    1.1834   28.8224 C.2     1  UNL1        0.2203
     39 N         -25.4164   -0.0462   29.1328 N.3     1  UNL1       -0.2512
@<TRIPOS>BOND
     1     1     2    1
     2     2     7    1
     3     3     2    2
     4     4     3    1
     5     4     5    2
     6     5     6    1
     7     6     7    2
     8     8     1    1
     9     8     9    1
    10     8    12    1
    11     9    10    1
    12    10    11    1
    13    12    11    1
    14    13    37    1
    15    14    13    1
    16    14    15    1
    17    15    18    2
    18    16    17    1
    19    16    15    1
    20    19    14    2
    21    20    21    2
    22    20    19    1
    23    21    26    1
    24    22    21    1
    25    23    22    1
    26    24    23    1
    27    24    25    1
    28    26    27    1
    29    26    13    1
    30    31    28    1
    31    32    29    1
    32    32    31    1
    33    33    38    1
    34    33    36    1
    35    34    39    1
    36    34    30    1
    37    35    37    1
    38    35    34    1
    39    35    39    1
    40    37    32    1
    41    38    30    2
    42    39     1    1
