@<TRIPOS>MOLECULE
outputs/IAG933/test6/raw/output_6871_IAG933_linker_design_.xyz
 43 46 0 0 0
SMALL
GASTEIGER

@<TRIPOS>ATOM
      1 C         -24.8550   -1.0120   30.1430 C.3     1  UNL1        0.0437
      2 C         -24.9730   -2.5050   29.7880 C.2     1  UNL1       -0.0208
      3 C         -23.9060   -3.1730   29.1460 C.2     1  UNL1       -0.0042
      4 C         -23.9890   -4.5490   28.8530 C.2     1  UNL1       -0.0003
      5 C         -25.1370   -5.2800   29.2050 C.2     1  UNL1       -0.0000
      6 C         -26.2320   -4.6110   29.7840 C.2     1  UNL1       -0.0003
      7 C         -26.1550   -3.2320   30.0650 C.2     1  UNL1       -0.0042
      8 C         -25.3870   -0.6790   31.5710 C.3     1  UNL1        0.0772
      9 C         -25.1890    0.7730   32.0280 C.3     1  UNL1        0.0191
     10 C         -25.3360    0.6840   33.5440 C.3     1  UNL1        0.0202
     11 C         -24.8290   -0.7150   33.9050 C.3     1  UNL1        0.0887
     12 N         -24.7580   -1.4810   32.6460 N.3     1  UNL1       -0.2191
     13 C         -25.6880    1.6140   26.4610 C.2     1  UNL1        0.0386
     14 C         -26.2500    2.9200   26.3950 C.2     1  UNL1        0.0766
     15 C         -25.6420    4.0930   27.1230 C.2     1  UNL1        0.2664
     16 N         -25.6140    5.2520   26.4490 N.am    1  UNL1       -0.1997
     17 C         -25.0260    6.4790   26.9630 C.3     1  UNL1        0.1388
     18 O         -25.1430    3.9660   28.2430 O.2     1  UNL1       -0.2683
     19 C         -27.4380    3.0910   25.6450 C.2     1  UNL1        0.1067
     20 N         -28.0750    2.0890   25.0030 N.2     1  UNL1       -0.2081
     21 C         -27.5430    0.8490   25.0790 C.2     1  UNL1        0.2533
     22 O         -28.1930   -0.2080   24.4770 O.2     1  UNL1       -0.4558
     23 C         -29.4600    0.0050   23.8660 C.3     1  UNL1        0.2426
     24 C         -30.0650   -1.3770   23.5730 C.3     1  UNL1        0.2292
     25 O         -30.7290   -1.8780   24.7210 O.3     1  UNL1       -0.2162
     26 C         -26.3540    0.5760   25.7770 C.2     1  UNL1        0.1931
     27 F         -25.8600   -0.6810   25.7950 F       1  UNL1       -0.1992
     28 O         -24.9958    4.7290   33.1583 O.2     1  UNL1       -0.2955
     29 C         -27.6536    3.6451   31.1175 C.2     1  UNL1        0.3713
     30 C         -24.4002    1.5562   27.1985 C.2     1  UNL1        0.0091
     31 C         -22.9754    0.9497   29.3064 C.2     1  UNL1       -0.0042
     32 C         -21.6957    0.9331   28.5229 C.2     1  UNL1        0.0005
     33 O         -27.6572    3.6443   29.8215 O.co2   1  UNL1       -0.2452
     34 C         -25.3267    5.6805   31.0805 C.3     1  UNL1        0.0728
     35 C         -24.3881    1.3864   28.7509 C.2     1  UNL1       -0.0213
     36 C         -23.0349    1.7558   26.4473 C.2     1  UNL1        0.0574
     37 C         -25.7483    1.7305   29.5529 C.3     1  UNL1        0.0274
     38 C         -21.7879    1.3768   27.1193 C.2     1  UNL1        0.0114
     39 C         -26.2973    3.3088   31.6781 C.3     1  UNL1        0.1609
     40 CL        -22.8079    2.3951   24.9045 Cl      1  UNL1       -0.0823
     41 C         -25.5662    2.0850   31.0813 C.3     1  UNL1        0.0235
     42 C         -25.5238    4.5902   32.0652 C.2     1  UNL1        0.1615
     43 O         -28.6752    3.8669   31.8423 O.co2   1  UNL1       -0.2452
@<TRIPOS>BOND
     1     2     7    1
     2     2     1    1
     3     3     2    2
     4     4     3    1
     5     4     5    2
     6     5     6    1
     7     6     7    2
     8     8     1    1
     9     8     9    1
    10     8    12    1
    11     9    41    1
    12     9    10    1
    13    10    11    1
    14    12    11    1
    15    13    30    1
    16    14    13    1
    17    14    15    1
    18    15    18    2
    19    16    17    1
    20    16    15    1
    21    19    14    2
    22    20    21    2
    23    20    19    1
    24    21    26    1
    25    22    21    1
    26    23    22    1
    27    24    23    1
    28    24    25    1
    29    26    27    1
    30    26    13    2
    31    29    43   ar
    32    30    35    1
    33    32    31    1
    34    33    29   ar
    35    34    42    1
    36    35    31    2
    37    35    37    1
    38    36    38    1
    39    36    30    2
    40    38    32    2
    41    39    29    1
    42    39    42    1
    43    40    36    1
    44    41    37    1
    45    41    39    1
    46    42    28    2
