@<TRIPOS>MOLECULE
outputs/IAG933/test6/raw/output_6875_IAG933_linker_design_.xyz
 41 45 0 0 0
SMALL
GASTEIGER

@<TRIPOS>ATOM
      1 C         -24.8550   -1.0120   30.1430 C.3     1  UNL1        0.1178
      2 C         -24.9730   -2.5050   29.7880 C.2     1  UNL1       -0.0028
      3 C         -23.9060   -3.1730   29.1460 C.2     1  UNL1       -0.0026
      4 C         -23.9890   -4.5490   28.8530 C.2     1  UNL1       -0.0003
      5 C         -25.1370   -5.2800   29.2050 C.2     1  UNL1       -0.0000
      6 C         -26.2320   -4.6110   29.7840 C.2     1  UNL1       -0.0003
      7 C         -26.1550   -3.2320   30.0650 C.2     1  UNL1       -0.0026
      8 C         -25.3870   -0.6790   31.5710 C.3     1  UNL1        0.0953
      9 C         -25.1890    0.7730   32.0280 C.3     1  UNL1        0.0209
     10 C         -25.3360    0.6840   33.5440 C.3     1  UNL1        0.0203
     11 C         -24.8290   -0.7150   33.9050 C.3     1  UNL1        0.0888
     12 N         -24.7580   -1.4810   32.6460 N.3     1  UNL1       -0.2174
     13 C         -25.6880    1.6140   26.4610 C.3     1  UNL1        0.1460
     14 C         -26.2500    2.9200   26.3950 C.2     1  UNL1        0.0731
     15 C         -25.6420    4.0930   27.1230 C.2     1  UNL1        0.2640
     16 N         -25.6140    5.2520   26.4490 N.am    1  UNL1       -0.1999
     17 C         -25.0260    6.4790   26.9630 C.3     1  UNL1        0.1388
     18 O         -25.1430    3.9660   28.2430 O.2     1  UNL1       -0.2686
     19 C         -27.4380    3.0910   25.6450 C.2     1  UNL1        0.1038
     20 N         -28.0750    2.0890   25.0030 N.2     1  UNL1       -0.2118
     21 C         -27.5430    0.8490   25.0790 C.2     1  UNL1        0.2358
     22 O         -28.1930   -0.2080   24.4770 O.2     1  UNL1       -0.4585
     23 C         -29.4600    0.0050   23.8660 C.3     1  UNL1        0.2423
     24 C         -30.0650   -1.3770   23.5730 C.3     1  UNL1        0.2292
     25 O         -30.7290   -1.8780   24.7210 O.3     1  UNL1       -0.2162
     26 C         -26.3540    0.5760   25.7770 C.3     1  UNL1        0.2581
     27 F         -25.8600   -0.6810   25.7950 F       1  UNL1       -0.2251
     28 O         -21.7221   -1.0434   29.4852 O.2     1  UNL1       -0.2906
     29 O         -26.8636   -0.0973   28.5661 O.co2   1  UNL1       -0.2223
     30 C         -23.4788    1.2459   27.6898 C.2     1  UNL1        0.0869
     31 N         -24.7318   -0.0310   29.2039 N.am    1  UNL1       -0.2293
     32 C         -23.2261    2.1308   25.6341 C.3     1  UNL1        0.3054
     33 C         -23.4714    0.3309   28.6938 C.3     1  UNL1        0.1780
     34 C         -22.0324   -0.0924   28.9680 C.2     1  UNL1        0.2139
     35 C         -21.0301    0.7732   28.0648 C.3     1  UNL1        0.2762
     36 N         -24.2179    1.6508   26.6261 N.pl3   1  UNL1       -0.2650
     37 C         -22.0577    1.4152   27.1921 C.2     1  UNL1        0.1691
     38 O         -21.9521    1.9712   25.9769 O.2     1  UNL1       -0.4553
     39 O         -25.9085    1.7703   29.2611 O.co2   1  UNL1       -0.2223
     40 C         -25.9194    0.5581   29.0021 C.2     1  UNL1        0.4480
     41 F         -19.9518    1.6045   28.2257 F       1  UNL1       -0.2209
@<TRIPOS>BOND
     1     1    31    1
     2     2     7    1
     3     2     1    1
     4     3     2    2
     5     4     3    1
     6     4     5    2
     7     5     6    1
     8     6     7    2
     9     8     1    1
    10     8     9    1
    11     8    12    1
    12     9    10    1
    13    10    11    1
    14    12    11    1
    15    13    36    1
    16    14    13    1
    17    14    15    1
    18    15    18    2
    19    16    17    1
    20    16    15    1
    21    19    14    2
    22    20    21    2
    23    20    19    1
    24    21    26    1
    25    22    21    1
    26    23    22    1
    27    24    23    1
    28    24    25    1
    29    26    27    1
    30    26    13    1
    31    29    40   ar
    32    30    33    1
    33    32    38    1
    34    32    36    1
    35    33    34    1
    36    33    31    1
    37    34    28    2
    38    35    41    1
    39    35    34    1
    40    36    30    1
    41    37    30    2
    42    37    35    1
    43    38    37    1
    44    40    31   am
    45    40    39   ar
