@<TRIPOS>MOLECULE
outputs/IAG933/test6/raw/output_6876_IAG933_linker_design_.xyz
 44 48 0 0 0
SMALL
GASTEIGER

@<TRIPOS>ATOM
      1 C         -24.8550   -1.0120   30.1430 C.3     1  UNL1        0.0445
      2 C         -24.9730   -2.5050   29.7880 C.2     1  UNL1       -0.0208
      3 C         -23.9060   -3.1730   29.1460 C.2     1  UNL1       -0.0042
      4 C         -23.9890   -4.5490   28.8530 C.2     1  UNL1       -0.0003
      5 C         -25.1370   -5.2800   29.2050 C.2     1  UNL1       -0.0000
      6 C         -26.2320   -4.6110   29.7840 C.2     1  UNL1       -0.0003
      7 C         -26.1550   -3.2320   30.0650 C.2     1  UNL1       -0.0042
      8 C         -25.3870   -0.6790   31.5710 C.3     1  UNL1        0.0772
      9 C         -25.1890    0.7730   32.0280 C.3     1  UNL1        0.0192
     10 C         -25.3360    0.6840   33.5440 C.3     1  UNL1        0.0202
     11 C         -24.8290   -0.7150   33.9050 C.3     1  UNL1        0.0887
     12 N         -24.7580   -1.4810   32.6460 N.3     1  UNL1       -0.2191
     13 C         -25.6880    1.6140   26.4610 C.2     1  UNL1        0.0398
     14 C         -26.2500    2.9200   26.3950 C.2     1  UNL1        0.0766
     15 C         -25.6420    4.0930   27.1230 C.2     1  UNL1        0.2664
     16 N         -25.6140    5.2520   26.4490 N.am    1  UNL1       -0.1997
     17 C         -25.0260    6.4790   26.9630 C.3     1  UNL1        0.1388
     18 O         -25.1430    3.9660   28.2430 O.2     1  UNL1       -0.2683
     19 C         -27.4380    3.0910   25.6450 C.2     1  UNL1        0.1067
     20 N         -28.0750    2.0890   25.0030 N.2     1  UNL1       -0.2081
     21 C         -27.5430    0.8490   25.0790 C.2     1  UNL1        0.2533
     22 O         -28.1930   -0.2080   24.4770 O.2     1  UNL1       -0.4558
     23 C         -29.4600    0.0050   23.8660 C.3     1  UNL1        0.2426
     24 C         -30.0650   -1.3770   23.5730 C.3     1  UNL1        0.2292
     25 O         -30.7290   -1.8780   24.7210 O.3     1  UNL1       -0.2162
     26 C         -26.3540    0.5760   25.7770 C.2     1  UNL1        0.1931
     27 F         -25.8600   -0.6810   25.7950 F       1  UNL1       -0.1992
     28 C         -30.0217   -0.7095   28.9396 C.3     1  UNL1        0.1304
     29 O         -27.5518   -0.5186   29.2241 O.3     1  UNL1       -0.3578
     30 C         -27.0865    1.8971   29.1862 C.3     1  UNL1        0.0324
     31 C         -29.8366   -1.5868   30.2543 C.2     1  UNL1        0.3667
     32 C         -29.9238   -0.5603   27.4492 C.3     1  UNL1        0.0144
     33 C         -28.6621    1.6857   29.1214 C.3     1  UNL1        0.0326
     34 C         -24.1118    0.4395   28.2478 C.2     1  UNL1       -0.0153
     35 O         -29.3689   -2.7211   30.2321 O.co2   1  UNL1       -0.2456
     36 C         -28.8498    0.2784   29.2134 C.3     1  UNL1        0.1258
     37 C         -23.0987    1.9651   26.8360 C.2     1  UNL1        0.1329
     38 O         -30.0615   -1.0648   31.3572 O.co2   1  UNL1       -0.2456
     39 CL        -22.6646    2.7739   25.4541 Cl      1  UNL1       -0.0618
     40 C         -26.5329    0.4700   28.9678 C.3     1  UNL1        0.1193
     41 N         -22.1076    1.4850   27.7104 N.2     1  UNL1       -0.2546
     42 C         -22.6804    0.4635   28.5565 C.3     1  UNL1        0.1488
     43 C         -24.4265    1.4906   27.2130 C.2     1  UNL1        0.0246
     44 C         -25.2407   -0.3283   28.8403 C.3     1  UNL1        0.0528
@<TRIPOS>BOND
     1     1    44    1
     2     2     7    1
     3     2     1    1
     4     3     2    2
     5     4     3    1
     6     4     5    2
     7     5     6    1
     8     6     7    2
     9     8     1    1
    10     8     9    1
    11     8    12    1
    12     9    10    1
    13    10    11    1
    14    12    11    1
    15    13    43    1
    16    14    13    1
    17    14    15    1
    18    15    18    2
    19    16    17    1
    20    16    15    1
    21    19    14    2
    22    20    21    2
    23    20    19    1
    24    21    26    1
    25    22    21    1
    26    23    22    1
    27    24    23    1
    28    24    25    1
    29    26    27    1
    30    26    13    2
    31    28    32    1
    32    28    31    1
    33    31    38   ar
    34    33    30    1
    35    33    36    1
    36    34    42    1
    37    35    31   ar
    38    36    28    1
    39    36    29    1
    40    37    43    1
    41    37    41    2
    42    39    37    1
    43    40    44    1
    44    40    30    1
    45    40    29    1
    46    41    42    1
    47    43    34    2
    48    44    34    1
