@<TRIPOS>MOLECULE
outputs/IAG933/test6/raw/output_6877_IAG933_linker_design_.xyz
 42 46 0 0 0
SMALL
GASTEIGER

@<TRIPOS>ATOM
      1 C         -24.8550   -1.0120   30.1430 C.3     1  UNL1        0.0966
      2 C         -24.9730   -2.5050   29.7880 C.2     1  UNL1       -0.0064
      3 C         -23.9060   -3.1730   29.1460 C.2     1  UNL1       -0.0029
      4 C         -23.9890   -4.5490   28.8530 C.2     1  UNL1       -0.0003
      5 C         -25.1370   -5.2800   29.2050 C.2     1  UNL1       -0.0000
      6 C         -26.2320   -4.6110   29.7840 C.2     1  UNL1       -0.0003
      7 C         -26.1550   -3.2320   30.0650 C.2     1  UNL1       -0.0029
      8 C         -25.3870   -0.6790   31.5710 C.3     1  UNL1        0.0916
      9 C         -25.1890    0.7730   32.0280 C.3     1  UNL1        0.0206
     10 C         -25.3360    0.6840   33.5440 C.3     1  UNL1        0.0203
     11 C         -24.8290   -0.7150   33.9050 C.3     1  UNL1        0.0888
     12 N         -24.7580   -1.4810   32.6460 N.3     1  UNL1       -0.2178
     13 C         -25.6880    1.6140   26.4610 C.2     1  UNL1        0.0417
     14 C         -26.2500    2.9200   26.3950 C.2     1  UNL1        0.0767
     15 C         -25.6420    4.0930   27.1230 C.2     1  UNL1        0.2664
     16 N         -25.6140    5.2520   26.4490 N.am    1  UNL1       -0.1997
     17 C         -25.0260    6.4790   26.9630 C.3     1  UNL1        0.1388
     18 O         -25.1430    3.9660   28.2430 O.2     1  UNL1       -0.2683
     19 C         -27.4380    3.0910   25.6450 C.2     1  UNL1        0.1067
     20 N         -28.0750    2.0890   25.0030 N.2     1  UNL1       -0.2081
     21 C         -27.5430    0.8490   25.0790 C.2     1  UNL1        0.2533
     22 O         -28.1930   -0.2080   24.4770 O.2     1  UNL1       -0.4558
     23 C         -29.4600    0.0050   23.8660 C.3     1  UNL1        0.2426
     24 C         -30.0650   -1.3770   23.5730 C.3     1  UNL1        0.2292
     25 O         -30.7290   -1.8780   24.7210 O.3     1  UNL1       -0.2162
     26 C         -26.3540    0.5760   25.7770 C.2     1  UNL1        0.1932
     27 F         -25.8600   -0.6810   25.7950 F       1  UNL1       -0.1992
     28 C         -29.2556    0.8358   29.7769 C.3     1  UNL1        0.1835
     29 C         -29.1527    0.0899   28.4168 C.3     1  UNL1        0.1835
     30 C         -24.0583    0.9435   28.1498 C.2     1  UNL1        0.1400
     31 C         -27.6907    1.1765   29.7967 C.3     1  UNL1        0.0516
     32 C         -21.7537    1.3753   27.5532 C.2     1  UNL1        0.1904
     33 C         -24.2842    1.4954   26.9729 C.2     1  UNL1        0.0479
     34 N         -25.6912   -0.2583   29.2041 N.3     1  UNL1       -0.2640
     35 CL        -22.5179    2.4153   24.9458 Cl      1  UNL1       -0.0789
     36 C         -22.7024    1.8148   26.4740 C.2     1  UNL1        0.0979
     37 C         -25.0589    0.8780   28.8064 C.3     1  UNL1        0.1379
     38 C         -27.0649   -0.1957   29.4141 C.3     1  UNL1        0.0634
     39 C         -28.1900   -1.0194   28.8467 C.3     1  UNL1        0.0516
     40 O         -30.2649   -0.2947   27.6267 O.3     1  UNL1       -0.2204
     41 O         -30.1659    1.8742   29.6525 O.3     1  UNL1       -0.2204
     42 O         -22.6874    0.7201   28.5097 O.2     1  UNL1       -0.4524
@<TRIPOS>BOND
     1     1    34    1
     2     2     7    1
     3     2     1    1
     4     3     2    2
     5     4     3    1
     6     4     5    2
     7     5     6    1
     8     6     7    2
     9     8     1    1
    10     8     9    1
    11     8    12    1
    12     9    10    1
    13    10    11    1
    14    12    11    1
    15    13    33    1
    16    14    13    1
    17    14    15    1
    18    15    18    2
    19    16    17    1
    20    16    15    1
    21    19    14    2
    22    20    21    2
    23    20    19    1
    24    21    26    1
    25    22    21    1
    26    23    22    1
    27    24    23    1
    28    24    25    1
    29    26    27    1
    30    26    13    2
    31    28    41    1
    32    28    31    1
    33    29    40    1
    34    29    39    1
    35    29    28    1
    36    30    42    1
    37    30    37    1
    38    32    42    1
    39    33    30    2
    40    35    36    1
    41    36    33    1
    42    36    32    2
    43    37    34    1
    44    38    34    1
    45    38    31    1
    46    39    38    1
