@<TRIPOS>MOLECULE
outputs/IAG933/test6/raw/output_688_IAG933_linker_design_.xyz
 40 43 0 0 0
SMALL
GASTEIGER

@<TRIPOS>ATOM
      1 C         -24.8550   -1.0120   30.1430 C.3     1  UNL1        0.1336
      2 C         -24.9730   -2.5050   29.7880 C.2     1  UNL1       -0.0032
      3 C         -23.9060   -3.1730   29.1460 C.2     1  UNL1       -0.0028
      4 C         -23.9890   -4.5490   28.8530 C.2     1  UNL1       -0.0003
      5 C         -25.1370   -5.2800   29.2050 C.2     1  UNL1       -0.0000
      6 C         -26.2320   -4.6110   29.7840 C.2     1  UNL1       -0.0003
      7 C         -26.1550   -3.2320   30.0650 C.2     1  UNL1       -0.0028
      8 C         -25.3870   -0.6790   31.5710 C.3     1  UNL1        0.0948
      9 C         -25.1890    0.7730   32.0280 C.3     1  UNL1        0.0207
     10 C         -25.3360    0.6840   33.5440 C.3     1  UNL1        0.0203
     11 C         -24.8290   -0.7150   33.9050 C.3     1  UNL1        0.0888
     12 N         -24.7580   -1.4810   32.6460 N.3     1  UNL1       -0.2176
     13 C         -25.6880    1.6140   26.4610 C.3     1  UNL1        0.1367
     14 C         -26.2500    2.9200   26.3950 C.2     1  UNL1        0.0627
     15 C         -25.6420    4.0930   27.1230 C.2     1  UNL1        0.2629
     16 N         -25.6140    5.2520   26.4490 N.am    1  UNL1       -0.2000
     17 C         -25.0260    6.4790   26.9630 C.3     1  UNL1        0.1388
     18 O         -25.1430    3.9660   28.2430 O.2     1  UNL1       -0.2686
     19 C         -27.4380    3.0910   25.6450 C.2     1  UNL1        0.1026
     20 N         -28.0750    2.0890   25.0030 N.2     1  UNL1       -0.2118
     21 C         -27.5430    0.8490   25.0790 C.2     1  UNL1        0.2346
     22 O         -28.1930   -0.2080   24.4770 O.2     1  UNL1       -0.4585
     23 C         -29.4600    0.0050   23.8660 C.3     1  UNL1        0.2423
     24 C         -30.0650   -1.3770   23.5730 C.3     1  UNL1        0.2292
     25 O         -30.7290   -1.8780   24.7210 O.3     1  UNL1       -0.2162
     26 C         -26.3540    0.5760   25.7770 C.3     1  UNL1        0.2478
     27 F         -25.8600   -0.6810   25.7950 F       1  UNL1       -0.2264
     28 C         -24.8906    0.9794   27.5366 C.2     1  UNL1        0.1839
     29 C         -22.6185    1.8173   25.3275 C.2     1  UNL1        0.3935
     30 C         -22.5952    1.5205   26.7717 C.2     1  UNL1        0.1292
     31 C         -23.7446    1.1403   27.3727 C.1     1  UNL1       -0.0621
     32 O         -25.3604    0.0075   28.3528 O.2     1  UNL1       -0.3973
     33 C         -22.9953    0.0520   28.9491 C.3     1  UNL1        0.1497
     34 F         -20.4593    2.2478   27.6344 F       1  UNL1       -0.2287
     35 C         -21.5850    1.4928   27.6136 C.3     1  UNL1        0.2283
     36 N         -24.1432   -0.3457   29.4372 N.3     1  UNL1       -0.1138
     37 C         -21.7414    0.4879   28.6561 C.3     1  UNL1        0.2086
     38 O         -23.6287    1.5759   24.6136 O.co2   1  UNL1       -0.2401
     39 O         -20.6283   -0.1350   29.0227 O.3     1  UNL1       -0.2182
     40 O         -21.6003    2.2687   24.9038 O.co2   1  UNL1       -0.2401
@<TRIPOS>BOND
     1     1     2    1
     2     2     7    1
     3     3     2    2
     4     4     3    1
     5     4     5    2
     6     5     6    1
     7     6     7    2
     8     8     1    1
     9     8     9    1
    10     8    12    1
    11     9    10    1
    12    10    11    1
    13    12    11    1
    14    13    28    1
    15    14    13    1
    16    14    15    1
    17    15    18    2
    18    16    17    1
    19    16    15    1
    20    19    14    2
    21    20    21    2
    22    20    19    1
    23    21    26    1
    24    22    21    1
    25    23    22    1
    26    24    23    1
    27    24    25    1
    28    26    27    1
    29    26    13    1
    30    28    32    1
    31    29    30    1
    32    30    31    2
    33    30    35    1
    34    31    28    2
    35    32    36    1
    36    33    36    1
    37    35    34    1
    38    35    37    1
    39    36     1    1
    40    37    33    1
    41    37    39    1
    42    38    29   ar
    43    40    29   ar
