@<TRIPOS>MOLECULE
outputs/IAG933/test6/raw/output_6881_IAG933_linker_design_.xyz
 46 50 0 0 0
SMALL
GASTEIGER

@<TRIPOS>ATOM
      1 C         -24.8550   -1.0120   30.1430 C.3     1  UNL1        0.1113
      2 C         -24.9730   -2.5050   29.7880 C.2     1  UNL1       -0.0030
      3 C         -23.9060   -3.1730   29.1460 C.2     1  UNL1       -0.0026
      4 C         -23.9890   -4.5490   28.8530 C.2     1  UNL1       -0.0003
      5 C         -25.1370   -5.2800   29.2050 C.2     1  UNL1       -0.0000
      6 C         -26.2320   -4.6110   29.7840 C.2     1  UNL1       -0.0003
      7 C         -26.1550   -3.2320   30.0650 C.2     1  UNL1       -0.0026
      8 C         -25.3870   -0.6790   31.5710 C.3     1  UNL1        0.0950
      9 C         -25.1890    0.7730   32.0280 C.3     1  UNL1        0.0209
     10 C         -25.3360    0.6840   33.5440 C.3     1  UNL1        0.0203
     11 C         -24.8290   -0.7150   33.9050 C.3     1  UNL1        0.0888
     12 N         -24.7580   -1.4810   32.6460 N.3     1  UNL1       -0.2174
     13 C         -25.6880    1.6140   26.4610 C.2     1  UNL1        0.0393
     14 C         -26.2500    2.9200   26.3950 C.2     1  UNL1        0.0766
     15 C         -25.6420    4.0930   27.1230 C.2     1  UNL1        0.2664
     16 N         -25.6140    5.2520   26.4490 N.am    1  UNL1       -0.1997
     17 C         -25.0260    6.4790   26.9630 C.3     1  UNL1        0.1388
     18 O         -25.1430    3.9660   28.2430 O.2     1  UNL1       -0.2683
     19 C         -27.4380    3.0910   25.6450 C.2     1  UNL1        0.1067
     20 N         -28.0750    2.0890   25.0030 N.2     1  UNL1       -0.2081
     21 C         -27.5430    0.8490   25.0790 C.2     1  UNL1        0.2533
     22 O         -28.1930   -0.2080   24.4770 O.2     1  UNL1       -0.4558
     23 C         -29.4600    0.0050   23.8660 C.3     1  UNL1        0.2426
     24 C         -30.0650   -1.3770   23.5730 C.3     1  UNL1        0.2292
     25 O         -30.7290   -1.8780   24.7210 O.3     1  UNL1       -0.2162
     26 C         -26.3540    0.5760   25.7770 C.2     1  UNL1        0.1931
     27 F         -25.8600   -0.6810   25.7950 F       1  UNL1       -0.1992
     28 F         -20.4295    1.0345   28.0716 F       1  UNL1       -0.2027
     29 C         -24.1124    0.5803   28.1675 C.2     1  UNL1        0.0673
     30 C         -24.3357    1.3425   26.9831 C.2     1  UNL1        0.0173
     31 C         -27.8021    2.2118   30.1353 C.2     1  UNL1        0.0609
     32 C         -21.7096    1.1069   27.7406 C.2     1  UNL1        0.1580
     33 O         -27.5783    5.7433   32.3262 O.2     1  UNL1       -0.4699
     34 C         -26.6722    0.1631   28.6711 C.3     1  UNL1        0.0974
     35 N         -22.3554   -0.0021   29.7796 N.pl3   1  UNL1       -0.1244
     36 C         -27.7400    0.9155   29.3998 C.3     1  UNL1        0.0672
     37 N         -25.2639   -0.1159   28.9772 N.pl3   1  UNL1       -0.3026
     38 C         -21.9972    1.8331   26.5825 C.2     1  UNL1        0.0311
     39 C         -28.9553    3.8606   31.4971 C.2     1  UNL1        0.0397
     40 C         -22.7146    0.5424   28.5373 C.2     1  UNL1        0.1296
     41 N         -26.7165    2.9694   30.1635 N.2     1  UNL1       -0.2449
     42 C         -26.6573    4.0790   30.9110 C.2     1  UNL1        0.1352
     43 C         -23.3377    1.9259   26.2048 C.2     1  UNL1        0.0037
     44 C         -28.6716    6.4885   32.8872 C.3     1  UNL1        0.2525
     45 C         -27.7714    4.5671   31.5613 C.2     1  UNL1        0.1578
     46 C         -28.9620    2.6922   30.7664 C.2     1  UNL1        0.0179
@<TRIPOS>BOND
     1     1    37    1
     2     2     7    1
     3     2     1    1
     4     3     2    2
     5     4     3    1
     6     4     5    2
     7     5     6    1
     8     6     7    2
     9     8     1    1
    10     8     9    1
    11     8    12    1
    12     9    10    1
    13    10    11    1
    14    12    11    1
    15    13    30    1
    16    14    13    1
    17    14    15    1
    18    15    18    2
    19    16    17    1
    20    16    15    1
    21    19    14    2
    22    20    21    2
    23    20    19    1
    24    21    26    1
    25    22    21    1
    26    23    22    1
    27    24    23    1
    28    24    25    1
    29    26    27    1
    30    26    13    2
    31    29    40    1
    32    29    37    1
    33    30    29    2
    34    31    41    2
    35    31    46    1
    36    32    28    1
    37    32    40    2
    38    33    44    1
    39    34    37    1
    40    34    36    1
    41    36    31    1
    42    38    32    1
    43    39    45    1
    44    40    35    1
    45    41    42    1
    46    42    45    2
    47    43    38    2
    48    43    30    1
    49    45    33    1
    50    46    39    2
