@<TRIPOS>MOLECULE
outputs/IAG933/test6/raw/output_6882_IAG933_linker_design_.xyz
 46 51 0 0 0
SMALL
GASTEIGER

@<TRIPOS>ATOM
      1 C         -24.8550   -1.0120   30.1430 C.3     1  UNL1        0.0616
      2 C         -24.9730   -2.5050   29.7880 C.2     1  UNL1       -0.0194
      3 C         -23.9060   -3.1730   29.1460 C.2     1  UNL1       -0.0042
      4 C         -23.9890   -4.5490   28.8530 C.2     1  UNL1       -0.0003
      5 C         -25.1370   -5.2800   29.2050 C.2     1  UNL1       -0.0000
      6 C         -26.2320   -4.6110   29.7840 C.2     1  UNL1       -0.0003
      7 C         -26.1550   -3.2320   30.0650 C.2     1  UNL1       -0.0042
      8 C         -25.3870   -0.6790   31.5710 C.3     1  UNL1        0.0786
      9 C         -25.1890    0.7730   32.0280 C.3     1  UNL1        0.0193
     10 C         -25.3360    0.6840   33.5440 C.3     1  UNL1        0.0202
     11 C         -24.8290   -0.7150   33.9050 C.3     1  UNL1        0.0887
     12 N         -24.7580   -1.4810   32.6460 N.3     1  UNL1       -0.2191
     13 C         -25.6880    1.6140   26.4610 C.2     1  UNL1        0.0405
     14 C         -26.2500    2.9200   26.3950 C.2     1  UNL1        0.0766
     15 C         -25.6420    4.0930   27.1230 C.2     1  UNL1        0.2664
     16 N         -25.6140    5.2520   26.4490 N.am    1  UNL1       -0.1997
     17 C         -25.0260    6.4790   26.9630 C.3     1  UNL1        0.1388
     18 O         -25.1430    3.9660   28.2430 O.2     1  UNL1       -0.2683
     19 C         -27.4380    3.0910   25.6450 C.2     1  UNL1        0.1067
     20 N         -28.0750    2.0890   25.0030 N.2     1  UNL1       -0.2081
     21 C         -27.5430    0.8490   25.0790 C.2     1  UNL1        0.2533
     22 O         -28.1930   -0.2080   24.4770 O.2     1  UNL1       -0.4558
     23 C         -29.4600    0.0050   23.8660 C.3     1  UNL1        0.2426
     24 C         -30.0650   -1.3770   23.5730 C.3     1  UNL1        0.2292
     25 O         -30.7290   -1.8780   24.7210 O.3     1  UNL1       -0.2162
     26 C         -26.3540    0.5760   25.7770 C.2     1  UNL1        0.1931
     27 F         -25.8600   -0.6810   25.7950 F       1  UNL1       -0.1992
     28 C         -31.2872   -0.5873   29.6188 C.2     1  UNL1        0.0569
     29 C         -30.1048   -0.9128   28.9776 C.2     1  UNL1       -0.0054
     30 O         -27.8270    2.1947   31.2866 O.3     1  UNL1       -0.2209
     31 N         -31.0536    0.3380   30.6041 N.pl3   1  UNL1       -0.3055
     32 C         -25.4339   -0.3187   29.0764 C.3     1  UNL1        0.1349
     33 C         -31.6099    0.3106   32.9475 C.3     1  UNL1        0.0232
     34 C         -24.4876    0.4352   28.2671 C.ar    1  UNL1        0.1381
     35 C         -27.8317   -0.4268   29.3721 C.3     1  UNL1        0.0974
     36 N         -26.7082   -0.5755   28.8000 N.3     1  UNL1       -0.2110
     37 C         -22.8910    2.3813   25.4415 C.3     1  UNL1        0.0340
     38 C         -21.2277    1.5869   27.8854 C.3     1  UNL1        0.0721
     39 C         -29.6414    0.6777   30.6749 C.3     1  UNL1        0.1109
     40 C         -32.0465    0.7575   31.5037 C.3     1  UNL1        0.0909
     41 C         -28.5081    1.4574   30.5218 C.3     1  UNL1        0.1769
     42 O         -23.1950    0.3464   28.5690 O.2     1  UNL1       -0.4610
     43 C         -22.4337    1.0652   27.6671 C.ar    1  UNL1        0.1189
     44 C         -24.5908    1.2249   27.1072 C.ar    1  UNL1        0.0329
     45 C         -28.9744    0.0747   29.9223 C.3     1  UNL1        0.0846
     46 C         -23.3127    1.5426   26.6659 C.ar    1  UNL1        0.0112
@<TRIPOS>BOND
     1     1    32    1
     2     2     7    1
     3     2     1    1
     4     3     2    2
     5     4     3    1
     6     4     5    2
     7     5     6    1
     8     6     7    2
     9     8     1    1
    10     8     9    1
    11     8    12    1
    12     9    10    1
    13    10    11    1
    14    12    11    1
    15    13    44    1
    16    14    13    1
    17    14    15    1
    18    15    18    2
    19    16    17    1
    20    16    15    1
    21    19    14    2
    22    20    21    2
    23    20    19    1
    24    21    26    1
    25    22    21    1
    26    23    22    1
    27    24    23    1
    28    24    25    1
    29    26    27    1
    30    26    13    2
    31    28    31    1
    32    29    28    2
    33    29    45    1
    34    31    40    1
    35    32    36    1
    36    34    42   ar
    37    34    32    1
    38    36    35    1
    39    37    46    1
    40    39    31    1
    41    40    33    1
    42    41    39    1
    43    41    30    1
    44    43    38    1
    45    43    42   ar
    46    44    34   ar
    47    45    35    1
    48    45    41    1
    49    45    39    1
    50    46    44   ar
    51    46    43   ar
