@<TRIPOS>MOLECULE
outputs/IAG933/test6/raw/output_6883_IAG933_linker_design_.xyz
 42 47 0 0 0
SMALL
GASTEIGER

@<TRIPOS>ATOM
      1 C         -24.8550   -1.0120   30.1430 C.3     1  UNL1        0.0582
      2 C         -24.9730   -2.5050   29.7880 C.2     1  UNL1       -0.0173
      3 C         -23.9060   -3.1730   29.1460 C.2     1  UNL1       -0.0039
      4 C         -23.9890   -4.5490   28.8530 C.2     1  UNL1       -0.0003
      5 C         -25.1370   -5.2800   29.2050 C.2     1  UNL1       -0.0000
      6 C         -26.2320   -4.6110   29.7840 C.2     1  UNL1       -0.0003
      7 C         -26.1550   -3.2320   30.0650 C.2     1  UNL1       -0.0039
      8 C         -25.3870   -0.6790   31.5710 C.3     1  UNL1        0.0807
      9 C         -25.1890    0.7730   32.0280 C.3     1  UNL1        0.0230
     10 C         -25.3360    0.6840   33.5440 C.3     1  UNL1        0.0204
     11 C         -24.8290   -0.7150   33.9050 C.3     1  UNL1        0.0887
     12 N         -24.7580   -1.4810   32.6460 N.3     1  UNL1       -0.2188
     13 C         -25.6880    1.6140   26.4610 C.2     1  UNL1        0.0869
     14 C         -26.2500    2.9200   26.3950 C.2     1  UNL1        0.0899
     15 C         -25.6420    4.0930   27.1230 C.2     1  UNL1        0.2676
     16 N         -25.6140    5.2520   26.4490 N.am    1  UNL1       -0.1997
     17 C         -25.0260    6.4790   26.9630 C.3     1  UNL1        0.1388
     18 O         -25.1430    3.9660   28.2430 O.2     1  UNL1       -0.2683
     19 C         -27.4380    3.0910   25.6450 C.2     1  UNL1        0.1080
     20 N         -28.0750    2.0890   25.0030 N.2     1  UNL1       -0.2080
     21 C         -27.5430    0.8490   25.0790 C.2     1  UNL1        0.2546
     22 O         -28.1930   -0.2080   24.4770 O.2     1  UNL1       -0.4558
     23 C         -29.4600    0.0050   23.8660 C.3     1  UNL1        0.2426
     24 C         -30.0650   -1.3770   23.5730 C.3     1  UNL1        0.2292
     25 O         -30.7290   -1.8780   24.7210 O.3     1  UNL1       -0.2162
     26 C         -26.3540    0.5760   25.7770 C.2     1  UNL1        0.2063
     27 F         -25.8600   -0.6810   25.7950 F       1  UNL1       -0.1979
     28 C         -25.6522    4.4608   31.0512 C.3     1  UNL1        0.1739
     29 O         -26.8279    5.2950   33.8280 O.3     1  UNL1       -0.1898
     30 O         -21.1618    1.8157   27.5507 O.2     1  UNL1       -0.2895
     31 C         -22.2593    1.2604   27.6847 C.2     1  UNL1        0.1925
     32 C         -22.6463    0.5731   28.7909 C.2     1  UNL1        0.0327
     33 O         -26.2006    3.4967   30.2647 O.3     1  UNL1       -0.3295
     34 C         -27.2259    4.6337   32.6629 C.3     1  UNL1        0.2733
     35 C         -24.6866    2.0914   31.4532 C.3     1  UNL1        0.0603
     36 N         -24.5319    1.2594   27.1445 N.pl3   1  UNL1       -0.2951
     37 C         -24.9385    0.0123   27.8811 C.3     1  UNL1        0.1143
     38 C         -24.0870   -0.0115   29.1742 C.2     1  UNL1       -0.0166
     39 C         -25.7885    3.1999   31.6158 C.3     1  UNL1        0.2147
     40 O         -26.6913    3.2623   32.7889 O.3     1  UNL1       -0.3057
     41 C         -26.7169    5.4465   31.4400 C.3     1  UNL1        0.0990
     42 C         -23.2317    1.3428   26.4799 C.3     1  UNL1        0.1611
@<TRIPOS>BOND
     1     1    38    1
     2     2     7    1
     3     2     1    1
     4     3     2    2
     5     4     3    1
     6     4     5    2
     7     5     6    1
     8     6     7    2
     9     8     1    1
    10     8     9    1
    11     8    12    1
    12     9    35    1
    13     9    10    1
    14    10    11    1
    15    12    11    1
    16    13    36    1
    17    14    13    1
    18    14    15    1
    19    15    18    2
    20    16    17    1
    21    16    15    1
    22    19    14    2
    23    20    21    2
    24    20    19    1
    25    21    26    1
    26    22    21    1
    27    23    22    1
    28    24    23    1
    29    24    25    1
    30    26    27    1
    31    26    13    2
    32    28    41    1
    33    28    39    1
    34    30    31    2
    35    31    32    1
    36    32    38    2
    37    33    28    1
    38    33    39    1
    39    34    40    1
    40    34    29    1
    41    36    37    1
    42    37    38    1
    43    39    35    1
    44    39    40    1
    45    41    34    1
    46    42    36    1
    47    42    31    1
