@<TRIPOS>MOLECULE
outputs/IAG933/test6/raw/output_6884_IAG933_linker_design_.xyz
 43 45 0 0 0
SMALL
GASTEIGER

@<TRIPOS>ATOM
      1 C         -24.8550   -1.0120   30.1430 C.3     1  UNL1        0.0632
      2 C         -24.9730   -2.5050   29.7880 C.2     1  UNL1       -0.0193
      3 C         -23.9060   -3.1730   29.1460 C.2     1  UNL1       -0.0042
      4 C         -23.9890   -4.5490   28.8530 C.2     1  UNL1       -0.0003
      5 C         -25.1370   -5.2800   29.2050 C.2     1  UNL1       -0.0000
      6 C         -26.2320   -4.6110   29.7840 C.2     1  UNL1       -0.0003
      7 C         -26.1550   -3.2320   30.0650 C.2     1  UNL1       -0.0042
      8 C         -25.3870   -0.6790   31.5710 C.3     1  UNL1        0.0786
      9 C         -25.1890    0.7730   32.0280 C.3     1  UNL1        0.0193
     10 C         -25.3360    0.6840   33.5440 C.3     1  UNL1        0.0202
     11 C         -24.8290   -0.7150   33.9050 C.3     1  UNL1        0.0887
     12 N         -24.7580   -1.4810   32.6460 N.3     1  UNL1       -0.2191
     13 C         -25.6880    1.6140   26.4610 C.3     1  UNL1        0.0887
     14 C         -26.2500    2.9200   26.3950 C.2     1  UNL1        0.0563
     15 C         -25.6420    4.0930   27.1230 C.2     1  UNL1        0.2625
     16 N         -25.6140    5.2520   26.4490 N.am    1  UNL1       -0.2000
     17 C         -25.0260    6.4790   26.9630 C.3     1  UNL1        0.1388
     18 O         -25.1430    3.9660   28.2430 O.2     1  UNL1       -0.2687
     19 C         -27.4380    3.0910   25.6450 C.2     1  UNL1        0.1022
     20 N         -28.0750    2.0890   25.0030 N.2     1  UNL1       -0.2119
     21 C         -27.5430    0.8490   25.0790 C.2     1  UNL1        0.2341
     22 O         -28.1930   -0.2080   24.4770 O.2     1  UNL1       -0.4585
     23 C         -29.4600    0.0050   23.8660 C.3     1  UNL1        0.2423
     24 C         -30.0650   -1.3770   23.5730 C.3     1  UNL1        0.2292
     25 O         -30.7290   -1.8780   24.7210 O.3     1  UNL1       -0.2162
     26 C         -26.3540    0.5760   25.7770 C.3     1  UNL1        0.2414
     27 F         -25.8600   -0.6810   25.7950 F       1  UNL1       -0.2268
     28 C         -22.4201    1.6645   26.4736 C.3     1  UNL1        0.1915
     29 F         -21.1408    1.8300   26.8101 F       1  UNL1       -0.2346
     30 O         -27.7553   -0.9775   28.6536 O.2     1  UNL1       -0.2718
     31 C         -27.1805    0.0749   29.0648 C.2     1  UNL1        0.2575
     32 C         -22.6291    1.9925   25.0635 C.3     1  UNL1        0.0408
     33 C         -25.5494   -0.0460   29.1054 C.3     1  UNL1        0.1557
     34 O         -22.7217    0.4888   28.3131 O.3     1  UNL1       -0.2472
     35 C         -29.0355    3.2015   29.9100 C.3     1  UNL1        0.0217
     36 C         -23.3501    1.1112   27.4256 C.3     1  UNL1        0.1894
     37 C         -24.7263    1.2539   27.4941 C.3     1  UNL1        0.1126
     38 C         -30.1852    0.9476   28.7992 C.3     1  UNL1        0.0217
     39 C         -29.0387    2.0399   28.8139 C.3     1  UNL1        0.0788
     40 N         -25.1328    1.2531   28.8286 N.3     1  UNL1       -0.2082
     41 N         -22.4864    0.0602   29.6242 N.3     1  UNL1        0.0419
     42 N         -27.8166    1.2410   29.2955 N.am    1  UNL1       -0.2077
     43 C         -29.5450    2.8353   27.5453 C.3     1  UNL1        0.0217
@<TRIPOS>BOND
     1     1    33    1
     2     2     7    1
     3     2     1    1
     4     3     2    2
     5     4     3    1
     6     4     5    2
     7     5     6    1
     8     6     7    2
     9     8     1    1
    10     8     9    1
    11     8    12    1
    12     9    10    1
    13    10    11    1
    14    12    11    1
    15    13    37    1
    16    14    13    1
    17    14    15    1
    18    15    18    2
    19    16    17    1
    20    16    15    1
    21    19    14    2
    22    20    21    2
    23    20    19    1
    24    21    26    1
    25    22    21    1
    26    23    22    1
    27    24    23    1
    28    24    25    1
    29    26    27    1
    30    26    13    1
    31    28    32    1
    32    28    29    1
    33    28    36    1
    34    30    31    2
    35    31    33    1
    36    31    42    1
    37    33    40    1
    38    34    41    1
    39    36    37    1
    40    36    34    1
    41    37    40    1
    42    38    39    1
    43    39    42    1
    44    39    35    1
    45    43    39    1
