@<TRIPOS>MOLECULE
outputs/IAG933/test6/raw/output_6887_IAG933_linker_design_.xyz
 41 44 0 0 0
SMALL
GASTEIGER

@<TRIPOS>ATOM
      1 C         -24.8550   -1.0120   30.1430 C.3     1  UNL1        0.0621
      2 C         -24.9730   -2.5050   29.7880 C.2     1  UNL1       -0.0192
      3 C         -23.9060   -3.1730   29.1460 C.2     1  UNL1       -0.0042
      4 C         -23.9890   -4.5490   28.8530 C.2     1  UNL1       -0.0003
      5 C         -25.1370   -5.2800   29.2050 C.2     1  UNL1       -0.0000
      6 C         -26.2320   -4.6110   29.7840 C.2     1  UNL1       -0.0003
      7 C         -26.1550   -3.2320   30.0650 C.2     1  UNL1       -0.0042
      8 C         -25.3870   -0.6790   31.5710 C.3     1  UNL1        0.0788
      9 C         -25.1890    0.7730   32.0280 C.3     1  UNL1        0.0193
     10 C         -25.3360    0.6840   33.5440 C.3     1  UNL1        0.0202
     11 C         -24.8290   -0.7150   33.9050 C.3     1  UNL1        0.0887
     12 N         -24.7580   -1.4810   32.6460 N.3     1  UNL1       -0.2191
     13 C         -25.6880    1.6140   26.4610 C.3     1  UNL1        0.0918
     14 C         -26.2500    2.9200   26.3950 C.2     1  UNL1        0.0589
     15 C         -25.6420    4.0930   27.1230 C.2     1  UNL1        0.2628
     16 N         -25.6140    5.2520   26.4490 N.am    1  UNL1       -0.2000
     17 C         -25.0260    6.4790   26.9630 C.3     1  UNL1        0.1388
     18 O         -25.1430    3.9660   28.2430 O.2     1  UNL1       -0.2686
     19 C         -27.4380    3.0910   25.6450 C.2     1  UNL1        0.1025
     20 N         -28.0750    2.0890   25.0030 N.2     1  UNL1       -0.2118
     21 C         -27.5430    0.8490   25.0790 C.2     1  UNL1        0.2344
     22 O         -28.1930   -0.2080   24.4770 O.2     1  UNL1       -0.4585
     23 C         -29.4600    0.0050   23.8660 C.3     1  UNL1        0.2423
     24 C         -30.0650   -1.3770   23.5730 C.3     1  UNL1        0.2292
     25 O         -30.7290   -1.8780   24.7210 O.3     1  UNL1       -0.2162
     26 C         -26.3540    0.5760   25.7770 C.3     1  UNL1        0.2440
     27 F         -25.8600   -0.6810   25.7950 F       1  UNL1       -0.2265
     28 O         -27.4992   -0.6157   28.3786 O.2     1  UNL1       -0.2706
     29 C         -23.7816    0.9736   27.8209 C.2     1  UNL1       -0.0235
     30 C         -21.3341    1.5802   27.5960 C.2     1  UNL1       -0.0217
     31 C         -24.6500    0.0618   28.9097 C.3     1  UNL1        0.1190
     32 C         -27.9276    1.4356   29.5834 C.3     1  UNL1        0.2291
     33 N         -25.8749    0.8535   28.8904 N.am    1  UNL1       -0.2005
     34 C         -24.3107    1.4553   26.7059 C.2     1  UNL1       -0.0210
     35 C         -21.2739    1.9816   26.3694 C.2     1  UNL1       -0.0043
     36 C         -27.1327    0.4821   28.8526 C.2     1  UNL1        0.2721
     37 C         -22.2250    2.1422   25.3379 C.2     1  UNL1       -0.0007
     38 C         -29.2056    1.8045   28.7386 C.3     1  UNL1        0.0456
     39 C         -23.6108    1.8548   25.5249 C.2     1  UNL1       -0.0044
     40 C         -22.4501    1.0118   28.3443 C.3     1  UNL1        0.0493
     41 O         -27.2072    2.5829   30.1550 O.3     1  UNL1       -0.2132
@<TRIPOS>BOND
     1     1    31    1
     2     2     7    1
     3     2     1    1
     4     3     2    2
     5     4     3    1
     6     4     5    2
     7     5     6    1
     8     6     7    2
     9     8     1    1
    10     8     9    1
    11     8    12    1
    12     9    10    1
    13    10    11    1
    14    12    11    1
    15    13    34    1
    16    14    13    1
    17    14    15    1
    18    15    18    2
    19    16    17    1
    20    16    15    1
    21    19    14    2
    22    20    21    2
    23    20    19    1
    24    21    26    1
    25    22    21    1
    26    23    22    1
    27    24    23    1
    28    24    25    1
    29    26    27    1
    30    26    13    1
    31    28    36    2
    32    29    40    1
    33    29    31    1
    34    30    40    1
    35    31    33    1
    36    32    38    1
    37    32    41    1
    38    34    29    2
    39    35    30    2
    40    36    33    1
    41    36    32    1
    42    37    39    2
    43    37    35    1
    44    39    34    1
