@<TRIPOS>MOLECULE
outputs/IAG933/test6/raw/output_6889_IAG933_linker_design_.xyz
 46 51 0 0 0
SMALL
GASTEIGER

@<TRIPOS>ATOM
      1 C         -24.8550   -1.0120   30.1430 C.3     1  UNL1        0.0428
      2 C         -24.9730   -2.5050   29.7880 C.2     1  UNL1       -0.0208
      3 C         -23.9060   -3.1730   29.1460 C.2     1  UNL1       -0.0042
      4 C         -23.9890   -4.5490   28.8530 C.2     1  UNL1       -0.0003
      5 C         -25.1370   -5.2800   29.2050 C.2     1  UNL1       -0.0000
      6 C         -26.2320   -4.6110   29.7840 C.2     1  UNL1       -0.0003
      7 C         -26.1550   -3.2320   30.0650 C.2     1  UNL1       -0.0042
      8 C         -25.3870   -0.6790   31.5710 C.3     1  UNL1        0.0771
      9 C         -25.1890    0.7730   32.0280 C.3     1  UNL1        0.0192
     10 C         -25.3360    0.6840   33.5440 C.3     1  UNL1        0.0202
     11 C         -24.8290   -0.7150   33.9050 C.3     1  UNL1        0.0887
     12 N         -24.7580   -1.4810   32.6460 N.3     1  UNL1       -0.2191
     13 C         -25.6880    1.6140   26.4610 C.3     1  UNL1        0.0923
     14 C         -26.2500    2.9200   26.3950 C.2     1  UNL1        0.0589
     15 C         -25.6420    4.0930   27.1230 C.2     1  UNL1        0.2628
     16 N         -25.6140    5.2520   26.4490 N.am    1  UNL1       -0.2000
     17 C         -25.0260    6.4790   26.9630 C.3     1  UNL1        0.1388
     18 O         -25.1430    3.9660   28.2430 O.2     1  UNL1       -0.2686
     19 C         -27.4380    3.0910   25.6450 C.2     1  UNL1        0.1025
     20 N         -28.0750    2.0890   25.0030 N.2     1  UNL1       -0.2118
     21 C         -27.5430    0.8490   25.0790 C.2     1  UNL1        0.2344
     22 O         -28.1930   -0.2080   24.4770 O.2     1  UNL1       -0.4585
     23 C         -29.4600    0.0050   23.8660 C.3     1  UNL1        0.2423
     24 C         -30.0650   -1.3770   23.5730 C.3     1  UNL1        0.2292
     25 O         -30.7290   -1.8780   24.7210 O.3     1  UNL1       -0.2162
     26 C         -26.3540    0.5760   25.7770 C.3     1  UNL1        0.2440
     27 F         -25.8600   -0.6810   25.7950 F       1  UNL1       -0.2265
     28 C         -20.8989    1.0556   28.0951 C.2     1  UNL1        0.0212
     29 O         -27.4406   -0.2297   28.9849 O.2     1  UNL1       -0.2957
     30 C         -25.0691    0.2688   29.2044 C.3     1  UNL1        0.0348
     31 C         -24.2405    1.6082   26.5764 C.2     1  UNL1       -0.0125
     32 C         -22.5024   -0.0107   29.4597 C.2     1  UNL1       -0.0047
     33 C         -22.4073    2.2893   25.1606 C.2     1  UNL1        0.1727
     34 C         -27.8791    3.4430   29.4710 C.2     1  UNL1        0.0320
     35 O         -21.4395    2.0406   26.0730 O.2     1  UNL1       -0.4673
     36 C         -26.5934    2.7381   29.7351 C.3     1  UNL1        0.0453
     37 C         -29.0231    2.7874   28.8844 C.2     1  UNL1       -0.0113
     38 C         -23.6351    2.3020   25.4433 C.2     1  UNL1        0.0360
     39 CL        -27.8278    5.0816   29.9308 Cl      1  UNL1       -0.0872
     40 C         -23.4676    0.4566   28.6760 C.2     1  UNL1       -0.0223
     41 C         -21.8953    1.4339   27.2124 C.3     1  UNL1        0.2098
     42 C         -23.2627    1.1491   27.5151 C.2     1  UNL1        0.0141
     43 C         -21.1837    0.3103   29.1783 C.2     1  UNL1       -0.0010
     44 C         -27.5439    0.8577   28.7205 C.2     1  UNL1        0.1553
     45 C         -28.8573    1.4872   28.3635 C.3     1  UNL1        0.0910
     46 C         -26.1588    1.4905   29.0157 C.3     1  UNL1        0.0675
@<TRIPOS>BOND
     1     1    30    1
     2     2     7    1
     3     2     1    1
     4     3     2    2
     5     4     3    1
     6     4     5    2
     7     5     6    1
     8     6     7    2
     9     8     1    1
    10     8     9    1
    11     8    12    1
    12     9    10    1
    13    10    11    1
    14    12    11    1
    15    13    31    1
    16    14    13    1
    17    14    15    1
    18    15    18    2
    19    16    17    1
    20    16    15    1
    21    19    14    2
    22    20    21    2
    23    20    19    1
    24    21    26    1
    25    22    21    1
    26    23    22    1
    27    24    23    1
    28    24    25    1
    29    26    27    1
    30    26    13    1
    31    28    43    2
    32    30    40    1
    33    31    42    2
    34    33    38    2
    35    33    35    1
    36    34    36    1
    37    34    39    1
    38    35    41    1
    39    37    34    2
    40    38    31    1
    41    40    32    2
    42    41    42    1
    43    41    28    1
    44    42    40    1
    45    43    32    1
    46    44    29    2
    47    44    46    1
    48    45    44    1
    49    45    37    1
    50    46    30    1
    51    46    36    1
