@<TRIPOS>MOLECULE
No_689-gen_results/8p0m/2024-11-27-11-27-31/
 19 20 0 0 0
SMALL
GASTEIGER

@<TRIPOS>ATOM
      1 F         -28.0727   -1.2542   28.5316 F       1  UNL1       -0.1659
      2 C         -28.2662   -0.4214   29.1931 C.3     1  UNL1        0.4186
      3 F         -29.4400   -0.1817   29.3649 F       1  UNL1       -0.1659
      4 F         -27.6958   -0.7084   30.4324 F       1  UNL1       -0.1659
      5 C         -27.5418    0.7768   28.6351 C.ar    1  UNL1        0.0716
      6 C         -26.9446    0.8609   27.6283 C.ar    1  UNL1        0.0047
      7 C         -26.2129    2.0007   27.0846 C.ar    1  UNL1        0.0115
      8 C         -26.1609    3.1507   27.8778 C.ar    1  UNL1        0.0620
      9 C         -26.8436    3.1082   29.0814 C.ar    1  UNL1        0.0641
     10 C         -27.4626    1.9798   29.5479 C.ar    1  UNL1        0.0092
     11 CL        -25.3378    4.5051   27.3101 Cl      1  UNL1       -0.0821
     12 C         -26.7559    4.3799   29.9583 C.2     1  UNL1        0.2498
     13 N         -25.9191    4.4796   30.9113 N.am    1  UNL1       -0.2761
     14 C         -25.2910    3.4329   31.4366 C.3     1  UNL1        0.0937
     15 C         -24.3652    3.6819   32.5717 C.3     1  UNL1        0.0216
     16 C         -26.1060    5.5430   31.8506 C.3     1  UNL1        0.0937
     17 C         -25.1823    5.8515   32.8799 C.3     1  UNL1        0.0216
     18 C         -24.3634    4.8478   33.2331 C.3     1  UNL1        0.0035
     19 O         -27.5634    5.2865   29.5821 O.2     1  UNL1       -0.2699
@<TRIPOS>BOND
     1     1     2    1
     2     2     3    1
     3     2     4    1
     4     2     5    1
     5     8    11    1
     6     9    12    1
     7    12    13   am
     8    13    14    1
     9    13    16    1
    10    15    18    1
    11    17    18    1
    12    12    19    2
    13    14    15    1
    14    17    16    1
    15     5     6   ar
    16     6     7   ar
    17     7     8   ar
    18     8     9   ar
    19     9    10   ar
    20    10     5   ar
