@<TRIPOS>MOLECULE
outputs/IAG933/test6/raw/output_6890_IAG933_linker_design_.xyz
 43 47 0 0 0
SMALL
GASTEIGER

@<TRIPOS>ATOM
      1 C         -24.8550   -1.0120   30.1430 C.3     1  UNL1        0.0584
      2 C         -24.9730   -2.5050   29.7880 C.2     1  UNL1       -0.0195
      3 C         -23.9060   -3.1730   29.1460 C.2     1  UNL1       -0.0042
      4 C         -23.9890   -4.5490   28.8530 C.2     1  UNL1       -0.0003
      5 C         -25.1370   -5.2800   29.2050 C.2     1  UNL1       -0.0000
      6 C         -26.2320   -4.6110   29.7840 C.2     1  UNL1       -0.0003
      7 C         -26.1550   -3.2320   30.0650 C.2     1  UNL1       -0.0042
      8 C         -25.3870   -0.6790   31.5710 C.3     1  UNL1        0.0785
      9 C         -25.1890    0.7730   32.0280 C.3     1  UNL1        0.0192
     10 C         -25.3360    0.6840   33.5440 C.3     1  UNL1        0.0202
     11 C         -24.8290   -0.7150   33.9050 C.3     1  UNL1        0.0887
     12 N         -24.7580   -1.4810   32.6460 N.3     1  UNL1       -0.2191
     13 C         -25.6880    1.6140   26.4610 C.3     1  UNL1        0.0944
     14 C         -26.2500    2.9200   26.3950 C.2     1  UNL1        0.0588
     15 C         -25.6420    4.0930   27.1230 C.2     1  UNL1        0.2627
     16 N         -25.6140    5.2520   26.4490 N.am    1  UNL1       -0.2000
     17 C         -25.0260    6.4790   26.9630 C.3     1  UNL1        0.1388
     18 O         -25.1430    3.9660   28.2430 O.2     1  UNL1       -0.2686
     19 C         -27.4380    3.0910   25.6450 C.2     1  UNL1        0.1025
     20 N         -28.0750    2.0890   25.0030 N.2     1  UNL1       -0.2118
     21 C         -27.5430    0.8490   25.0790 C.2     1  UNL1        0.2344
     22 O         -28.1930   -0.2080   24.4770 O.2     1  UNL1       -0.4585
     23 C         -29.4600    0.0050   23.8660 C.3     1  UNL1        0.2423
     24 C         -30.0650   -1.3770   23.5730 C.3     1  UNL1        0.2292
     25 O         -30.7290   -1.8780   24.7210 O.3     1  UNL1       -0.2162
     26 C         -26.3540    0.5760   25.7770 C.3     1  UNL1        0.2439
     27 F         -25.8600   -0.6810   25.7950 F       1  UNL1       -0.2265
     28 C         -25.4273   -0.3660   28.8774 C.3     1  UNL1        0.1011
     29 C         -23.8933    1.2298   27.8585 C.2     1  UNL1        0.1023
     30 O         -24.7127    5.8582   33.1314 O.2     1  UNL1       -0.2716
     31 C         -23.1108    1.8178   30.2955 C.2     1  UNL1        0.1124
     32 C         -25.5253    2.9473   31.0459 C.3     1  UNL1        0.0527
     33 N         -22.2146    1.0470   29.3360 N.2     1  UNL1       -0.2081
     34 C         -24.6660    2.0586   30.0021 C.2     1  UNL1        0.0486
     35 C         -24.5696    3.8618   31.8808 C.3     1  UNL1        0.0946
     36 N         -26.5393    4.6286   33.0991 N.am    1  UNL1       -0.0878
     37 C         -25.3060    4.8569   32.7628 C.2     1  UNL1        0.2611
     38 O         -21.9237    1.7293   26.9189 O.2     1  UNL1       -0.4429
     39 C         -22.5913    1.3045   28.0381 C.2     1  UNL1        0.2397
     40 CL        -22.6445    2.3474   24.4255 Cl      1  UNL1       -0.0636
     41 C         -22.9575    1.8636   26.0432 C.3     1  UNL1        0.2676
     42 N         -24.7215    0.9776   28.8860 N.pl3   1  UNL1       -0.2853
     43 C         -24.2309    1.5160   26.7358 C.2     1  UNL1        0.0364
@<TRIPOS>BOND
     1     1    28    1
     2     2     7    1
     3     2     1    1
     4     3     2    2
     5     4     3    1
     6     4     5    2
     7     5     6    1
     8     6     7    2
     9     8     1    1
    10     8     9    1
    11     8    12    1
    12     9    10    1
    13    10    11    1
    14    12    11    1
    15    13    43    1
    16    14    13    1
    17    14    15    1
    18    15    18    2
    19    16    17    1
    20    16    15    1
    21    19    14    2
    22    20    21    2
    23    20    19    1
    24    21    26    1
    25    22    21    1
    26    23    22    1
    27    24    23    1
    28    24    25    1
    29    26    27    1
    30    26    13    1
    31    28    42    1
    32    29    39    1
    33    29    42    1
    34    32    35    1
    35    33    31    1
    36    34    31    2
    37    34    32    1
    38    35    37    1
    39    37    36    1
    40    37    30    2
    41    38    39    1
    42    39    33    2
    43    41    40    1
    44    41    43    1
    45    41    38    1
    46    42    34    1
    47    43    29    2
