@<TRIPOS>MOLECULE
outputs/IAG933/test6/raw/output_6893_IAG933_linker_design_.xyz
 42 45 0 0 0
SMALL
GASTEIGER

@<TRIPOS>ATOM
      1 C         -24.8550   -1.0120   30.1430 C.3     1  UNL1        0.1128
      2 C         -24.9730   -2.5050   29.7880 C.2     1  UNL1       -0.0030
      3 C         -23.9060   -3.1730   29.1460 C.2     1  UNL1       -0.0026
      4 C         -23.9890   -4.5490   28.8530 C.2     1  UNL1       -0.0003
      5 C         -25.1370   -5.2800   29.2050 C.2     1  UNL1       -0.0000
      6 C         -26.2320   -4.6110   29.7840 C.2     1  UNL1       -0.0003
      7 C         -26.1550   -3.2320   30.0650 C.2     1  UNL1       -0.0026
      8 C         -25.3870   -0.6790   31.5710 C.3     1  UNL1        0.0951
      9 C         -25.1890    0.7730   32.0280 C.3     1  UNL1        0.0209
     10 C         -25.3360    0.6840   33.5440 C.3     1  UNL1        0.0203
     11 C         -24.8290   -0.7150   33.9050 C.3     1  UNL1        0.0888
     12 N         -24.7580   -1.4810   32.6460 N.3     1  UNL1       -0.2174
     13 C         -25.6880    1.6140   26.4610 C.2     1  UNL1        0.0400
     14 C         -26.2500    2.9200   26.3950 C.2     1  UNL1        0.0764
     15 C         -25.6420    4.0930   27.1230 C.2     1  UNL1        0.2664
     16 N         -25.6140    5.2520   26.4490 N.am    1  UNL1       -0.1997
     17 C         -25.0260    6.4790   26.9630 C.3     1  UNL1        0.1388
     18 O         -25.1430    3.9660   28.2430 O.2     1  UNL1       -0.2683
     19 C         -27.4380    3.0910   25.6450 C.2     1  UNL1        0.1067
     20 N         -28.0750    2.0890   25.0030 N.2     1  UNL1       -0.2081
     21 C         -27.5430    0.8490   25.0790 C.2     1  UNL1        0.2533
     22 O         -28.1930   -0.2080   24.4770 O.2     1  UNL1       -0.4558
     23 C         -29.4600    0.0050   23.8660 C.3     1  UNL1        0.2426
     24 C         -30.0650   -1.3770   23.5730 C.3     1  UNL1        0.2292
     25 O         -30.7290   -1.8780   24.7210 O.3     1  UNL1       -0.2162
     26 C         -26.3540    0.5760   25.7770 C.2     1  UNL1        0.1929
     27 F         -25.8600   -0.6810   25.7950 F       1  UNL1       -0.1992
     28 C         -24.6222    1.2475   27.4037 C.2     1  UNL1        0.0503
     29 N         -20.8825    1.0328   28.0691 N.pl3   1  UNL1       -0.1235
     30 O         -29.6600    0.9412   29.5167 O.3     1  UNL1       -0.3062
     31 O         -28.8433   -1.2692   29.9698 O.3     1  UNL1       -0.3062
     32 O         -29.0996   -0.5169   27.7724 O.3     1  UNL1       -0.3062
     33 C         -22.3034    0.8849   28.2154 C.2     1  UNL1        0.1372
     34 C         -24.9843    0.3800   28.3485 C.3     1  UNL1        0.1760
     35 C         -22.8131    0.0766   29.2090 C.2     1  UNL1        0.0841
     36 S         -28.8361   -0.1467   29.0807 S.3     1  UNL1       -0.1790
     37 N         -26.2543   -0.1957   28.3974 N.3     1  UNL1       -0.1749
     38 O         -22.5089    2.4236   26.5215 O.2     1  UNL1       -0.4702
     39 N         -24.1617   -0.1322   29.2431 N.pl3   1  UNL1       -0.2860
     40 C         -27.2374    0.6225   29.1199 C.3     1  UNL1        0.1959
     41 C         -23.2129    1.5532   27.3571 C.2     1  UNL1        0.1555
     42 C         -22.5272    2.2551   25.1221 C.3     1  UNL1        0.2525
@<TRIPOS>BOND
     1     1     2    1
     2     2     7    1
     3     3     2    2
     4     4     3    1
     5     4     5    2
     6     5     6    1
     7     6     7    2
     8     8     1    1
     9     8     9    1
    10     8    12    1
    11     9    10    1
    12    10    11    1
    13    12    11    1
    14    13    28    1
    15    14    13    1
    16    14    15    1
    17    15    18    2
    18    16    17    1
    19    16    15    1
    20    19    14    2
    21    20    21    2
    22    20    19    1
    23    21    26    1
    24    22    21    1
    25    23    22    1
    26    24    23    1
    27    24    25    1
    28    26    27    1
    29    26    13    2
    30    28    34    1
    31    29    33    1
    32    32    36    1
    33    33    35    2
    34    34    37    1
    35    34    39    1
    36    35    39    1
    37    36    40    1
    38    36    30    1
    39    36    31    1
    40    37    40    1
    41    38    41    1
    42    39     1    1
    43    41    28    2
    44    41    33    1
    45    42    38    1
