@<TRIPOS>MOLECULE
outputs/IAG933/test6/raw/output_6894_IAG933_linker_design_.xyz
 47 51 0 0 0
SMALL
GASTEIGER

@<TRIPOS>ATOM
      1 C         -24.8550   -1.0120   30.1430 C.3     1  UNL1        0.1305
      2 C         -24.9730   -2.5050   29.7880 C.2     1  UNL1       -0.0013
      3 C         -23.9060   -3.1730   29.1460 C.2     1  UNL1       -0.0026
      4 C         -23.9890   -4.5490   28.8530 C.2     1  UNL1       -0.0003
      5 C         -25.1370   -5.2800   29.2050 C.2     1  UNL1       -0.0000
      6 C         -26.2320   -4.6110   29.7840 C.2     1  UNL1       -0.0003
      7 C         -26.1550   -3.2320   30.0650 C.2     1  UNL1       -0.0026
      8 C         -25.3870   -0.6790   31.5710 C.3     1  UNL1        0.0968
      9 C         -25.1890    0.7730   32.0280 C.3     1  UNL1        0.0210
     10 C         -25.3360    0.6840   33.5440 C.3     1  UNL1        0.0203
     11 C         -24.8290   -0.7150   33.9050 C.3     1  UNL1        0.0888
     12 N         -24.7580   -1.4810   32.6460 N.3     1  UNL1       -0.2174
     13 C         -25.6880    1.6140   26.4610 C.3     1  UNL1        0.0978
     14 C         -26.2500    2.9200   26.3950 C.2     1  UNL1        0.0591
     15 C         -25.6420    4.0930   27.1230 C.2     1  UNL1        0.2628
     16 N         -25.6140    5.2520   26.4490 N.am    1  UNL1       -0.2000
     17 C         -25.0260    6.4790   26.9630 C.3     1  UNL1        0.1388
     18 O         -25.1430    3.9660   28.2430 O.2     1  UNL1       -0.2686
     19 C         -27.4380    3.0910   25.6450 C.2     1  UNL1        0.1025
     20 N         -28.0750    2.0890   25.0030 N.2     1  UNL1       -0.2118
     21 C         -27.5430    0.8490   25.0790 C.2     1  UNL1        0.2344
     22 O         -28.1930   -0.2080   24.4770 O.2     1  UNL1       -0.4585
     23 C         -29.4600    0.0050   23.8660 C.3     1  UNL1        0.2423
     24 C         -30.0650   -1.3770   23.5730 C.3     1  UNL1        0.2292
     25 O         -30.7290   -1.8780   24.7210 O.3     1  UNL1       -0.2162
     26 C         -26.3540    0.5760   25.7770 C.3     1  UNL1        0.2442
     27 F         -25.8600   -0.6810   25.7950 F       1  UNL1       -0.2265
     28 C         -29.1067    1.4823   29.4222 C.3     1  UNL1        0.0243
     29 C         -23.2659    1.4379   25.6707 C.2     1  UNL1        0.2842
     30 C         -28.0051   -0.6914   29.3415 C.3     1  UNL1        0.0388
     31 C         -29.4190   -0.8442   29.8072 C.3     1  UNL1        0.1697
     32 N         -30.0890    0.2349   27.6860 N.3     1  UNL1       -0.1302
     33 C         -25.4124    0.8658   28.7299 C.2     1  UNL1        0.0634
     34 C         -21.6992    1.3114   28.2493 C.2     1  UNL1        0.0704
     35 F         -22.6426   -0.0140   29.7062 F       1  UNL1       -0.2040
     36 C         -22.9770    0.7977   28.6800 C.2     1  UNL1        0.1443
     37 C         -29.0031    3.0582   29.5947 C.3     1  UNL1        0.0019
     38 C         -24.2943    1.3899   26.7092 C.2     1  UNL1        0.0520
     39 F         -23.4719    0.9588   24.4994 F       1  UNL1       -0.1632
     40 C         -27.8011    0.7531   29.7697 C.3     1  UNL1        0.0274
     41 N         -25.5231   -0.2344   29.1936 N.pl3   1  UNL1       -0.2338
     42 O         -29.9392   -2.0790   29.3888 O.3     1  UNL1       -0.2216
     43 C         -24.1050    1.0410   28.0251 C.2     1  UNL1        0.0438
     44 C         -26.7823    1.5340   28.9074 C.2     1  UNL1       -0.0102
     45 C         -30.0465    0.3740   29.1653 C.3     1  UNL1        0.1223
     46 O         -21.9649    1.9066   25.8907 O.2     1  UNL1       -0.4262
     47 C         -21.2805    1.6631   26.9511 C.2     1  UNL1        0.1845
@<TRIPOS>BOND
     1     1    41    1
     2     2     7    1
     3     2     1    1
     4     3     2    2
     5     4     3    1
     6     4     5    2
     7     5     6    1
     8     6     7    2
     9     8     1    1
    10     8     9    1
    11     8    12    1
    12     9    10    1
    13    10    11    1
    14    12    11    1
    15    13    38    1
    16    14    13    1
    17    14    15    1
    18    15    18    2
    19    16    17    1
    20    16    15    1
    21    19    14    2
    22    20    21    2
    23    20    19    1
    24    21    26    1
    25    22    21    1
    26    23    22    1
    27    24    23    1
    28    24    25    1
    29    26    27    1
    30    26    13    1
    31    28    37    1
    32    28    40    1
    33    29    46    1
    34    29    38    2
    35    30    40    1
    36    30    31    1
    37    31    42    1
    38    33    44    2
    39    33    41    1
    40    34    36    1
    41    36    35    1
    42    38    43    1
    43    39    29    1
    44    40    44    1
    45    43    36    2
    46    43    33    1
    47    45    32    1
    48    45    28    1
    49    45    31    1
    50    46    47    1
    51    47    34    2
