@<TRIPOS>MOLECULE
outputs/IAG933/test6/raw/output_6895_IAG933_linker_design_.xyz
 43 46 0 0 0
SMALL
GASTEIGER

@<TRIPOS>ATOM
      1 C         -24.8550   -1.0120   30.1430 C.3     1  UNL1        0.0588
      2 C         -24.9730   -2.5050   29.7880 C.2     1  UNL1       -0.0195
      3 C         -23.9060   -3.1730   29.1460 C.2     1  UNL1       -0.0042
      4 C         -23.9890   -4.5490   28.8530 C.2     1  UNL1       -0.0003
      5 C         -25.1370   -5.2800   29.2050 C.2     1  UNL1       -0.0000
      6 C         -26.2320   -4.6110   29.7840 C.2     1  UNL1       -0.0003
      7 C         -26.1550   -3.2320   30.0650 C.2     1  UNL1       -0.0042
      8 C         -25.3870   -0.6790   31.5710 C.3     1  UNL1        0.0785
      9 C         -25.1890    0.7730   32.0280 C.3     1  UNL1        0.0192
     10 C         -25.3360    0.6840   33.5440 C.3     1  UNL1        0.0202
     11 C         -24.8290   -0.7150   33.9050 C.3     1  UNL1        0.0887
     12 N         -24.7580   -1.4810   32.6460 N.3     1  UNL1       -0.2191
     13 C         -25.6880    1.6140   26.4610 C.2     1  UNL1        0.0164
     14 C         -26.2500    2.9200   26.3950 C.2     1  UNL1        0.0726
     15 C         -25.6420    4.0930   27.1230 C.2     1  UNL1        0.2661
     16 N         -25.6140    5.2520   26.4490 N.am    1  UNL1       -0.1997
     17 C         -25.0260    6.4790   26.9630 C.3     1  UNL1        0.1388
     18 O         -25.1430    3.9660   28.2430 O.2     1  UNL1       -0.2683
     19 C         -27.4380    3.0910   25.6450 C.2     1  UNL1        0.1064
     20 N         -28.0750    2.0890   25.0030 N.2     1  UNL1       -0.2081
     21 C         -27.5430    0.8490   25.0790 C.2     1  UNL1        0.2530
     22 O         -28.1930   -0.2080   24.4770 O.2     1  UNL1       -0.4558
     23 C         -29.4600    0.0050   23.8660 C.3     1  UNL1        0.2426
     24 C         -30.0650   -1.3770   23.5730 C.3     1  UNL1        0.2292
     25 O         -30.7290   -1.8780   24.7210 O.3     1  UNL1       -0.2162
     26 C         -26.3540    0.5760   25.7770 C.2     1  UNL1        0.1891
     27 F         -25.8600   -0.6810   25.7950 F       1  UNL1       -0.1996
     28 C         -28.6678    3.6320   30.7495 C.3     1  UNL1        0.0560
     29 O         -22.3666   -0.4340   29.3966 O.2     1  UNL1       -0.2960
     30 C         -29.3704    2.4605   28.7467 C.3     1  UNL1        0.0974
     31 C         -27.7035    0.4089   29.1791 C.2     1  UNL1        0.3249
     32 C         -21.0522    1.2976   27.1949 C.3     1  UNL1        0.0082
     33 C         -28.6466    3.7762   29.1418 C.3     1  UNL1        0.0261
     34 C         -22.8955    0.4048   28.7487 C.2     1  UNL1        0.1522
     35 C         -22.1819    1.5811   28.1888 C.3     1  UNL1        0.0646
     36 C         -25.3469   -0.0131   29.0446 C.3     1  UNL1        0.1094
     37 O         -28.0392   -0.7297   29.4203 O.2     1  UNL1       -0.2507
     38 C         -24.3077    1.3573   26.9017 C.3     1  UNL1        0.0381
     39 C         -28.3613    2.3264   30.8800 C.3     1  UNL1        0.2313
     40 O         -27.1155    2.5085   31.3000 O.3     1  UNL1       -0.2006
     41 N         -28.7319    1.5019   29.6000 N.am    1  UNL1       -0.2382
     42 C         -24.2539    0.6401   28.2661 C.3     1  UNL1        0.0824
     43 N         -26.5017    0.8554   28.7863 N.am    1  UNL1       -0.1893
@<TRIPOS>BOND
     1     1    36    1
     2     2     7    1
     3     2     1    1
     4     3     2    2
     5     4     3    1
     6     4     5    2
     7     5     6    1
     8     6     7    2
     9     8     1    1
    10     8     9    1
    11     8    12    1
    12     9    10    1
    13    10    11    1
    14    12    11    1
    15    13    38    1
    16    14    13    1
    17    14    15    1
    18    15    18    2
    19    16    17    1
    20    16    15    1
    21    19    14    2
    22    20    21    2
    23    20    19    1
    24    21    26    1
    25    22    21    1
    26    23    22    1
    27    24    23    1
    28    24    25    1
    29    26    27    1
    30    26    13    2
    31    28    39    1
    32    30    33    1
    33    30    41    1
    34    31    37    2
    35    31    41   am
    36    32    35    1
    37    33    28    1
    38    34    29    2
    39    35    34    1
    40    36    43    1
    41    39    40    1
    42    41    39    1
    43    42    38    1
    44    42    34    1
    45    42    36    1
    46    43    31    1
