@<TRIPOS>MOLECULE
outputs/IAG933/test6/raw/output_6896_IAG933_linker_design_.xyz
 52 56 0 0 0
SMALL
GASTEIGER

@<TRIPOS>ATOM
      1 C         -24.8550   -1.0120   30.1430 C.3     1  UNL1        0.0437
      2 C         -24.9730   -2.5050   29.7880 C.2     1  UNL1       -0.0208
      3 C         -23.9060   -3.1730   29.1460 C.2     1  UNL1       -0.0042
      4 C         -23.9890   -4.5490   28.8530 C.2     1  UNL1       -0.0003
      5 C         -25.1370   -5.2800   29.2050 C.2     1  UNL1       -0.0000
      6 C         -26.2320   -4.6110   29.7840 C.2     1  UNL1       -0.0003
      7 C         -26.1550   -3.2320   30.0650 C.2     1  UNL1       -0.0042
      8 C         -25.3870   -0.6790   31.5710 C.3     1  UNL1        0.0778
      9 C         -25.1890    0.7730   32.0280 C.3     1  UNL1        0.0272
     10 C         -25.3360    0.6840   33.5440 C.3     1  UNL1        0.0209
     11 C         -24.8290   -0.7150   33.9050 C.3     1  UNL1        0.0887
     12 N         -24.7580   -1.4810   32.6460 N.3     1  UNL1       -0.2191
     13 C         -25.6880    1.6140   26.4610 C.2     1  UNL1        0.0174
     14 C         -26.2500    2.9200   26.3950 C.2     1  UNL1        0.0726
     15 C         -25.6420    4.0930   27.1230 C.2     1  UNL1        0.2661
     16 N         -25.6140    5.2520   26.4490 N.am    1  UNL1       -0.1997
     17 C         -25.0260    6.4790   26.9630 C.3     1  UNL1        0.1388
     18 O         -25.1430    3.9660   28.2430 O.2     1  UNL1       -0.2683
     19 C         -27.4380    3.0910   25.6450 C.2     1  UNL1        0.1064
     20 N         -28.0750    2.0890   25.0030 N.2     1  UNL1       -0.2081
     21 C         -27.5430    0.8490   25.0790 C.2     1  UNL1        0.2530
     22 O         -28.1930   -0.2080   24.4770 O.2     1  UNL1       -0.4558
     23 C         -29.4600    0.0050   23.8660 C.3     1  UNL1        0.2426
     24 C         -30.0650   -1.3770   23.5730 C.3     1  UNL1        0.2292
     25 O         -30.7290   -1.8780   24.7210 O.3     1  UNL1       -0.2162
     26 C         -26.3540    0.5760   25.7770 C.2     1  UNL1        0.1892
     27 F         -25.8600   -0.6810   25.7950 F       1  UNL1       -0.1996
     28 C         -28.4284    3.3369   33.7025 C.2     1  UNL1        0.0013
     29 N         -24.1616    2.5908   29.9481 N.pl3   1  UNL1       -0.2412
     30 C         -24.3478    1.3592   27.1014 C.3     1  UNL1        0.0497
     31 O         -25.9694    5.2725   35.0416 O.2     1  UNL1       -0.3573
     32 O         -22.4423    0.3315   29.6639 O.2     1  UNL1       -0.2853
     33 C         -29.5979    1.7684   32.2366 C.2     1  UNL1       -0.0003
     34 C         -27.2281    2.2564   31.9734 C.2     1  UNL1       -0.0155
     35 C         -29.5843    2.5957   33.3864 C.2     1  UNL1        0.0000
     36 F         -20.9888    2.2165   26.9602 F       1  UNL1       -0.2288
     37 C         -25.0924    3.0633   31.2238 C.2     1  UNL1        0.0483
     38 C         -26.2313    4.3680   32.9412 C.2     1  UNL1        0.1201
     39 N         -26.7948    7.3265   35.4411 N.3     1  UNL1       -0.1748
     40 C         -25.8408    2.0043   31.6027 C.3     1  UNL1        0.0611
     41 C         -27.2486    7.8266   34.3085 C.3     1  UNL1        0.0766
     42 C         -27.3744    3.3231   32.8463 C.2     1  UNL1        0.0172
     43 C         -23.2845    2.0621   26.4798 C.3     1  UNL1        0.0497
     44 N         -25.9824    5.1771   33.8255 N.2     1  UNL1       -0.0813
     45 C         -22.0131    0.8780   28.7356 C.2     1  UNL1        0.2423
     46 C         -24.4419    1.6210   28.5928 C.3     1  UNL1        0.1163
     47 C         -22.1860    1.8001   27.5265 C.3     1  UNL1        0.2253
     48 C         -27.7764    6.9905   33.1718 C.3     1  UNL1        0.0189
     49 C         -25.6887    6.4552   35.6860 C.3     1  UNL1        0.3312
     50 C         -28.3970    1.4746   31.6115 C.2     1  UNL1       -0.0039
     51 C         -27.2261    9.2353   34.1209 C.3     1  UNL1        0.0189
     52 C         -25.3391    4.4032   31.9313 C.2     1  UNL1        0.0344
@<TRIPOS>BOND
     1     2     7    1
     2     2     1    1
     3     3     2    2
     4     4     3    1
     5     4     5    2
     6     5     6    1
     7     6     7    2
     8     8     1    1
     9     8     9    1
    10     8    12    1
    11     9    10    1
    12    10    11    1
    13    12    11    1
    14    13    30    1
    15    14    13    1
    16    14    15    1
    17    15    18    2
    18    16    17    1
    19    16    15    1
    20    19    14    2
    21    20    21    2
    22    20    19    1
    23    21    26    1
    24    22    21    1
    25    23    22    1
    26    24    23    1
    27    24    25    1
    28    26    27    1
    29    26    13    2
    30    29    37    1
    31    30    43    1
    32    30    46    1
    33    31    49    1
    34    33    35    2
    35    34    42    1
    36    35    28    1
    37    37    52    2
    38    38    44    2
    39    39    49    1
    40    40    37    1
    41    40    34    1
    42    40     9    1
    43    41    39    1
    44    42    38    1
    45    42    28    2
    46    43    47    1
    47    44    31    1
    48    45    32    2
    49    46    29    1
    50    47    36    1
    51    47    45    1
    52    48    41    1
    53    50    34    2
    54    50    33    1
    55    51    41    1
    56    52    38    1
