@<TRIPOS>MOLECULE
outputs/IAG933/test6/raw/output_69_IAG933_linker_design_.xyz
 44 50 0 0 0
SMALL
GASTEIGER

@<TRIPOS>ATOM
      1 C         -24.8550   -1.0120   30.1430 C.3     1  UNL1        0.0544
      2 C         -24.9730   -2.5050   29.7880 C.2     1  UNL1       -0.0198
      3 C         -23.9060   -3.1730   29.1460 C.2     1  UNL1       -0.0042
      4 C         -23.9890   -4.5490   28.8530 C.2     1  UNL1       -0.0003
      5 C         -25.1370   -5.2800   29.2050 C.2     1  UNL1       -0.0000
      6 C         -26.2320   -4.6110   29.7840 C.2     1  UNL1       -0.0003
      7 C         -26.1550   -3.2320   30.0650 C.2     1  UNL1       -0.0042
      8 C         -25.3870   -0.6790   31.5710 C.3     1  UNL1        0.0794
      9 C         -25.1890    0.7730   32.0280 C.3     1  UNL1        0.0325
     10 C         -25.3360    0.6840   33.5440 C.3     1  UNL1        0.0215
     11 C         -24.8290   -0.7150   33.9050 C.3     1  UNL1        0.0887
     12 N         -24.7580   -1.4810   32.6460 N.3     1  UNL1       -0.2190
     13 C         -25.6880    1.6140   26.4610 C.3     1  UNL1        0.0988
     14 C         -26.2500    2.9200   26.3950 C.2     1  UNL1        0.0572
     15 C         -25.6420    4.0930   27.1230 C.2     1  UNL1        0.2625
     16 N         -25.6140    5.2520   26.4490 N.am    1  UNL1       -0.2000
     17 C         -25.0260    6.4790   26.9630 C.3     1  UNL1        0.1388
     18 O         -25.1430    3.9660   28.2430 O.2     1  UNL1       -0.2687
     19 C         -27.4380    3.0910   25.6450 C.2     1  UNL1        0.1022
     20 N         -28.0750    2.0890   25.0030 N.2     1  UNL1       -0.2119
     21 C         -27.5430    0.8490   25.0790 C.2     1  UNL1        0.2342
     22 O         -28.1930   -0.2080   24.4770 O.2     1  UNL1       -0.4585
     23 C         -29.4600    0.0050   23.8660 C.3     1  UNL1        0.2423
     24 C         -30.0650   -1.3770   23.5730 C.3     1  UNL1        0.2292
     25 O         -30.7290   -1.8780   24.7210 O.3     1  UNL1       -0.2162
     26 C         -26.3540    0.5760   25.7770 C.3     1  UNL1        0.2424
     27 F         -25.8600   -0.6810   25.7950 F       1  UNL1       -0.2268
     28 C         -25.4699    5.9978   33.5736 C.3     1  UNL1        0.0721
     29 C         -24.0575    3.1167   31.6330 C.3     1  UNL1        0.0161
     30 C         -24.3107    1.4924   26.9143 C.3     1  UNL1        0.1421
     31 C         -25.0664    4.5626   33.3672 C.3     1  UNL1        0.0174
     32 N         -24.0516    1.4630   29.6068 N.3     1  UNL1       -0.2707
     33 C         -25.3022    4.0053   31.9843 C.3     1  UNL1        0.0041
     34 C         -24.6412    0.0887   28.9345 C.3     1  UNL1        0.0810
     35 C         -25.6360    5.0602   30.9360 C.3     1  UNL1        0.0174
     36 C         -22.2619    2.0374   25.7930 C.3     1  UNL1        0.2940
     37 C         -22.1364    1.4163   28.0076 C.3     1  UNL1        0.1632
     38 C         -25.5329    6.5589   31.2714 C.3     1  UNL1        0.0721
     39 N         -26.2417    6.5127   32.5164 N.3     1  UNL1       -0.2715
     40 C         -23.8473    1.1715   28.2844 C.3     1  UNL1        0.1123
     41 O         -23.5422    1.8967   25.8636 O.3     1  UNL1       -0.3274
     42 C         -27.6735    6.7216   32.4623 C.3     1  UNL1        0.0896
     43 C         -24.1475    1.5763   31.1187 C.3     1  UNL1        0.0590
     44 O         -21.5979    1.6269   26.9170 O.3     1  UNL1       -0.3252
@<TRIPOS>BOND
     1     1     2    1
     2     1     8    1
     3     2     7    1
     4     3     2    2
     5     4     3    1
     6     4     5    2
     7     5     6    1
     8     6     7    2
     9     8     9    1
    10     8    12    1
    11     9    10    1
    12    10    11    1
    13    12    11    1
    14    13    14    1
    15    13    30    1
    16    14    15    1
    17    15    18    2
    18    16    17    1
    19    16    15    1
    20    19    14    2
    21    20    21    2
    22    20    19    1
    23    21    26    1
    24    22    21    1
    25    23    22    1
    26    24    23    1
    27    24    25    1
    28    26    27    1
    29    26    13    1
    30    29    33    1
    31    30    41    1
    32    30    40    1
    33    31    28    1
    34    32    43    1
    35    33    31    1
    36    34    32    1
    37    34     1    1
    38    35    38    1
    39    35    33    1
    40    36    41    1
    41    36    44    1
    42    37    40    1
    43    38    39    1
    44    39    28    1
    45    40    34    1
    46    40    32    1
    47    42    39    1
    48    43    29    1
    49    43     9    1
    50    44    37    1
