@<TRIPOS>MOLECULE
No_690-gen_results/8p0m/2024-11-27-11-27-31/
 22 21 0 0 0
SMALL
GASTEIGER

@<TRIPOS>ATOM
      1 C         -28.0162   -0.8135   28.8779 C.3     1  UNL1        0.3762
      2 C         -27.0636   -0.1189   28.6079 C.3     1  UNL1        0.4555
      3 F         -27.0425    0.2440   27.4277 F       1  UNL1       -0.1650
      4 O         -28.4881   -0.4683   30.1200 O.3     1  UNL1       -0.2906
      5 F         -26.8984    1.0614   29.3289 F       1  UNL1       -0.1650
      6 F         -25.8530   -0.7809   28.8362 F       1  UNL1       -0.1650
      7 C         -29.5838   -1.0199   30.7435 C.3     1  UNL1        0.3141
      8 F         -28.0958   -1.8005   29.0296 F       1  UNL1       -0.1943
      9 C         -29.4821   -2.1124   31.0204 C.3     1  UNL1        0.2575
     10 O         -30.4306   -2.6891   31.7810 O.2     1  UNL1       -0.4681
     11 O         -29.6908   -0.2006   31.9402 O.3     1  UNL1       -0.1857
     12 C         -28.3705   -2.6923   31.9796 C.3     1  UNL1        0.2307
     13 O         -27.4354   -1.8505   32.0934 O.3     1  UNL1       -0.2162
     14 C         -30.8883   -3.9695   31.4653 C.2     1  UNL1        0.1724
     15 C         -30.2891   -4.8355   30.8146 C.2     1  UNL1        0.0400
     16 C         -30.8312   -6.0999   30.4489 C.2     1  UNL1        0.0032
     17 C         -31.6700   -6.1461   29.4913 C.2     1  UNL1        0.0001
     18 C         -31.9784   -4.9964   28.7514 C.2     1  UNL1       -0.0000
     19 C         -31.7712   -4.8068   27.7243 C.2     1  UNL1       -0.0003
     20 C         -32.1748   -3.6885   26.8023 C.2     1  UNL1       -0.0046
     21 C         -32.6515   -2.5652   27.4836 C.2     1  UNL1       -0.0258
     22 C         -33.0247   -1.4152   26.8047 C.3     1  UNL1        0.0307
@<TRIPOS>BOND
     1     1     2    1
     2     2     3    1
     3     1     4    1
     4     2     5    1
     5     2     6    1
     6     4     7    1
     7     1     8    1
     8     7     9    1
     9     9    10    1
    10     7    11    1
    11     9    12    1
    12    12    13    1
    13    10    14    1
    14    14    15    2
    15    15    16    1
    16    16    17    2
    17    17    18    1
    18    18    19    2
    19    19    20    1
    20    20    21    2
    21    21    22    1
