@<TRIPOS>MOLECULE
outputs/IAG933/test6/raw/output_6900_IAG933_linker_design_.xyz
 42 45 0 0 0
SMALL
GASTEIGER

@<TRIPOS>ATOM
      1 C         -24.8550   -1.0120   30.1430 C.3     1  UNL1        0.1108
      2 C         -24.9730   -2.5050   29.7880 C.2     1  UNL1       -0.0051
      3 C         -23.9060   -3.1730   29.1460 C.2     1  UNL1       -0.0029
      4 C         -23.9890   -4.5490   28.8530 C.2     1  UNL1       -0.0003
      5 C         -25.1370   -5.2800   29.2050 C.2     1  UNL1       -0.0000
      6 C         -26.2320   -4.6110   29.7840 C.2     1  UNL1       -0.0003
      7 C         -26.1550   -3.2320   30.0650 C.2     1  UNL1       -0.0029
      8 C         -25.3870   -0.6790   31.5710 C.3     1  UNL1        0.0929
      9 C         -25.1890    0.7730   32.0280 C.3     1  UNL1        0.0206
     10 C         -25.3360    0.6840   33.5440 C.3     1  UNL1        0.0203
     11 C         -24.8290   -0.7150   33.9050 C.3     1  UNL1        0.0888
     12 N         -24.7580   -1.4810   32.6460 N.3     1  UNL1       -0.2177
     13 C         -25.6880    1.6140   26.4610 C.3     1  UNL1        0.0757
     14 C         -26.2500    2.9200   26.3950 C.2     1  UNL1        0.0552
     15 C         -25.6420    4.0930   27.1230 C.2     1  UNL1        0.2625
     16 N         -25.6140    5.2520   26.4490 N.am    1  UNL1       -0.2000
     17 C         -25.0260    6.4790   26.9630 C.3     1  UNL1        0.1388
     18 O         -25.1430    3.9660   28.2430 O.2     1  UNL1       -0.2687
     19 C         -27.4380    3.0910   25.6450 C.2     1  UNL1        0.1021
     20 N         -28.0750    2.0890   25.0030 N.2     1  UNL1       -0.2119
     21 C         -27.5430    0.8490   25.0790 C.2     1  UNL1        0.2341
     22 O         -28.1930   -0.2080   24.4770 O.2     1  UNL1       -0.4585
     23 C         -29.4600    0.0050   23.8660 C.3     1  UNL1        0.2423
     24 C         -30.0650   -1.3770   23.5730 C.3     1  UNL1        0.2292
     25 O         -30.7290   -1.8780   24.7210 O.3     1  UNL1       -0.2162
     26 C         -26.3540    0.5760   25.7770 C.3     1  UNL1        0.2404
     27 F         -25.8600   -0.6810   25.7950 F       1  UNL1       -0.2269
     28 C         -22.6131    0.7076   28.1038 C.2     1  UNL1        0.1950
     29 C         -27.2930    3.9831   30.7095 C.3     1  UNL1        0.0000
     30 N         -25.7218   -0.4039   29.1237 N.3     1  UNL1       -0.2147
     31 C         -21.8224    2.2186   25.9565 C.2     1  UNL1        0.1787
     32 C         -23.0957    1.8892   26.0891 C.2     1  UNL1        0.2220
     33 C         -26.1257    3.1952   30.1255 C.3     1  UNL1        0.0014
     34 C         -24.9005    1.1952   27.5317 C.3     1  UNL1        0.0521
     35 C         -21.2978    1.1107   28.0249 C.2     1  UNL1        0.0442
     36 O         -22.8158   -0.2939   28.9560 O.2     1  UNL1       -0.2868
     37 C         -26.6847    1.9700   29.3786 C.3     1  UNL1        0.0177
     38 C         -25.5593    1.0031   28.8488 C.3     1  UNL1        0.0778
     39 F         -21.3959    2.8237   24.8063 F       1  UNL1       -0.2008
     40 O         -23.9358    2.2189   25.0191 O.2     1  UNL1       -0.2844
     41 C         -20.9341    1.8650   26.9506 C.2     1  UNL1        0.0362
     42 C         -23.5686    1.2314   27.2363 C.2     1  UNL1        0.0593
@<TRIPOS>BOND
     1     1    30    1
     2     2     7    1
     3     2     1    1
     4     3     2    2
     5     4     3    1
     6     4     5    2
     7     5     6    1
     8     6     7    2
     9     8     1    1
    10     8     9    1
    11     8    12    1
    12     9    10    1
    13    10    11    1
    14    12    11    1
    15    13    34    1
    16    14    13    1
    17    14    15    1
    18    15    18    2
    19    16    17    1
    20    16    15    1
    21    19    14    2
    22    20    21    2
    23    20    19    1
    24    21    26    1
    25    22    21    1
    26    23    22    1
    27    24    23    1
    28    24    25    1
    29    26    27    1
    30    26    13    1
    31    28    36    1
    32    31    32    2
    33    31    41    1
    34    32    42    1
    35    33    29    1
    36    34    38    1
    37    35    28    1
    38    37    33    1
    39    38    30    1
    40    38    37    1
    41    39    31    1
    42    40    32    1
    43    41    35    2
    44    42    34    1
    45    42    28    2
