@<TRIPOS>MOLECULE
outputs/IAG933/test6/raw/output_6906_IAG933_linker_design_.xyz
 43 46 0 0 0
SMALL
GASTEIGER

@<TRIPOS>ATOM
      1 C         -24.8550   -1.0120   30.1430 C.3     1  UNL1        0.1549
      2 C         -24.9730   -2.5050   29.7880 C.2     1  UNL1        0.0060
      3 C         -23.9060   -3.1730   29.1460 C.2     1  UNL1       -0.0019
      4 C         -23.9890   -4.5490   28.8530 C.2     1  UNL1       -0.0002
      5 C         -25.1370   -5.2800   29.2050 C.2     1  UNL1       -0.0000
      6 C         -26.2320   -4.6110   29.7840 C.2     1  UNL1       -0.0002
      7 C         -26.1550   -3.2320   30.0650 C.2     1  UNL1       -0.0019
      8 C         -25.3870   -0.6790   31.5710 C.3     1  UNL1        0.1042
      9 C         -25.1890    0.7730   32.0280 C.3     1  UNL1        0.0217
     10 C         -25.3360    0.6840   33.5440 C.3     1  UNL1        0.0203
     11 C         -24.8290   -0.7150   33.9050 C.3     1  UNL1        0.0888
     12 N         -24.7580   -1.4810   32.6460 N.3     1  UNL1       -0.2166
     13 C         -25.6880    1.6140   26.4610 C.2     1  UNL1        0.1765
     14 C         -26.2500    2.9200   26.3950 C.2     1  UNL1        0.1105
     15 C         -25.6420    4.0930   27.1230 C.2     1  UNL1        0.2694
     16 N         -25.6140    5.2520   26.4490 N.am    1  UNL1       -0.1996
     17 C         -25.0260    6.4790   26.9630 C.3     1  UNL1        0.1388
     18 O         -25.1430    3.9660   28.2430 O.2     1  UNL1       -0.2682
     19 C         -27.4380    3.0910   25.6450 C.2     1  UNL1        0.1098
     20 N         -28.0750    2.0890   25.0030 N.2     1  UNL1       -0.2079
     21 C         -27.5430    0.8490   25.0790 C.2     1  UNL1        0.2564
     22 O         -28.1930   -0.2080   24.4770 O.2     1  UNL1       -0.4558
     23 C         -29.4600    0.0050   23.8660 C.3     1  UNL1        0.2426
     24 C         -30.0650   -1.3770   23.5730 C.3     1  UNL1        0.2292
     25 O         -30.7290   -1.8780   24.7210 O.3     1  UNL1       -0.2162
     26 C         -26.3540    0.5760   25.7770 C.2     1  UNL1        0.2267
     27 F         -25.8600   -0.6810   25.7950 F       1  UNL1       -0.1960
     28 C         -24.1746    2.7011   31.0957 C.3     1  UNL1        0.2076
     29 C         -21.5963    1.2958   27.4467 C.2     1  UNL1        0.2657
     30 C         -28.0220    6.0092   30.7522 C.3     1  UNL1        0.1394
     31 N         -26.1607    4.6251   31.0235 N.am    1  UNL1        0.0334
     32 N         -23.9048    2.0319   29.6813 N.3     1  UNL1       -0.1778
     33 O         -24.9794    3.9258   32.9656 O.2     1  UNL1       -0.2413
     34 CA        -21.8859    0.9304   28.5133 C.3     1  UNL1        0.2164
     35 C         -24.2368    0.3732   27.9016 C.3     1  UNL1        0.2515
     36 N         -20.9254    1.2117   28.1324 N.am    1  UNL1       -0.1921
     37 C         -26.7830    5.6588   31.4523 C.2     1  UNL1        0.3977
     38 N         -26.3769    6.2655   32.5296 N.2     1  UNL1        0.1923
     39 O         -23.5594   -0.4176   30.0021 O.3     1  UNL1       -0.3343
     40 O         -21.5307    1.6486   26.2378 O.2     1  UNL1       -0.2713
     41 C         -23.4194    0.6734   29.0723 C.3     1  UNL1        0.2206
     42 O         -24.4877    1.5111   27.1526 O.2     1  UNL1       -0.4687
     43 C         -25.1397    3.8063   31.7938 C.2     1  UNL1        0.3697
@<TRIPOS>BOND
     1     1    39    1
     2     2     7    1
     3     2     1    1
     4     3     2    2
     5     4     3    1
     6     4     5    2
     7     5     6    1
     8     6     7    2
     9     8     1    1
    10     8     9    1
    11     8    12    1
    12     9    10    1
    13    10    11    1
    14    12    11    1
    15    13    42    1
    16    14    13    1
    17    14    15    1
    18    15    18    2
    19    16    17    1
    20    16    15    1
    21    19    14    2
    22    20    21    2
    23    20    19    1
    24    21    26    1
    25    22    21    1
    26    23    22    1
    27    24    23    1
    28    24    25    1
    29    26    27    1
    30    26    13    2
    31    28    43    1
    32    29    36    1
    33    29    34    1
    34    30    37    1
    35    31    37    1
    36    31    43    1
    37    32    28    1
    38    34    41    1
    39    36    34    1
    40    37    38    2
    41    40    29    2
    42    41    35    1
    43    41    32    1
    44    41    39    1
    45    42    35    1
    46    43    33    2
