@<TRIPOS>MOLECULE
outputs/IAG933/test6/raw/output_6908_IAG933_linker_design_.xyz
 42 46 0 0 0
SMALL
GASTEIGER

@<TRIPOS>ATOM
      1 C         -24.8550   -1.0120   30.1430 C.3     1  UNL1        0.0962
      2 C         -24.9730   -2.5050   29.7880 C.2     1  UNL1       -0.0064
      3 C         -23.9060   -3.1730   29.1460 C.2     1  UNL1       -0.0029
      4 C         -23.9890   -4.5490   28.8530 C.2     1  UNL1       -0.0003
      5 C         -25.1370   -5.2800   29.2050 C.2     1  UNL1       -0.0000
      6 C         -26.2320   -4.6110   29.7840 C.2     1  UNL1       -0.0003
      7 C         -26.1550   -3.2320   30.0650 C.2     1  UNL1       -0.0029
      8 C         -25.3870   -0.6790   31.5710 C.3     1  UNL1        0.0916
      9 C         -25.1890    0.7730   32.0280 C.3     1  UNL1        0.0206
     10 C         -25.3360    0.6840   33.5440 C.3     1  UNL1        0.0203
     11 C         -24.8290   -0.7150   33.9050 C.3     1  UNL1        0.0888
     12 N         -24.7580   -1.4810   32.6460 N.3     1  UNL1       -0.2178
     13 C         -25.6880    1.6140   26.4610 C.3     1  UNL1        0.0738
     14 C         -26.2500    2.9200   26.3950 C.2     1  UNL1        0.0549
     15 C         -25.6420    4.0930   27.1230 C.2     1  UNL1        0.2624
     16 N         -25.6140    5.2520   26.4490 N.am    1  UNL1       -0.2000
     17 C         -25.0260    6.4790   26.9630 C.3     1  UNL1        0.1388
     18 O         -25.1430    3.9660   28.2430 O.2     1  UNL1       -0.2687
     19 C         -27.4380    3.0910   25.6450 C.2     1  UNL1        0.1021
     20 N         -28.0750    2.0890   25.0030 N.2     1  UNL1       -0.2119
     21 C         -27.5430    0.8490   25.0790 C.2     1  UNL1        0.2341
     22 O         -28.1930   -0.2080   24.4770 O.2     1  UNL1       -0.4585
     23 C         -29.4600    0.0050   23.8660 C.3     1  UNL1        0.2423
     24 C         -30.0650   -1.3770   23.5730 C.3     1  UNL1        0.2292
     25 O         -30.7290   -1.8780   24.7210 O.3     1  UNL1       -0.2162
     26 C         -26.3540    0.5760   25.7770 C.3     1  UNL1        0.2401
     27 F         -25.8600   -0.6810   25.7950 F       1  UNL1       -0.2269
     28 C         -29.1889    2.8744   31.1007 C.3     1  UNL1        0.1520
     29 C         -23.4335    0.0121   28.0275 C.3     1  UNL1        0.0456
     30 C         -27.9776    0.1092   29.0979 C.3     1  UNL1        0.0174
     31 C         -28.9945    1.7146   32.0597 C.3     1  UNL1        0.0329
     32 C         -29.2909    0.4453   31.2835 C.3     1  UNL1        0.0027
     33 C         -29.2046    0.7691   29.7792 C.3     1  UNL1        0.0040
     34 C         -24.7977    1.3917   27.5996 C.3     1  UNL1        0.0494
     35 C         -21.0672    1.4557   27.9467 C.3     1  UNL1        0.1740
     36 O         -22.0703    1.7743   26.9804 O.3     1  UNL1       -0.3535
     37 C         -24.9088   -0.0149   28.1491 C.3     1  UNL1        0.0629
     38 C         -23.3945    1.3210   27.2318 C.3     1  UNL1        0.1183
     39 C         -29.0714    2.2987   29.6929 C.3     1  UNL1        0.0329
     40 C         -26.6734    0.7796   29.4894 C.3     1  UNL1        0.0723
     41 N         -25.5943   -0.1983   29.2503 N.3     1  UNL1       -0.2703
     42 O         -28.0937    3.7775   31.3334 O.3     1  UNL1       -0.2232
@<TRIPOS>BOND
     1     1    41    1
     2     2     7    1
     3     2     1    1
     4     3     2    2
     5     4     3    1
     6     4     5    2
     7     5     6    1
     8     6     7    2
     9     8     1    1
    10     8     9    1
    11     8    12    1
    12     9    10    1
    13    10    11    1
    14    12    11    1
    15    13    14    1
    16    14    15    1
    17    15    18    2
    18    16    17    1
    19    16    15    1
    20    19    14    2
    21    20    21    2
    22    20    19    1
    23    21    26    1
    24    22    21    1
    25    23    22    1
    26    24    23    1
    27    24    25    1
    28    26    27    1
    29    26    13    1
    30    28    42    1
    31    28    31    1
    32    29    37    1
    33    30    40    1
    34    32    31    1
    35    33    30    1
    36    33    32    1
    37    34    13    1
    38    34    37    1
    39    36    35    1
    40    37    41    1
    41    38    36    1
    42    38    34    1
    43    38    29    1
    44    39    33    1
    45    39    28    1
    46    41    40    1
