@<TRIPOS>MOLECULE
outputs/IAG933/test6/raw/output_6911_IAG933_linker_design_.xyz
 41 44 0 0 0
SMALL
GASTEIGER

@<TRIPOS>ATOM
      1 C         -24.8550   -1.0120   30.1430 C.3     1  UNL1        0.0984
      2 C         -24.9730   -2.5050   29.7880 C.2     1  UNL1       -0.0064
      3 C         -23.9060   -3.1730   29.1460 C.2     1  UNL1       -0.0029
      4 C         -23.9890   -4.5490   28.8530 C.2     1  UNL1       -0.0003
      5 C         -25.1370   -5.2800   29.2050 C.2     1  UNL1       -0.0000
      6 C         -26.2320   -4.6110   29.7840 C.2     1  UNL1       -0.0003
      7 C         -26.1550   -3.2320   30.0650 C.2     1  UNL1       -0.0029
      8 C         -25.3870   -0.6790   31.5710 C.3     1  UNL1        0.0916
      9 C         -25.1890    0.7730   32.0280 C.3     1  UNL1        0.0206
     10 C         -25.3360    0.6840   33.5440 C.3     1  UNL1        0.0203
     11 C         -24.8290   -0.7150   33.9050 C.3     1  UNL1        0.0888
     12 N         -24.7580   -1.4810   32.6460 N.3     1  UNL1       -0.2178
     13 C         -25.6880    1.6140   26.4610 C.3     1  UNL1        0.0848
     14 C         -26.2500    2.9200   26.3950 C.2     1  UNL1        0.0557
     15 C         -25.6420    4.0930   27.1230 C.2     1  UNL1        0.2625
     16 N         -25.6140    5.2520   26.4490 N.am    1  UNL1       -0.2000
     17 C         -25.0260    6.4790   26.9630 C.3     1  UNL1        0.1388
     18 O         -25.1430    3.9660   28.2430 O.2     1  UNL1       -0.2687
     19 C         -27.4380    3.0910   25.6450 C.2     1  UNL1        0.1022
     20 N         -28.0750    2.0890   25.0030 N.2     1  UNL1       -0.2119
     21 C         -27.5430    0.8490   25.0790 C.2     1  UNL1        0.2341
     22 O         -28.1930   -0.2080   24.4770 O.2     1  UNL1       -0.4585
     23 C         -29.4600    0.0050   23.8660 C.3     1  UNL1        0.2423
     24 C         -30.0650   -1.3770   23.5730 C.3     1  UNL1        0.2292
     25 O         -30.7290   -1.8780   24.7210 O.3     1  UNL1       -0.2162
     26 C         -26.3540    0.5760   25.7770 C.3     1  UNL1        0.2408
     27 F         -25.8600   -0.6810   25.7950 F       1  UNL1       -0.2269
     28 C         -25.6310    0.7890   28.9745 C.3     1  UNL1        0.2594
     29 F         -20.0947    2.0513   27.7863 F       1  UNL1       -0.1836
     30 C         -24.2742    1.5819   26.6589 C.3     1  UNL1        0.1280
     31 C         -23.0275    0.3705   28.8350 C.3     1  UNL1        0.0845
     32 C         -22.9119    2.2603   25.8411 C.2     1  UNL1        0.3232
     33 O         -21.6573    2.4113   26.1547 O.3     1  UNL1       -0.4167
     34 C         -23.4479    1.2813   27.5360 C.2     1  UNL1       -0.0159
     35 C         -22.0689   -0.3222   29.6108 C.3     1  UNL1        0.0204
     36 O         -23.4068    2.6128   24.7397 O.2     1  UNL1       -0.2497
     37 C         -22.4623    1.1921   27.9774 C.2     1  UNL1        0.0405
     38 C         -21.3412    1.8776   27.3350 C.3     1  UNL1        0.3500
     39 N         -24.4501    0.0763   29.2407 N.3     1  UNL1       -0.2388
     40 O         -26.5077   -0.0315   28.5408 O.3     1  UNL1       -0.2005
     41 C         -20.7371   -0.4720   29.1798 C.3     1  UNL1        0.0018
@<TRIPOS>BOND
     1     1    39    1
     2     2     7    1
     3     2     1    1
     4     3     2    2
     5     4     3    1
     6     4     5    2
     7     5     6    1
     8     6     7    2
     9     8     1    1
    10     8     9    1
    11     8    12    1
    12     9    10    1
    13    10    11    1
    14    12    11    1
    15    13    14    1
    16    13    30    1
    17    14    15    1
    18    15    18    2
    19    16    17    1
    20    16    15    1
    21    19    14    2
    22    20    21    2
    23    20    19    1
    24    21    26    1
    25    22    21    1
    26    23    22    1
    27    24    23    1
    28    24    25    1
    29    26    27    1
    30    26    13    1
    31    28    39    1
    32    30    34    1
    33    31    39    1
    34    31    35    1
    35    32    33    1
    36    32    30    1
    37    33    38    1
    38    34    37    2
    39    36    32    2
    40    37    31    1
    41    38    29    1
    42    38    37    1
    43    40    28    1
    44    41    35    1
