@<TRIPOS>MOLECULE
outputs/IAG933/test6/raw/output_6912_IAG933_linker_design_.xyz
 40 43 0 0 0
SMALL
GASTEIGER

@<TRIPOS>ATOM
      1 C         -24.8550   -1.0120   30.1430 C.3     1  UNL1        0.1532
      2 C         -24.9730   -2.5050   29.7880 C.2     1  UNL1        0.0004
      3 C         -23.9060   -3.1730   29.1460 C.2     1  UNL1       -0.0025
      4 C         -23.9890   -4.5490   28.8530 C.2     1  UNL1       -0.0003
      5 C         -25.1370   -5.2800   29.2050 C.2     1  UNL1       -0.0000
      6 C         -26.2320   -4.6110   29.7840 C.2     1  UNL1       -0.0003
      7 C         -26.1550   -3.2320   30.0650 C.2     1  UNL1       -0.0025
      8 C         -25.3870   -0.6790   31.5710 C.3     1  UNL1        0.0986
      9 C         -25.1890    0.7730   32.0280 C.3     1  UNL1        0.0210
     10 C         -25.3360    0.6840   33.5440 C.3     1  UNL1        0.0203
     11 C         -24.8290   -0.7150   33.9050 C.3     1  UNL1        0.0888
     12 N         -24.7580   -1.4810   32.6460 N.3     1  UNL1       -0.2173
     13 C         -25.6880    1.6140   26.4610 C.2     1  UNL1        0.0245
     14 C         -26.2500    2.9200   26.3950 C.2     1  UNL1        0.0730
     15 C         -25.6420    4.0930   27.1230 C.2     1  UNL1        0.2661
     16 N         -25.6140    5.2520   26.4490 N.am    1  UNL1       -0.1997
     17 C         -25.0260    6.4790   26.9630 C.3     1  UNL1        0.1388
     18 O         -25.1430    3.9660   28.2430 O.2     1  UNL1       -0.2683
     19 C         -27.4380    3.0910   25.6450 C.2     1  UNL1        0.1064
     20 N         -28.0750    2.0890   25.0030 N.2     1  UNL1       -0.2081
     21 C         -27.5430    0.8490   25.0790 C.2     1  UNL1        0.2530
     22 O         -28.1930   -0.2080   24.4770 O.2     1  UNL1       -0.4558
     23 C         -29.4600    0.0050   23.8660 C.3     1  UNL1        0.2426
     24 C         -30.0650   -1.3770   23.5730 C.3     1  UNL1        0.2292
     25 O         -30.7290   -1.8780   24.7210 O.3     1  UNL1       -0.2162
     26 C         -26.3540    0.5760   25.7770 C.2     1  UNL1        0.1896
     27 F         -25.8600   -0.6810   25.7950 F       1  UNL1       -0.1996
     28 C         -22.0711    1.5841   27.7716 C.3     1  UNL1        0.2441
     29 N         -20.8062   -0.1985   28.5423 N.3     1  UNL1        0.0423
     30 O         -22.7730   -0.2175   29.0454 O.3     1  UNL1       -0.3404
     31 N         -24.1139   -0.0791   29.3140 N.am    1  UNL1       -0.1152
     32 C         -24.5033    1.2491   27.0947 C.3     1  UNL1        0.1100
     33 C         -22.4034    1.0818   28.9946 C.2     1  UNL1        0.3686
     34 C         -24.8947    0.2528   28.2607 C.2     1  UNL1        0.2609
     35 C         -23.2110    1.7092   26.7932 C.3     1  UNL1        0.0887
     36 O         -20.7637    0.9703   27.7118 O.3     1  UNL1       -0.2398
     37 O         -25.8094   -0.5528   27.9342 O.2     1  UNL1       -0.2716
     38 O         -22.8376    1.9277   29.9558 O.2     1  UNL1       -0.2452
     39 F         -21.5302    2.3125   25.3388 F       1  UNL1       -0.2342
     40 C         -22.9424    2.3372   25.5261 C.3     1  UNL1        0.1970
@<TRIPOS>BOND
     1     1     2    1
     2     2     7    1
     3     3     2    2
     4     4     3    1
     5     4     5    2
     6     5     6    1
     7     6     7    2
     8     8     1    1
     9     8     9    1
    10     8    12    1
    11     9    10    1
    12    10    11    1
    13    12    11    1
    14    14    13    1
    15    14    15    1
    16    15    18    2
    17    16    17    1
    18    16    15    1
    19    19    14    2
    20    20    21    2
    21    20    19    1
    22    21    26    1
    23    22    21    1
    24    23    22    1
    25    24    23    1
    26    24    25    1
    27    26    27    1
    28    26    13    2
    29    28    36    1
    30    28    33    1
    31    30    31    1
    32    31     1    1
    33    32    13    1
    34    32    34    1
    35    33    30    1
    36    33    38    2
    37    34    31   am
    38    35    40    1
    39    35    32    1
    40    35    28    1
    41    36    29    1
    42    37    34    2
    43    39    40    1
