@<TRIPOS>MOLECULE
outputs/IAG933/test6/raw/output_6916_IAG933_linker_design_.xyz
 41 45 0 0 0
SMALL
GASTEIGER

@<TRIPOS>ATOM
      1 C         -24.8550   -1.0120   30.1430 C.3     1  UNL1        0.0400
      2 C         -24.9730   -2.5050   29.7880 C.2     1  UNL1       -0.0211
      3 C         -23.9060   -3.1730   29.1460 C.2     1  UNL1       -0.0042
      4 C         -23.9890   -4.5490   28.8530 C.2     1  UNL1       -0.0003
      5 C         -25.1370   -5.2800   29.2050 C.2     1  UNL1       -0.0000
      6 C         -26.2320   -4.6110   29.7840 C.2     1  UNL1       -0.0003
      7 C         -26.1550   -3.2320   30.0650 C.2     1  UNL1       -0.0042
      8 C         -25.3870   -0.6790   31.5710 C.3     1  UNL1        0.0769
      9 C         -25.1890    0.7730   32.0280 C.3     1  UNL1        0.0203
     10 C         -25.3360    0.6840   33.5440 C.3     1  UNL1        0.0203
     11 C         -24.8290   -0.7150   33.9050 C.3     1  UNL1        0.0887
     12 N         -24.7580   -1.4810   32.6460 N.3     1  UNL1       -0.2191
     13 C         -25.6880    1.6140   26.4610 C.2     1  UNL1        0.0921
     14 C         -26.2500    2.9200   26.3950 C.2     1  UNL1        0.0902
     15 C         -25.6420    4.0930   27.1230 C.2     1  UNL1        0.2676
     16 N         -25.6140    5.2520   26.4490 N.am    1  UNL1       -0.1997
     17 C         -25.0260    6.4790   26.9630 C.3     1  UNL1        0.1388
     18 O         -25.1430    3.9660   28.2430 O.2     1  UNL1       -0.2683
     19 C         -27.4380    3.0910   25.6450 C.2     1  UNL1        0.1080
     20 N         -28.0750    2.0890   25.0030 N.2     1  UNL1       -0.2080
     21 C         -27.5430    0.8490   25.0790 C.2     1  UNL1        0.2546
     22 O         -28.1930   -0.2080   24.4770 O.2     1  UNL1       -0.4558
     23 C         -29.4600    0.0050   23.8660 C.3     1  UNL1        0.2426
     24 C         -30.0650   -1.3770   23.5730 C.3     1  UNL1        0.2292
     25 O         -30.7290   -1.8780   24.7210 O.3     1  UNL1       -0.2162
     26 C         -26.3540    0.5760   25.7770 C.2     1  UNL1        0.2066
     27 F         -25.8600   -0.6810   25.7950 F       1  UNL1       -0.1979
     28 F         -20.3035    1.5093   28.1132 F       1  UNL1       -0.0465
     29 C         -23.4278    1.8013   26.7570 C.2     1  UNL1        0.2601
     30 C         -25.3334    2.2904   31.5306 C.3     1  UNL1        0.0344
     31 C         -24.3280    1.4959   29.2403 C.3     1  UNL1        0.0051
     32 N         -24.6236    1.2037   26.9423 N.am    1  UNL1       -0.2543
     33 C         -22.4859    1.4194   27.7618 C.3     1  UNL1        0.2332
     34 C         -25.7018    3.9915   31.5082 C.3     1  UNL1        0.1821
     35 C         -25.1718    0.1379   29.0134 C.3     1  UNL1        0.0257
     36 O         -24.7183    4.6247   32.3727 O.3     1  UNL1       -0.2204
     37 C         -24.6410   -0.1017   27.4859 C.3     1  UNL1        0.0987
     38 O         -23.1121    2.5653   25.7524 O.2     1  UNL1       -0.2718
     39 O         -21.2806    1.3267   27.3323 O.3     1  UNL1       -0.1727
     40 C         -22.8405    1.1693   29.0996 C.3     1  UNL1        0.0428
     41 C         -24.6155    2.4326   30.3066 C.3     1  UNL1        0.0028
@<TRIPOS>BOND
     1     1     2    1
     2     1     8    1
     3     2     7    1
     4     3     2    2
     5     4     3    1
     6     4     5    2
     7     5     6    1
     8     6     7    2
     9     8     9    1
    10     8    12    1
    11     9    10    1
    12    10    11    1
    13    12    11    1
    14    13    32    1
    15    14    13    1
    16    14    15    1
    17    15    18    2
    18    16    17    1
    19    16    15    1
    20    19    14    2
    21    20    21    2
    22    20    19    1
    23    21    26    1
    24    22    21    1
    25    23    22    1
    26    24    23    1
    27    24    25    1
    28    26    27    1
    29    26    13    2
    30    29    32   am
    31    29    33    1
    32    30    34    1
    33    30     9    1
    34    31    40    1
    35    31    41    1
    36    32    37    1
    37    33    39    1
    38    33    40    1
    39    34    36    1
    40    35    37    1
    41    35    31    1
    42    35     1    1
    43    38    29    2
    44    39    28    1
    45    41    30    1
