@<TRIPOS>MOLECULE
outputs/IAG933/test6/raw/output_6921_IAG933_linker_design_.xyz
 44 46 0 0 0
SMALL
GASTEIGER

@<TRIPOS>ATOM
      1 C         -24.8550   -1.0120   30.1430 C.3     1  UNL1        0.0548
      2 C         -24.9730   -2.5050   29.7880 C.2     1  UNL1       -0.0198
      3 C         -23.9060   -3.1730   29.1460 C.2     1  UNL1       -0.0042
      4 C         -23.9890   -4.5490   28.8530 C.2     1  UNL1       -0.0003
      5 C         -25.1370   -5.2800   29.2050 C.2     1  UNL1       -0.0000
      6 C         -26.2320   -4.6110   29.7840 C.2     1  UNL1       -0.0003
      7 C         -26.1550   -3.2320   30.0650 C.2     1  UNL1       -0.0042
      8 C         -25.3870   -0.6790   31.5710 C.3     1  UNL1        0.0782
      9 C         -25.1890    0.7730   32.0280 C.3     1  UNL1        0.0192
     10 C         -25.3360    0.6840   33.5440 C.3     1  UNL1        0.0202
     11 C         -24.8290   -0.7150   33.9050 C.3     1  UNL1        0.0887
     12 N         -24.7580   -1.4810   32.6460 N.3     1  UNL1       -0.2191
     13 C         -25.6880    1.6140   26.4610 C.3     1  UNL1        0.0878
     14 C         -26.2500    2.9200   26.3950 C.2     1  UNL1        0.0562
     15 C         -25.6420    4.0930   27.1230 C.2     1  UNL1        0.2625
     16 N         -25.6140    5.2520   26.4490 N.am    1  UNL1       -0.2000
     17 C         -25.0260    6.4790   26.9630 C.3     1  UNL1        0.1388
     18 O         -25.1430    3.9660   28.2430 O.2     1  UNL1       -0.2687
     19 C         -27.4380    3.0910   25.6450 C.2     1  UNL1        0.1022
     20 N         -28.0750    2.0890   25.0030 N.2     1  UNL1       -0.2119
     21 C         -27.5430    0.8490   25.0790 C.2     1  UNL1        0.2341
     22 O         -28.1930   -0.2080   24.4770 O.2     1  UNL1       -0.4585
     23 C         -29.4600    0.0050   23.8660 C.3     1  UNL1        0.2423
     24 C         -30.0650   -1.3770   23.5730 C.3     1  UNL1        0.2292
     25 O         -30.7290   -1.8780   24.7210 O.3     1  UNL1       -0.2162
     26 C         -26.3540    0.5760   25.7770 C.3     1  UNL1        0.2414
     27 F         -25.8600   -0.6810   25.7950 F       1  UNL1       -0.2268
     28 C         -22.5552    0.7541   28.0495 C.2     1  UNL1        0.1672
     29 O         -30.9542   -1.6568   27.4333 O.3     1  UNL1       -0.2226
     30 O         -22.8224   -0.1187   28.9300 O.2     1  UNL1       -0.2947
     31 C         -31.0342   -0.8638   28.6171 C.3     1  UNL1        0.1614
     32 O         -29.0960   -1.3928   29.9590 O.3     1  UNL1       -0.2125
     33 C         -26.0122   -0.2147   29.3687 C.3     1  UNL1        0.0855
     34 N         -25.2844    0.9090   28.8157 N.3     1  UNL1       -0.2179
     35 O         -29.2793    1.9495   28.7797 O.2     1  UNL1       -0.2933
     36 C         -32.0064    0.3297   28.2562 C.3     1  UNL1        0.0360
     37 CL        -22.8745    2.1185   25.7289 Cl      1  UNL1       -0.1055
     38 C         -23.5217    1.4633   27.2166 C.3     1  UNL1        0.1532
     39 C         -21.1057    1.3327   27.8783 C.3     1  UNL1        0.0736
     40 C         -27.3957    0.6587   29.5839 C.3     1  UNL1        0.0850
     41 C         -28.8297    0.8445   28.9632 C.2     1  UNL1        0.1846
     42 C         -29.5834   -0.5338   28.9197 C.3     1  UNL1        0.2362
     43 C         -24.7854    1.2785   27.5197 C.3     1  UNL1        0.1021
     44 C         -31.6575   -1.5004   29.8811 C.3     1  UNL1        0.0360
@<TRIPOS>BOND
     1     1    33    1
     2     2     7    1
     3     2     1    1
     4     3     2    2
     5     4     3    1
     6     4     5    2
     7     5     6    1
     8     6     7    2
     9     8     1    1
    10     8     9    1
    11     8    12    1
    12     9    10    1
    13    10    11    1
    14    12    11    1
    15    13    43    1
    16    14    13    1
    17    14    15    1
    18    15    18    2
    19    16    17    1
    20    16    15    1
    21    19    14    2
    22    20    21    2
    23    20    19    1
    24    21    26    1
    25    22    21    1
    26    23    22    1
    27    24    23    1
    28    24    25    1
    29    26    27    1
    30    26    13    1
    31    28    30    2
    32    29    31    1
    33    31    42    1
    34    31    44    1
    35    33    40    1
    36    34    33    1
    37    35    41    2
    38    36    31    1
    39    38    37    1
    40    38    43    1
    41    38    28    1
    42    39    28    1
    43    41    40    1
    44    42    41    1
    45    42    32    1
    46    43    34    1
