@<TRIPOS>MOLECULE
outputs/IAG933/test6/raw/output_6931_IAG933_linker_design_.xyz
 46 50 0 0 0
SMALL
GASTEIGER

@<TRIPOS>ATOM
      1 C         -24.8550   -1.0120   30.1430 C.3     1  UNL1        0.0458
      2 C         -24.9730   -2.5050   29.7880 C.2     1  UNL1       -0.0207
      3 C         -23.9060   -3.1730   29.1460 C.2     1  UNL1       -0.0042
      4 C         -23.9890   -4.5490   28.8530 C.2     1  UNL1       -0.0003
      5 C         -25.1370   -5.2800   29.2050 C.2     1  UNL1       -0.0000
      6 C         -26.2320   -4.6110   29.7840 C.2     1  UNL1       -0.0003
      7 C         -26.1550   -3.2320   30.0650 C.2     1  UNL1       -0.0042
      8 C         -25.3870   -0.6790   31.5710 C.3     1  UNL1        0.0772
      9 C         -25.1890    0.7730   32.0280 C.3     1  UNL1        0.0192
     10 C         -25.3360    0.6840   33.5440 C.3     1  UNL1        0.0202
     11 C         -24.8290   -0.7150   33.9050 C.3     1  UNL1        0.0887
     12 N         -24.7580   -1.4810   32.6460 N.3     1  UNL1       -0.2191
     13 C         -25.6880    1.6140   26.4610 C.2     1  UNL1        0.1037
     14 C         -26.2500    2.9200   26.3950 C.2     1  UNL1        0.0927
     15 C         -25.6420    4.0930   27.1230 C.2     1  UNL1        0.2678
     16 N         -25.6140    5.2520   26.4490 N.am    1  UNL1       -0.1997
     17 C         -25.0260    6.4790   26.9630 C.3     1  UNL1        0.1388
     18 O         -25.1430    3.9660   28.2430 O.2     1  UNL1       -0.2683
     19 C         -27.4380    3.0910   25.6450 C.2     1  UNL1        0.1082
     20 N         -28.0750    2.0890   25.0030 N.2     1  UNL1       -0.2080
     21 C         -27.5430    0.8490   25.0790 C.2     1  UNL1        0.2548
     22 O         -28.1930   -0.2080   24.4770 O.2     1  UNL1       -0.4558
     23 C         -29.4600    0.0050   23.8660 C.3     1  UNL1        0.2426
     24 C         -30.0650   -1.3770   23.5730 C.3     1  UNL1        0.2292
     25 O         -30.7290   -1.8780   24.7210 O.3     1  UNL1       -0.2162
     26 C         -26.3540    0.5760   25.7770 C.2     1  UNL1        0.2091
     27 F         -25.8600   -0.6810   25.7950 F       1  UNL1       -0.1977
     28 N         -22.2291    2.6288   24.8072 N.1     1  UNL1       -0.1892
     29 O         -28.2897    2.5036   28.5697 O.2     1  UNL1       -0.2957
     30 C         -22.5473    1.3651   27.9146 C.ar    1  UNL1        0.1970
     31 C         -26.1761    3.6190   31.3766 C.2     1  UNL1       -0.0038
     32 N         -24.5539    1.2742   27.2444 N.ar    1  UNL1       -0.2819
     33 N         -21.2395    1.6740   28.1378 N.pl3   1  UNL1       -0.1048
     34 C         -22.7801    2.2785   25.7725 C.1     1  UNL1        0.1213
     35 C         -28.4149    2.6312   30.9184 C.3     1  UNL1        0.0908
     36 N         -23.2655    0.6529   28.8282 N.ar    1  UNL1       -0.2121
     37 C         -27.3214    0.3255   29.1362 C.3     1  UNL1        0.0727
     38 C         -25.7625   -0.3091   28.9955 C.3     1  UNL1        0.0700
     39 C         -28.0916    1.9173   29.5418 C.2     1  UNL1        0.1555
     40 C         -28.0123    5.1838   31.2647 C.2     1  UNL1       -0.0038
     41 C         -27.5353    3.8548   31.2049 C.2     1  UNL1       -0.0148
     42 C         -24.6391    0.5747   28.4388 C.ar    1  UNL1        0.1267
     43 C         -27.1270    6.2285   31.5658 C.2     1  UNL1       -0.0003
     44 C         -25.3034    4.6483   31.7395 C.2     1  UNL1       -0.0003
     45 C         -23.2733    1.6954   26.8716 C.ar    1  UNL1        0.1695
     46 C         -25.7724    5.9571   31.8065 C.2     1  UNL1       -0.0000
@<TRIPOS>BOND
     1     1    38    1
     2     2     7    1
     3     2     1    1
     4     3     2    2
     5     4     3    1
     6     4     5    2
     7     5     6    1
     8     6     7    2
     9     8     1    1
    10     8     9    1
    11     8    12    1
    12     9    10    1
    13    10    11    1
    14    12    11    1
    15    13    32    1
    16    14    13    1
    17    14    15    1
    18    15    18    2
    19    16    17    1
    20    16    15    1
    21    19    14    2
    22    20    21    2
    23    20    19    1
    24    21    26    1
    25    22    21    1
    26    23    22    1
    27    24    23    1
    28    24    25    1
    29    26    27    1
    30    26    13    2
    31    28    34    3
    32    29    39    2
    33    30    33    1
    34    30    36   ar
    35    31    44    1
    36    32    42   ar
    37    34    45    1
    38    35    41    1
    39    37    39    1
    40    38    37    1
    41    39    35    1
    42    40    43    2
    43    41    40    1
    44    41    31    2
    45    42    36   ar
    46    42    38    1
    47    43    46    1
    48    44    46    2
    49    45    32   ar
    50    45    30   ar
