@<TRIPOS>MOLECULE
outputs/IAG933/test6/raw/output_6932_IAG933_linker_design_.xyz
 47 49 0 0 0
SMALL
GASTEIGER

@<TRIPOS>ATOM
      1 C         -24.8550   -1.0120   30.1430 C.3     1  UNL1        0.1126
      2 C         -24.9730   -2.5050   29.7880 C.2     1  UNL1       -0.0051
      3 C         -23.9060   -3.1730   29.1460 C.2     1  UNL1       -0.0029
      4 C         -23.9890   -4.5490   28.8530 C.2     1  UNL1       -0.0003
      5 C         -25.1370   -5.2800   29.2050 C.2     1  UNL1       -0.0000
      6 C         -26.2320   -4.6110   29.7840 C.2     1  UNL1       -0.0003
      7 C         -26.1550   -3.2320   30.0650 C.2     1  UNL1       -0.0029
      8 C         -25.3870   -0.6790   31.5710 C.3     1  UNL1        0.0929
      9 C         -25.1890    0.7730   32.0280 C.3     1  UNL1        0.0206
     10 C         -25.3360    0.6840   33.5440 C.3     1  UNL1        0.0203
     11 C         -24.8290   -0.7150   33.9050 C.3     1  UNL1        0.0888
     12 N         -24.7580   -1.4810   32.6460 N.3     1  UNL1       -0.2177
     13 C         -25.6880    1.6140   26.4610 C.3     1  UNL1        0.0881
     14 C         -26.2500    2.9200   26.3950 C.2     1  UNL1        0.0562
     15 C         -25.6420    4.0930   27.1230 C.2     1  UNL1        0.2625
     16 N         -25.6140    5.2520   26.4490 N.am    1  UNL1       -0.2000
     17 C         -25.0260    6.4790   26.9630 C.3     1  UNL1        0.1388
     18 O         -25.1430    3.9660   28.2430 O.2     1  UNL1       -0.2687
     19 C         -27.4380    3.0910   25.6450 C.2     1  UNL1        0.1022
     20 N         -28.0750    2.0890   25.0030 N.2     1  UNL1       -0.2119
     21 C         -27.5430    0.8490   25.0790 C.2     1  UNL1        0.2341
     22 O         -28.1930   -0.2080   24.4770 O.2     1  UNL1       -0.4585
     23 C         -29.4600    0.0050   23.8660 C.3     1  UNL1        0.2423
     24 C         -30.0650   -1.3770   23.5730 C.3     1  UNL1        0.2292
     25 O         -30.7290   -1.8780   24.7210 O.3     1  UNL1       -0.2162
     26 C         -26.3540    0.5760   25.7770 C.3     1  UNL1        0.2414
     27 F         -25.8600   -0.6810   25.7950 F       1  UNL1       -0.2268
     28 C         -32.5142    0.2471   28.0535 C.3     1  UNL1        0.0000
     29 C         -28.9919    1.1970   29.4337 C.3     1  UNL1        0.1810
     30 O         -28.4660    2.9769   30.8667 O.co2   1  UNL1       -0.2451
     31 C         -25.5514    0.8187   28.7439 C.3     1  UNL1        0.1832
     32 C         -29.3268    2.1719   30.5112 C.2     1  UNL1        0.3731
     33 N         -26.6738    1.2159   29.3069 N.am    1  UNL1       -0.1873
     34 O         -30.4921    2.1533   30.9518 O.co2   1  UNL1       -0.2451
     35 CL        -22.7383    2.4837   25.2584 Cl      1  UNL1       -0.0591
     36 N         -24.9672   -0.1758   29.1144 N.3     1  UNL1       -0.1930
     37 C         -22.8202    1.2822   28.8588 C.3     1  UNL1        0.2620
     38 C         -30.1144   -0.1412   27.5405 C.3     1  UNL1        0.0011
     39 O         -27.7816   -0.8017   29.2561 O.2     1  UNL1       -0.2727
     40 C         -22.5936    1.9291   26.7789 C.3     1  UNL1        0.3054
     41 C         -31.4727   -0.7988   27.7864 C.3     1  UNL1        0.0000
     42 C         -29.7982    1.0253   28.3509 C.3     1  UNL1        0.0206
     43 N         -23.4855    1.3413   27.5400 N.3     1  UNL1       -0.2024
     44 F         -21.4732    1.4603   27.4584 F       1  UNL1       -0.2002
     45 O         -22.3080   -0.0175   29.2827 O.3     1  UNL1       -0.2004
     46 C         -27.7441    0.3913   29.4166 C.2     1  UNL1        0.2531
     47 C         -24.8221    1.3047   27.5427 C.3     1  UNL1        0.1072
@<TRIPOS>BOND
     1     1    36    1
     2     2     7    1
     3     2     1    1
     4     3     2    2
     5     4     3    1
     6     4     5    2
     7     5     6    1
     8     6     7    2
     9     8     1    1
    10     8     9    1
    11     8    12    1
    12     9    10    1
    13    10    11    1
    14    12    11    1
    15    13    47    1
    16    14    13    1
    17    14    15    1
    18    15    18    2
    19    16    17    1
    20    16    15    1
    21    19    14    2
    22    20    21    2
    23    20    19    1
    24    21    26    1
    25    22    21    1
    26    23    22    1
    27    24    23    1
    28    24    25    1
    29    26    27    1
    30    26    13    1
    31    29    42    1
    32    29    32    1
    33    31    36    1
    34    31    33    1
    35    32    30   ar
    36    32    34   ar
    37    33    46    1
    38    37    45    1
    39    38    41    1
    40    38    42    1
    41    39    46    2
    42    40    35    1
    43    40    44    1
    44    40    43    1
    45    41    28    1
    46    43    37    1
    47    46    29    1
    48    47    43    1
    49    47    31    1
