@<TRIPOS>MOLECULE
outputs/IAG933/test6/raw/output_6935_IAG933_linker_design_.xyz
 43 46 0 0 0
SMALL
GASTEIGER

@<TRIPOS>ATOM
      1 C         -24.8550   -1.0120   30.1430 C.3     1  UNL1        0.1116
      2 C         -24.9730   -2.5050   29.7880 C.2     1  UNL1       -0.0131
      3 C         -23.9060   -3.1730   29.1460 C.2     1  UNL1       -0.0038
      4 C         -23.9890   -4.5490   28.8530 C.2     1  UNL1       -0.0003
      5 C         -25.1370   -5.2800   29.2050 C.2     1  UNL1       -0.0000
      6 C         -26.2320   -4.6110   29.7840 C.2     1  UNL1       -0.0003
      7 C         -26.1550   -3.2320   30.0650 C.2     1  UNL1       -0.0038
      8 C         -25.3870   -0.6790   31.5710 C.3     1  UNL1        0.0849
      9 C         -25.1890    0.7730   32.0280 C.3     1  UNL1        0.0197
     10 C         -25.3360    0.6840   33.5440 C.3     1  UNL1        0.0203
     11 C         -24.8290   -0.7150   33.9050 C.3     1  UNL1        0.0887
     12 N         -24.7580   -1.4810   32.6460 N.3     1  UNL1       -0.2187
     13 C         -25.6880    1.6140   26.4610 C.3     1  UNL1        0.2315
     14 C         -26.2500    2.9200   26.3950 C.2     1  UNL1        0.0973
     15 C         -25.6420    4.0930   27.1230 C.2     1  UNL1        0.2662
     16 N         -25.6140    5.2520   26.4490 N.am    1  UNL1       -0.1999
     17 C         -25.0260    6.4790   26.9630 C.3     1  UNL1        0.1388
     18 O         -25.1430    3.9660   28.2430 O.2     1  UNL1       -0.2685
     19 C         -27.4380    3.0910   25.6450 C.2     1  UNL1        0.1060
     20 N         -28.0750    2.0890   25.0030 N.2     1  UNL1       -0.2116
     21 C         -27.5430    0.8490   25.0790 C.2     1  UNL1        0.2384
     22 O         -28.1930   -0.2080   24.4770 O.2     1  UNL1       -0.4584
     23 C         -29.4600    0.0050   23.8660 C.3     1  UNL1        0.2423
     24 C         -30.0650   -1.3770   23.5730 C.3     1  UNL1        0.2292
     25 O         -30.7290   -1.8780   24.7210 O.3     1  UNL1       -0.2162
     26 C         -26.3540    0.5760   25.7770 C.3     1  UNL1        0.2824
     27 F         -25.8600   -0.6810   25.7950 F       1  UNL1       -0.2225
     28 C         -29.0805    4.4459   29.7528 C.3     1  UNL1        0.1562
     29 C         -27.9729    2.1985   30.1294 C.3     1  UNL1        0.2132
     30 N         -21.3553    1.3876   28.3011 N.pl3   1  UNL1        0.2171
     31 C         -29.1933    2.9220   29.5188 C.3     1  UNL1        0.0842
     32 C         -27.7051    4.9394   30.2902 C.3     1  UNL1        0.0356
     33 C         -23.4515    1.4536   27.3532 C.3     1  UNL1        0.3562
     34 CL        -22.6798    2.3726   26.0701 Cl      1  UNL1       -0.0522
     35 N         -27.1668    1.3782   29.1663 N.am    1  UNL1       -0.1331
     36 C         -24.6594    0.0801   29.2018 C.2     1  UNL1        0.2514
     37 O         -28.0568   -0.8377   28.5015 O.2     1  UNL1       -0.2338
     38 C         -25.5481    1.0118   28.6137 C.2     1  UNL1        0.3191
     39 O         -29.3465    5.1902   28.6224 O.3     1  UNL1       -0.2230
     40 N         -23.1859    0.2262   29.0725 N.2     1  UNL1       -0.0287
     41 N         -24.8331    1.3762   27.4858 N.pl3   1  UNL1       -0.1686
     42 C         -28.0089    0.3784   28.5228 C.2     1  UNL1        0.4153
     43 C         -22.6336    1.0263   28.2920 C.2     1  UNL1        0.4509
@<TRIPOS>BOND
     1     1    36    1
     2     2     7    1
     3     2     1    1
     4     3     2    2
     5     4     3    1
     6     4     5    2
     7     5     6    1
     8     6     7    2
     9     8     1    1
    10     8     9    1
    11     8    12    1
    12     9    10    1
    13    10    11    1
    14    12    11    1
    15    13    41    1
    16    14    13    1
    17    14    15    1
    18    15    18    2
    19    16    17    1
    20    16    15    1
    21    19    14    2
    22    20    21    2
    23    20    19    1
    24    21    26    1
    25    22    21    1
    26    23    22    1
    27    24    23    1
    28    24    25    1
    29    26    27    1
    30    26    13    1
    31    28    32    1
    32    31    28    1
    33    31    29    1
    34    33    34    1
    35    33    41    1
    36    33    43    1
    37    35    29    1
    38    37    42    2
    39    38    35    1
    40    38    36    2
    41    39    28    1
    42    40    36    1
    43    41    38    1
    44    42    35   am
    45    43    30    1
    46    43    40    2
