@<TRIPOS>MOLECULE
outputs/IAG933/test6/raw/output_6939_IAG933_linker_design_.xyz
 45 48 0 0 0
SMALL
GASTEIGER

@<TRIPOS>ATOM
      1 C         -24.8550   -1.0120   30.1430 C.3     1  UNL1        0.0439
      2 C         -24.9730   -2.5050   29.7880 C.2     1  UNL1       -0.0208
      3 C         -23.9060   -3.1730   29.1460 C.2     1  UNL1       -0.0042
      4 C         -23.9890   -4.5490   28.8530 C.2     1  UNL1       -0.0003
      5 C         -25.1370   -5.2800   29.2050 C.2     1  UNL1       -0.0000
      6 C         -26.2320   -4.6110   29.7840 C.2     1  UNL1       -0.0003
      7 C         -26.1550   -3.2320   30.0650 C.2     1  UNL1       -0.0042
      8 C         -25.3870   -0.6790   31.5710 C.3     1  UNL1        0.0837
      9 C         -25.1890    0.7730   32.0280 C.3     1  UNL1        0.0948
     10 C         -25.3360    0.6840   33.5440 C.3     1  UNL1        0.0271
     11 C         -24.8290   -0.7150   33.9050 C.3     1  UNL1        0.0889
     12 N         -24.7580   -1.4810   32.6460 N.3     1  UNL1       -0.2189
     13 C         -25.6880    1.6140   26.4610 C.2     1  UNL1        0.0926
     14 C         -26.2500    2.9200   26.3950 C.2     1  UNL1        0.0902
     15 C         -25.6420    4.0930   27.1230 C.2     1  UNL1        0.2676
     16 N         -25.6140    5.2520   26.4490 N.am    1  UNL1       -0.1997
     17 C         -25.0260    6.4790   26.9630 C.3     1  UNL1        0.1388
     18 O         -25.1430    3.9660   28.2430 O.2     1  UNL1       -0.2683
     19 C         -27.4380    3.0910   25.6450 C.2     1  UNL1        0.1080
     20 N         -28.0750    2.0890   25.0030 N.2     1  UNL1       -0.2080
     21 C         -27.5430    0.8490   25.0790 C.2     1  UNL1        0.2546
     22 O         -28.1930   -0.2080   24.4770 O.2     1  UNL1       -0.4558
     23 C         -29.4600    0.0050   23.8660 C.3     1  UNL1        0.2426
     24 C         -30.0650   -1.3770   23.5730 C.3     1  UNL1        0.2292
     25 O         -30.7290   -1.8780   24.7210 O.3     1  UNL1       -0.2162
     26 C         -26.3540    0.5760   25.7770 C.2     1  UNL1        0.2066
     27 F         -25.8600   -0.6810   25.7950 F       1  UNL1       -0.1979
     28 C         -26.8548    4.2149   32.1765 C.2     1  UNL1        0.0010
     29 C         -25.6034    5.9338   34.0496 C.3     1  UNL1        0.0405
     30 C         -27.4323    5.6263   32.6003 C.2     1  UNL1       -0.0281
     31 C         -23.4094    2.0027   26.4193 C.2     1  UNL1        0.2660
     32 C         -23.8859    1.1499   29.2996 C.2     1  UNL1        0.4123
     33 C         -24.2530    0.3787   28.0094 C.3     1  UNL1        0.2248
     34 C         -25.6167    3.8767   32.6257 C.3     1  UNL1        0.1712
     35 N         -22.7238    0.9673   29.7640 N.2     1  UNL1        0.1938
     36 F         -21.1484    2.0793   25.8451 F       1  UNL1       -0.2238
     37 C         -25.3202    2.0578   31.1255 C.3     1  UNL1        0.3257
     38 O         -24.8009    3.3882   31.5281 O.3     1  UNL1       -0.3111
     39 O         -23.5120    3.0088   25.6032 O.2     1  UNL1       -0.2715
     40 O         -24.5078    5.8651   32.0747 O.3     1  UNL1       -0.2202
     41 N         -24.4846    1.3880   26.9494 N.am    1  UNL1       -0.2423
     42 C         -22.0254    1.7801   26.8913 C.3     1  UNL1        0.2779
     43 N         -24.8748    1.7842   29.7957 N.pl3   1  UNL1       -0.0022
     44 C         -26.4964    6.5866   33.3163 C.3     1  UNL1        0.0285
     45 C         -24.8607    5.0318   33.1788 C.3     1  UNL1        0.1836
@<TRIPOS>BOND
     1     2     7    1
     2     2     1    1
     3     3     2    2
     4     4     3    1
     5     4     5    2
     6     5     6    1
     7     6     7    2
     8     8     1    1
     9     8     9    1
    10     8    12    1
    11     9    37    1
    12     9    10    1
    13    10    11    1
    14    12    11    1
    15    13    41    1
    16    14    13    1
    17    14    15    1
    18    15    18    2
    19    16    17    1
    20    16    15    1
    21    19    14    2
    22    20    21    2
    23    20    19    1
    24    21    26    1
    25    22    21    1
    26    23    22    1
    27    24    23    1
    28    24    25    1
    29    26    27    1
    30    26    13    2
    31    28    30    2
    32    28    34    1
    33    30    44    1
    34    31    42    1
    35    31    41   am
    36    32    35    2
    37    32    43    1
    38    33    32    1
    39    34    38    1
    40    34    45    1
    41    36    42    1
    42    37    43    1
    43    37    38    1
    44    39    31    2
    45    41    33    1
    46    44    29    1
    47    45    40    1
    48    45    29    1
