@<TRIPOS>MOLECULE
No_694-gen_results/8p0m/2024-11-27-11-27-31/
 19 21 0 0 0
SMALL
GASTEIGER

@<TRIPOS>ATOM
      1 C         -28.0162   -0.8135   28.8779 C.ar    1  UNL1        0.0069
      2 C         -27.0636   -0.1190   28.6079 C.ar    1  UNL1        0.0066
      3 C         -25.7647   -0.3897   29.0360 C.ar    1  UNL1        0.0002
      4 C         -24.5516    0.4058   28.7646 C.ar    1  UNL1       -0.0003
      5 C         -24.6957    1.4480   27.7988 C.ar    1  UNL1       -0.0037
      6 C         -25.9755    1.7250   27.3077 C.ar    1  UNL1       -0.0155
      7 C         -27.0718    1.0134   27.6535 C.ar    1  UNL1        0.0758
      8 C         -27.9653   -1.6216   30.1356 C.ar    1  UNL1        0.0346
      9 BR        -29.4098   -2.5588   30.6620 Br      1  UNL1       -0.0490
     10 C         -23.4841    2.1974   27.4867 C.ar    1  UNL1       -0.0003
     11 C         -22.3162    1.6846   27.3675 C.ar    1  UNL1       -0.0000
     12 C         -21.8853    0.6832   28.3534 C.ar    1  UNL1       -0.0000
     13 C         -23.1845   -0.1382   29.0321 C.ar    1  UNL1       -0.0000
     14 C         -26.7015   -2.5004   30.1508 C.ar    1  UNL1        0.0067
     15 C         -25.4750   -1.6057   29.9834 C.ar    1  UNL1        0.0005
     16 C         -28.3763    1.3967   27.0929 C.2     1  UNL1        0.3874
     17 C         -26.0914    2.9304   26.4613 C.3     1  UNL1        0.0312
     18 O         -29.1629    0.7438   26.8292 O.co2   1  UNL1       -0.2406
     19 O         -28.7521    2.6463   27.0106 O.co2   1  UNL1       -0.2406
@<TRIPOS>BOND
     1     8     9    1
     2     7    16    1
     3     6    17    1
     4    16    18   ar
     5    16    19   ar
     6     3     4   ar
     7     5     6   ar
     8     6     7   ar
     9     7     2   ar
    10     4     5   ar
    11     5    10   ar
    12    10    11   ar
    13    11    12   ar
    14    12    13   ar
    15    13     4   ar
    16     1     2   ar
    17     2     3   ar
    18     3    15   ar
    19    15    14   ar
    20    14     8   ar
    21     8     1   ar
