@<TRIPOS>MOLECULE
outputs/IAG933/test6/raw/output_6946_IAG933_linker_design_.xyz
 44 48 0 0 0
SMALL
GASTEIGER

@<TRIPOS>ATOM
      1 C         -24.8550   -1.0120   30.1430 C.3     1  UNL1        0.0893
      2 C         -24.9730   -2.5050   29.7880 C.2     1  UNL1       -0.0168
      3 C         -23.9060   -3.1730   29.1460 C.2     1  UNL1       -0.0041
      4 C         -23.9890   -4.5490   28.8530 C.2     1  UNL1       -0.0003
      5 C         -25.1370   -5.2800   29.2050 C.2     1  UNL1       -0.0000
      6 C         -26.2320   -4.6110   29.7840 C.2     1  UNL1       -0.0003
      7 C         -26.1550   -3.2320   30.0650 C.2     1  UNL1       -0.0041
      8 C         -25.3870   -0.6790   31.5710 C.3     1  UNL1        0.0812
      9 C         -25.1890    0.7730   32.0280 C.3     1  UNL1        0.0193
     10 C         -25.3360    0.6840   33.5440 C.3     1  UNL1        0.0202
     11 C         -24.8290   -0.7150   33.9050 C.3     1  UNL1        0.0887
     12 N         -24.7580   -1.4810   32.6460 N.3     1  UNL1       -0.2190
     13 C         -25.6880    1.6140   26.4610 C.2     1  UNL1        0.0220
     14 C         -26.2500    2.9200   26.3950 C.2     1  UNL1        0.0729
     15 C         -25.6420    4.0930   27.1230 C.2     1  UNL1        0.2661
     16 N         -25.6140    5.2520   26.4490 N.am    1  UNL1       -0.1997
     17 C         -25.0260    6.4790   26.9630 C.3     1  UNL1        0.1388
     18 O         -25.1430    3.9660   28.2430 O.2     1  UNL1       -0.2683
     19 C         -27.4380    3.0910   25.6450 C.2     1  UNL1        0.1064
     20 N         -28.0750    2.0890   25.0030 N.2     1  UNL1       -0.2081
     21 C         -27.5430    0.8490   25.0790 C.2     1  UNL1        0.2530
     22 O         -28.1930   -0.2080   24.4770 O.2     1  UNL1       -0.4558
     23 C         -29.4600    0.0050   23.8660 C.3     1  UNL1        0.2426
     24 C         -30.0650   -1.3770   23.5730 C.3     1  UNL1        0.2292
     25 O         -30.7290   -1.8780   24.7210 O.3     1  UNL1       -0.2162
     26 C         -26.3540    0.5760   25.7770 C.2     1  UNL1        0.1895
     27 F         -25.8600   -0.6810   25.7950 F       1  UNL1       -0.1996
     28 C         -22.7980    0.2910   28.3360 C.2     1  UNL1        0.1751
     29 C         -25.0957    0.0743   29.1372 C.3     1  UNL1        0.2309
     30 C         -24.1533    0.4530   28.1056 C.2     1  UNL1        0.0369
     31 C         -29.4206   -0.0440   28.4563 C.2     1  UNL1        0.2537
     32 F         -20.8018    1.0527   27.9647 F       1  UNL1       -0.1962
     33 F         -22.2991   -0.3999   29.3603 F       1  UNL1       -0.2039
     34 N         -28.0837   -0.1194   28.4241 N.2     1  UNL1       -0.0312
     35 C         -23.4275    1.1912   25.8470 C.3     1  UNL1        0.1540
     36 N         -26.0815    0.8042   29.0772 N.pl3   1  UNL1       -0.0309
     37 C         -29.3318    1.3072   30.4894 C.2     1  UNL1        0.0297
     38 C         -27.3588    0.7121   29.2621 C.2     1  UNL1        0.3617
     39 O         -22.1238    1.1609   26.1524 O.3     1  UNL1       -0.3211
     40 N         -31.4014    0.8381   29.4525 N.pl3   1  UNL1       -0.1240
     41 C         -27.9655    1.4492   30.3139 C.2     1  UNL1        0.0947
     42 C         -24.4235    1.0902   26.8333 C.3     1  UNL1        0.0788
     43 C         -30.0363    0.6853   29.4694 C.2     1  UNL1        0.1359
     44 C         -21.9141    0.8379   27.4503 C.3     1  UNL1        0.3290
@<TRIPOS>BOND
     1     1    29    1
     2     2     7    1
     3     2     1    1
     4     3     2    2
     5     4     3    1
     6     4     5    2
     7     5     6    1
     8     6     7    2
     9     8     1    1
    10     8     9    1
    11     8    12    1
    12     9    10    1
    13    10    11    1
    14    12    11    1
    15    14    13    1
    16    14    15    1
    17    15    18    2
    18    16    17    1
    19    16    15    1
    20    19    14    2
    21    20    21    2
    22    20    19    1
    23    21    26    1
    24    22    21    1
    25    23    22    1
    26    24    23    1
    27    24    25    1
    28    26    27    1
    29    26    13    2
    30    28    33    1
    31    29    36    1
    32    30    28    2
    33    30    29    1
    34    31    43    2
    35    34    31    1
    36    34    38    2
    37    35    39    1
    38    35    42    1
    39    36    38    1
    40    38    41    1
    41    39    44    1
    42    40    43    1
    43    41    37    2
    44    42    13    1
    45    42    30    1
    46    43    37    1
    47    44    32    1
    48    44    28    1
