@<TRIPOS>MOLECULE
outputs/IAG933/test6/raw/output_695_IAG933_linker_design_.xyz
 45 49 0 0 0
SMALL
GASTEIGER

@<TRIPOS>ATOM
      1 C         -24.8550   -1.0120   30.1430 C.3     1  UNL1        0.0618
      2 C         -24.9730   -2.5050   29.7880 C.2     1  UNL1       -0.0194
      3 C         -23.9060   -3.1730   29.1460 C.2     1  UNL1       -0.0042
      4 C         -23.9890   -4.5490   28.8530 C.2     1  UNL1       -0.0003
      5 C         -25.1370   -5.2800   29.2050 C.2     1  UNL1       -0.0000
      6 C         -26.2320   -4.6110   29.7840 C.2     1  UNL1       -0.0003
      7 C         -26.1550   -3.2320   30.0650 C.2     1  UNL1       -0.0042
      8 C         -25.3870   -0.6790   31.5710 C.3     1  UNL1        0.0786
      9 C         -25.1890    0.7730   32.0280 C.3     1  UNL1        0.0193
     10 C         -25.3360    0.6840   33.5440 C.3     1  UNL1        0.0202
     11 C         -24.8290   -0.7150   33.9050 C.3     1  UNL1        0.0887
     12 N         -24.7580   -1.4810   32.6460 N.3     1  UNL1       -0.2191
     13 C         -25.6880    1.6140   26.4610 C.2     1  UNL1        0.1003
     14 C         -26.2500    2.9200   26.3950 C.2     1  UNL1        0.0911
     15 C         -25.6420    4.0930   27.1230 C.2     1  UNL1        0.2677
     16 N         -25.6140    5.2520   26.4490 N.am    1  UNL1       -0.1997
     17 C         -25.0260    6.4790   26.9630 C.3     1  UNL1        0.1388
     18 O         -25.1430    3.9660   28.2430 O.2     1  UNL1       -0.2683
     19 C         -27.4380    3.0910   25.6450 C.2     1  UNL1        0.1080
     20 N         -28.0750    2.0890   25.0030 N.2     1  UNL1       -0.2080
     21 C         -27.5430    0.8490   25.0790 C.2     1  UNL1        0.2546
     22 O         -28.1930   -0.2080   24.4770 O.2     1  UNL1       -0.4558
     23 C         -29.4600    0.0050   23.8660 C.3     1  UNL1        0.2426
     24 C         -30.0650   -1.3770   23.5730 C.3     1  UNL1        0.2292
     25 O         -30.7290   -1.8780   24.7210 O.3     1  UNL1       -0.2162
     26 C         -26.3540    0.5760   25.7770 C.2     1  UNL1        0.2075
     27 F         -25.8600   -0.6810   25.7950 F       1  UNL1       -0.1979
     28 F         -21.2213    1.5125   27.7589 F       1  UNL1       -0.2273
     29 C         -27.5496    4.1284   30.3747 C.2     1  UNL1       -0.0000
     30 C         -22.5539    1.5299   28.1020 C.3     1  UNL1        0.2401
     31 C         -25.3486    3.2453   31.1197 C.2     1  UNL1       -0.0029
     32 C         -26.5458    1.9267   29.2928 C.3     1  UNL1        0.1188
     33 C         -27.6020    5.0527   31.5131 C.2     1  UNL1        0.0344
     34 C         -23.0434    0.4069   29.0399 C.2     1  UNL1        0.2010
     35 O         -22.2687   -0.3999   29.5754 O.2     1  UNL1       -0.2917
     36 C         -23.3891    1.4129   26.8314 C.3     1  UNL1        0.1517
     37 C         -24.6377    0.0774   29.0062 C.3     1  UNL1        0.1415
     38 C         -29.3393    5.8926   33.1983 C.3     1  UNL1        0.0773
     39 C         -25.3918    4.1936   32.1868 C.2     1  UNL1       -0.0002
     40 N         -25.3219    1.2204   28.6804 N.3     1  UNL1       -0.1940
     41 O         -29.2256    6.8603   30.9967 O.2     1  UNL1       -0.2913
     42 N         -24.7852    1.3235   27.3233 N.pl3   1  UNL1       -0.2443
     43 C         -28.7755    6.0207   31.7778 C.2     1  UNL1        0.1735
     44 C         -26.4309    3.1958   30.1499 C.2     1  UNL1       -0.0044
     45 C         -26.4940    5.0765   32.4249 C.2     1  UNL1        0.0028
@<TRIPOS>BOND
     1     1     2    1
     2     2     7    1
     3     3     2    2
     4     4     3    1
     5     4     5    2
     6     5     6    1
     7     6     7    2
     8     8     1    1
     9     8     9    1
    10     8    12    1
    11     9    10    1
    12    10    11    1
    13    12    11    1
    14    13    42    1
    15    14    13    1
    16    14    15    1
    17    15    18    2
    18    16    17    1
    19    16    15    1
    20    19    14    2
    21    20    21    2
    22    20    19    1
    23    21    26    1
    24    22    21    1
    25    23    22    1
    26    24    23    1
    27    24    25    1
    28    26    27    1
    29    26    13    2
    30    29    33    1
    31    30    28    1
    32    30    34    1
    33    31    39    2
    34    32    44    1
    35    33    43    1
    36    33    45    2
    37    34    35    2
    38    36    42    1
    39    36    30    1
    40    37    34    1
    41    37     1    1
    42    39    45    1
    43    40    37    1
    44    40    32    1
    45    41    43    2
    46    42    40    1
    47    43    38    1
    48    44    29    2
    49    44    31    1
