@<TRIPOS>MOLECULE
outputs/IAG933/test6/raw/output_6953_IAG933_linker_design_.xyz
 41 43 0 0 0
SMALL
GASTEIGER

@<TRIPOS>ATOM
      1 C         -24.8550   -1.0120   30.1430 C.3     1  UNL1        0.1195
      2 C         -24.9730   -2.5050   29.7880 C.2     1  UNL1       -0.0025
      3 C         -23.9060   -3.1730   29.1460 C.2     1  UNL1       -0.0026
      4 C         -23.9890   -4.5490   28.8530 C.2     1  UNL1       -0.0003
      5 C         -25.1370   -5.2800   29.2050 C.2     1  UNL1       -0.0000
      6 C         -26.2320   -4.6110   29.7840 C.2     1  UNL1       -0.0003
      7 C         -26.1550   -3.2320   30.0650 C.2     1  UNL1       -0.0026
      8 C         -25.3870   -0.6790   31.5710 C.3     1  UNL1        0.0955
      9 C         -25.1890    0.7730   32.0280 C.3     1  UNL1        0.0209
     10 C         -25.3360    0.6840   33.5440 C.3     1  UNL1        0.0203
     11 C         -24.8290   -0.7150   33.9050 C.3     1  UNL1        0.0888
     12 N         -24.7580   -1.4810   32.6460 N.3     1  UNL1       -0.2174
     13 C         -25.6880    1.6140   26.4610 C.2     1  UNL1        0.0386
     14 C         -26.2500    2.9200   26.3950 C.2     1  UNL1        0.0766
     15 C         -25.6420    4.0930   27.1230 C.2     1  UNL1        0.2664
     16 N         -25.6140    5.2520   26.4490 N.am    1  UNL1       -0.1997
     17 C         -25.0260    6.4790   26.9630 C.3     1  UNL1        0.1388
     18 O         -25.1430    3.9660   28.2430 O.2     1  UNL1       -0.2683
     19 C         -27.4380    3.0910   25.6450 C.2     1  UNL1        0.1067
     20 N         -28.0750    2.0890   25.0030 N.2     1  UNL1       -0.2081
     21 C         -27.5430    0.8490   25.0790 C.2     1  UNL1        0.2533
     22 O         -28.1930   -0.2080   24.4770 O.2     1  UNL1       -0.4558
     23 C         -29.4600    0.0050   23.8660 C.3     1  UNL1        0.2426
     24 C         -30.0650   -1.3770   23.5730 C.3     1  UNL1        0.2292
     25 O         -30.7290   -1.8780   24.7210 O.3     1  UNL1       -0.2162
     26 C         -26.3540    0.5760   25.7770 C.2     1  UNL1        0.1931
     27 F         -25.8600   -0.6810   25.7950 F       1  UNL1       -0.1992
     28 C         -23.3189    0.3371   29.0132 C.2     1  UNL1        0.2352
     29 N         -27.1613    0.2284   29.4043 N.2     1  UNL1       -0.1134
     30 O         -30.0864   -0.5624   27.9009 O.2     1  UNL1       -0.1508
     31 C         -26.0656   -0.1664   28.6585 C.2     1  UNL1        0.1922
     32 C         -29.4822   -0.7600   30.0823 C.3     1  UNL1        0.2042
     33 O         -22.6053    0.0848   29.9805 O.2     1  UNL1       -0.2741
     34 CL        -22.6650    2.0414   25.4745 Cl      1  UNL1       -0.0864
     35 C         -23.3839    1.4063   26.8856 C.2     1  UNL1        0.0438
     36 N         -24.6988   -0.0469   29.1348 N.am    1  UNL1       -0.2363
     37 S         -28.8597    0.1298   28.7420 S.O2    1  UNL1        0.0839
     38 C         -24.4927    1.3342   26.9696 C.2     1  UNL1        0.0101
     39 C         -21.1319    1.1516   27.9163 C.3     1  UNL1        0.0153
     40 C         -22.6324    0.9968   27.9481 C.3     1  UNL1        0.1099
     41 O         -28.7785    1.5344   28.2031 O.2     1  UNL1       -0.1508
@<TRIPOS>BOND
     1     1    36    1
     2     2     7    1
     3     2     1    1
     4     3     2    2
     5     4     3    1
     6     4     5    2
     7     5     6    1
     8     6     7    2
     9     8     1    1
    10     8     9    1
    11     8    12    1
    12     9    10    1
    13    10    11    1
    14    12    11    1
    15    13    38    1
    16    14    13    1
    17    14    15    1
    18    15    18    2
    19    16    17    1
    20    16    15    1
    21    19    14    2
    22    20    21    2
    23    20    19    1
    24    21    26    1
    25    22    21    1
    26    23    22    1
    27    24    23    1
    28    24    25    1
    29    26    27    1
    30    26    13    2
    31    28    36   am
    32    28    33    2
    33    30    37    2
    34    31    36    1
    35    31    29    2
    36    34    35    1
    37    35    38    2
    38    35    40    1
    39    37    29    1
    40    37    32    1
    41    40    39    1
    42    40    28    1
    43    41    37    2
