@<TRIPOS>MOLECULE
outputs/IAG933/test6/raw/output_6963_IAG933_linker_design_.xyz
 40 43 0 0 0
SMALL
GASTEIGER

@<TRIPOS>ATOM
      1 C         -24.8550   -1.0120   30.1430 C.3     1  UNL1        0.0438
      2 C         -24.9730   -2.5050   29.7880 C.2     1  UNL1       -0.0208
      3 C         -23.9060   -3.1730   29.1460 C.2     1  UNL1       -0.0042
      4 C         -23.9890   -4.5490   28.8530 C.2     1  UNL1       -0.0003
      5 C         -25.1370   -5.2800   29.2050 C.2     1  UNL1       -0.0000
      6 C         -26.2320   -4.6110   29.7840 C.2     1  UNL1       -0.0003
      7 C         -26.1550   -3.2320   30.0650 C.2     1  UNL1       -0.0042
      8 C         -25.3870   -0.6790   31.5710 C.3     1  UNL1        0.0786
      9 C         -25.1890    0.7730   32.0280 C.3     1  UNL1        0.0389
     10 C         -25.3360    0.6840   33.5440 C.3     1  UNL1        0.0218
     11 C         -24.8290   -0.7150   33.9050 C.3     1  UNL1        0.0888
     12 N         -24.7580   -1.4810   32.6460 N.3     1  UNL1       -0.2191
     13 C         -25.6880    1.6140   26.4610 C.3     1  UNL1        0.0722
     14 C         -26.2500    2.9200   26.3950 C.2     1  UNL1        0.0549
     15 C         -25.6420    4.0930   27.1230 C.2     1  UNL1        0.2624
     16 N         -25.6140    5.2520   26.4490 N.am    1  UNL1       -0.2000
     17 C         -25.0260    6.4790   26.9630 C.3     1  UNL1        0.1388
     18 O         -25.1430    3.9660   28.2430 O.2     1  UNL1       -0.2687
     19 C         -27.4380    3.0910   25.6450 C.2     1  UNL1        0.1021
     20 N         -28.0750    2.0890   25.0030 N.2     1  UNL1       -0.2119
     21 C         -27.5430    0.8490   25.0790 C.2     1  UNL1        0.2341
     22 O         -28.1930   -0.2080   24.4770 O.2     1  UNL1       -0.4585
     23 C         -29.4600    0.0050   23.8660 C.3     1  UNL1        0.2423
     24 C         -30.0650   -1.3770   23.5730 C.3     1  UNL1        0.2292
     25 O         -30.7290   -1.8780   24.7210 O.3     1  UNL1       -0.2162
     26 C         -26.3540    0.5760   25.7770 C.3     1  UNL1        0.2400
     27 F         -25.8600   -0.6810   25.7950 F       1  UNL1       -0.2269
     28 C         -25.6174    1.8628   31.0890 C.3     1  UNL1        0.1363
     29 O         -26.1264    4.2755   30.9998 O.3     1  UNL1       -0.2656
     30 C         -25.3558    3.2886   31.5238 C.3     1  UNL1        0.2447
     31 N         -24.4967    1.6647   30.0936 N.3     1  UNL1       -0.1287
     32 S         -26.1007    4.2949   32.3438 S.3     1  UNL1        0.1413
     33 O         -26.8736    3.8731   33.4083 O.3     1  UNL1       -0.1253
     34 C         -23.4093    2.0711   27.6286 C.3     1  UNL1        0.1947
     35 O         -21.2650    1.3375   26.9402 O.co2   1  UNL1       -0.2441
     36 C         -22.0931    1.3495   27.8483 C.2     1  UNL1        0.3819
     37 N         -24.1533    2.1580   28.9021 N.3     1  UNL1       -0.1212
     38 C         -24.3599    1.2702   26.7753 C.3     1  UNL1        0.0384
     39 N         -25.6696    5.7957   32.7111 N.3     1  UNL1       -0.0251
     40 O         -21.9343    0.7206   28.9438 O.co2   1  UNL1       -0.2441
@<TRIPOS>BOND
     1     2     7    1
     2     2     1    1
     3     3     2    2
     4     4     3    1
     5     4     5    2
     6     5     6    1
     7     6     7    2
     8     8     1    1
     9     8     9    1
    10     8    12    1
    11     9    28    1
    12     9    10    1
    13    10    11    1
    14    12    11    1
    15    13    38    1
    16    14    13    1
    17    14    15    1
    18    15    18    2
    19    16    17    1
    20    16    15    1
    21    19    14    2
    22    20    21    2
    23    20    19    1
    24    21    26    1
    25    22    21    1
    26    23    22    1
    27    24    23    1
    28    24    25    1
    29    26    27    1
    30    26    13    1
    31    28    31    1
    32    29    30    1
    33    29    32    1
    34    30    28    1
    35    30    32    1
    36    32    39    1
    37    32    33    1
    38    34    38    1
    39    34    36    1
    40    34    37    1
    41    35    36   ar
    42    36    40   ar
    43    37    31    1
