@<TRIPOS>MOLECULE
outputs/IAG933/test6/raw/output_6964_IAG933_linker_design_.xyz
 45 49 0 0 0
SMALL
GASTEIGER

@<TRIPOS>ATOM
      1 C         -24.8550   -1.0120   30.1430 C.3     1  UNL1        0.0482
      2 C         -24.9730   -2.5050   29.7880 C.2     1  UNL1       -0.0205
      3 C         -23.9060   -3.1730   29.1460 C.2     1  UNL1       -0.0042
      4 C         -23.9890   -4.5490   28.8530 C.2     1  UNL1       -0.0003
      5 C         -25.1370   -5.2800   29.2050 C.2     1  UNL1       -0.0000
      6 C         -26.2320   -4.6110   29.7840 C.2     1  UNL1       -0.0003
      7 C         -26.1550   -3.2320   30.0650 C.2     1  UNL1       -0.0042
      8 C         -25.3870   -0.6790   31.5710 C.3     1  UNL1        0.0775
      9 C         -25.1890    0.7730   32.0280 C.3     1  UNL1        0.0192
     10 C         -25.3360    0.6840   33.5440 C.3     1  UNL1        0.0202
     11 C         -24.8290   -0.7150   33.9050 C.3     1  UNL1        0.0887
     12 N         -24.7580   -1.4810   32.6460 N.3     1  UNL1       -0.2191
     13 C         -25.6880    1.6140   26.4610 C.2     1  UNL1        0.0353
     14 C         -26.2500    2.9200   26.3950 C.2     1  UNL1        0.0763
     15 C         -25.6420    4.0930   27.1230 C.2     1  UNL1        0.2664
     16 N         -25.6140    5.2520   26.4490 N.am    1  UNL1       -0.1997
     17 C         -25.0260    6.4790   26.9630 C.3     1  UNL1        0.1388
     18 O         -25.1430    3.9660   28.2430 O.2     1  UNL1       -0.2683
     19 C         -27.4380    3.0910   25.6450 C.2     1  UNL1        0.1067
     20 N         -28.0750    2.0890   25.0030 N.2     1  UNL1       -0.2081
     21 C         -27.5430    0.8490   25.0790 C.2     1  UNL1        0.2533
     22 O         -28.1930   -0.2080   24.4770 O.2     1  UNL1       -0.4558
     23 C         -29.4600    0.0050   23.8660 C.3     1  UNL1        0.2426
     24 C         -30.0650   -1.3770   23.5730 C.3     1  UNL1        0.2292
     25 O         -30.7290   -1.8780   24.7210 O.3     1  UNL1       -0.2162
     26 C         -26.3540    0.5760   25.7770 C.2     1  UNL1        0.1928
     27 F         -25.8600   -0.6810   25.7950 F       1  UNL1       -0.1992
     28 N         -28.4577    2.6542   30.0836 N.3     1  UNL1       -0.2531
     29 O         -29.2372    5.5309   31.0012 O.3     1  UNL1       -0.2034
     30 C         -23.1617    0.2662   28.8971 C.2     1  UNL1       -0.0076
     31 O         -26.9252    0.2677   29.3444 O.3     1  UNL1       -0.3516
     32 C         -28.3857    0.2443   29.2641 C.3     1  UNL1        0.1595
     33 C         -24.5832    1.0558   27.2384 C.2     1  UNL1       -0.0024
     34 C         -29.1322    2.5812   31.3414 C.3     1  UNL1        0.1514
     35 N         -30.2620    3.4501   31.2052 N.3     1  UNL1       -0.2316
     36 CL        -23.0232    2.0406   25.2954 Cl      1  UNL1       -0.0817
     37 C         -28.7370    3.8149   29.4788 C.3     1  UNL1        0.1239
     38 CL        -20.9168    1.6360   27.7413 Cl      1  UNL1       -0.0817
     39 C         -26.2631   -0.4780   28.5449 C.3     1  UNL1        0.1505
     40 C         -29.7694    4.4450   30.2260 C.3     1  UNL1        0.2298
     41 C         -28.9942    1.5131   29.3558 C.3     1  UNL1        0.1057
     42 C         -24.6968    0.0250   28.8006 C.3     1  UNL1        0.0715
     43 C         -23.3863    1.3628   26.8618 C.2     1  UNL1        0.0644
     44 C         -22.5648    1.0855   27.7873 C.2     1  UNL1        0.0640
     45 C         -31.6151    2.7969   31.0176 C.3     1  UNL1        0.0931
@<TRIPOS>BOND
     1     1     2    1
     2     2     7    1
     3     3     2    2
     4     4     3    1
     5     4     5    2
     6     5     6    1
     7     6     7    2
     8     8     1    1
     9     8     9    1
    10     8    12    1
    11     9    10    1
    12    10    11    1
    13    12    11    1
    14    13    33    1
    15    14    13    1
    16    14    15    1
    17    15    18    2
    18    16    17    1
    19    16    15    1
    20    19    14    2
    21    20    21    2
    22    20    19    1
    23    21    26    1
    24    22    21    1
    25    23    22    1
    26    24    23    1
    27    24    25    1
    28    26    27    1
    29    26    13    2
    30    28    34    1
    31    32    31    1
    32    32    41    1
    33    33    42    1
    34    35    34    1
    35    36    43    1
    36    37    28    1
    37    37    40    1
    38    38    44    1
    39    39    31    1
    40    40    29    1
    41    40    35    1
    42    41    28    1
    43    42    39    1
    44    42    30    1
    45    42     1    1
    46    43    33    2
    47    43    44    1
    48    44    30    2
    49    45    35    1
