@<TRIPOS>MOLECULE
outputs/IAG933/test6/raw/output_6969_IAG933_linker_design_.xyz
 42 46 0 0 0
SMALL
GASTEIGER

@<TRIPOS>ATOM
      1 C         -24.8550   -1.0120   30.1430 C.3     1  UNL1        0.0425
      2 C         -24.9730   -2.5050   29.7880 C.2     1  UNL1       -0.0210
      3 C         -23.9060   -3.1730   29.1460 C.2     1  UNL1       -0.0042
      4 C         -23.9890   -4.5490   28.8530 C.2     1  UNL1       -0.0003
      5 C         -25.1370   -5.2800   29.2050 C.2     1  UNL1       -0.0000
      6 C         -26.2320   -4.6110   29.7840 C.2     1  UNL1       -0.0003
      7 C         -26.1550   -3.2320   30.0650 C.2     1  UNL1       -0.0042
      8 C         -25.3870   -0.6790   31.5710 C.3     1  UNL1        0.0783
      9 C         -25.1890    0.7730   32.0280 C.3     1  UNL1        0.0364
     10 C         -25.3360    0.6840   33.5440 C.3     1  UNL1        0.0217
     11 C         -24.8290   -0.7150   33.9050 C.3     1  UNL1        0.0887
     12 N         -24.7580   -1.4810   32.6460 N.3     1  UNL1       -0.2191
     13 C         -25.6880    1.6140   26.4610 C.2     1  UNL1        0.0470
     14 C         -26.2500    2.9200   26.3950 C.2     1  UNL1        0.0752
     15 C         -25.6420    4.0930   27.1230 C.2     1  UNL1        0.2662
     16 N         -25.6140    5.2520   26.4490 N.am    1  UNL1       -0.1997
     17 C         -25.0260    6.4790   26.9630 C.3     1  UNL1        0.1388
     18 O         -25.1430    3.9660   28.2430 O.2     1  UNL1       -0.2683
     19 C         -27.4380    3.0910   25.6450 C.2     1  UNL1        0.1065
     20 N         -28.0750    2.0890   25.0030 N.2     1  UNL1       -0.2081
     21 C         -27.5430    0.8490   25.0790 C.2     1  UNL1        0.2531
     22 O         -28.1930   -0.2080   24.4770 O.2     1  UNL1       -0.4558
     23 C         -29.4600    0.0050   23.8660 C.3     1  UNL1        0.2426
     24 C         -30.0650   -1.3770   23.5730 C.3     1  UNL1        0.2292
     25 O         -30.7290   -1.8780   24.7210 O.3     1  UNL1       -0.2162
     26 C         -26.3540    0.5760   25.7770 C.2     1  UNL1        0.1917
     27 F         -25.8600   -0.6810   25.7950 F       1  UNL1       -0.1995
     28 N         -24.1769    1.8884   30.0686 N.3     1  UNL1       -0.1902
     29 C         -23.5600    0.9211   29.1771 C.3     1  UNL1        0.1750
     30 C         -22.2343    1.3563   28.6259 C.2     1  UNL1        0.0465
     31 F         -20.9543    1.7227   26.7693 F       1  UNL1       -0.2046
     32 C         -24.3052    3.1646   32.1939 C.3     1  UNL1        0.1596
     33 C         -24.4114    1.3399   26.9707 C.3     1  UNL1        0.1683
     34 C         -22.1408    1.6613   27.2860 C.2     1  UNL1        0.1403
     35 C         -23.4842   -0.4161   29.9184 C.3     1  UNL1        0.0545
     36 O         -24.4134    0.5425   28.0962 O.3     1  UNL1       -0.3332
     37 C         -25.6251    5.2198   32.3672 C.3     1  UNL1        0.1742
     38 C         -23.1945    2.1023   25.1451 C.2     1  UNL1        0.1680
     39 O         -25.1228    4.1825   31.5162 O.3     1  UNL1       -0.3496
     40 C         -24.0758    1.7709   31.5495 C.3     1  UNL1        0.1063
     41 C         -23.2683    1.7504   26.4665 C.2     1  UNL1        0.0658
     42 F         -22.0782    2.6601   24.6707 F       1  UNL1       -0.2020
@<TRIPOS>BOND
     1     1     2    1
     2     1     8    1
     3     2     7    1
     4     3     2    2
     5     4     3    1
     6     4     5    2
     7     5     6    1
     8     6     7    2
     9     8     9    1
    10     8    12    1
    11     9    10    1
    12    10    11    1
    13    12    11    1
    14    14    13    1
    15    14    15    1
    16    15    18    2
    17    16    17    1
    18    16    15    1
    19    19    14    2
    20    20    21    2
    21    20    19    1
    22    21    26    1
    23    22    21    1
    24    23    22    1
    25    24    23    1
    26    24    25    1
    27    26    27    1
    28    26    13    2
    29    28    40    1
    30    29    30    1
    31    29    35    1
    32    29    28    1
    33    31    34    1
    34    33    13    1
    35    33    36    1
    36    34    30    2
    37    35     1    1
    38    36    29    1
    39    38    41    2
    40    39    32    1
    41    39    37    1
    42    40     9    1
    43    40    32    1
    44    41    33    1
    45    41    34    1
    46    42    38    1
