@<TRIPOS>MOLECULE
No_697-gen_results/8p0m/2024-11-27-11-27-31/
 18 20 0 0 0
SMALL
GASTEIGER

@<TRIPOS>ATOM
      1 C         -28.0162   -0.8135   28.8779 C.ar    1  UNL1        0.0175
      2 C         -27.0636   -0.1189   28.6079 C.ar    1  UNL1        0.0637
      3 C         -25.7923   -0.4302   29.0761 C.ar    1  UNL1        0.0175
      4 C         -25.5756   -1.5654   29.9363 C.ar    1  UNL1        0.0015
      5 C         -26.7354   -2.3004   30.2173 C.ar    1  UNL1        0.0001
      6 C         -27.9184   -1.9537   29.7629 C.ar    1  UNL1        0.0015
      7 N         -26.8648    1.0550   27.7928 N.ar    1  UNL1       -0.3083
      8 C         -27.6916    1.5642   27.1523 C.ar    1  UNL1        0.0799
      9 C         -27.4012    2.6461   26.2665 C.ar    1  UNL1        0.0202
     10 C         -25.9831    2.8821   26.2513 C.ar    1  UNL1        0.0149
     11 C         -25.5301    1.7195   27.3700 C.ar    1  UNL1        0.0458
     12 C         -24.7920    2.2332   28.5794 C.3     1  UNL1        0.0704
     13 C         -23.5549    1.5804   28.8758 C.ar    1  UNL1       -0.0163
     14 C         -22.8784    0.8143   28.0165 C.ar    1  UNL1       -0.0039
     15 C         -21.6123    0.2699   28.3936 C.ar    1  UNL1       -0.0003
     16 C         -21.4126   -0.3098   29.6474 C.ar    1  UNL1       -0.0000
     17 C         -22.3788    0.2264   30.6456 C.ar    1  UNL1       -0.0003
     18 C         -23.3919    1.1782   30.3428 C.ar    1  UNL1       -0.0039
@<TRIPOS>BOND
     1     2     7    1
     2     7     8   ar
     3     8     9   ar
     4     9    10   ar
     5     7    11   ar
     6    10    11   ar
     7    11    12    1
     8    12    13    1
     9     1     2   ar
    10     2     3   ar
    11     3     4   ar
    12     4     5   ar
    13     5     6   ar
    14     6     1   ar
    15    13    14   ar
    16    14    15   ar
    17    15    16   ar
    18    16    17   ar
    19    17    18   ar
    20    18    13   ar
