@<TRIPOS>MOLECULE
outputs/IAG933/test6/raw/output_6970_IAG933_linker_design_.xyz
 44 49 0 0 0
SMALL
GASTEIGER

@<TRIPOS>ATOM
      1 C         -24.8550   -1.0120   30.1430 C.3     1  UNL1        0.0766
      2 C         -24.9730   -2.5050   29.7880 C.2     1  UNL1       -0.0156
      3 C         -23.9060   -3.1730   29.1460 C.2     1  UNL1       -0.0039
      4 C         -23.9890   -4.5490   28.8530 C.2     1  UNL1       -0.0003
      5 C         -25.1370   -5.2800   29.2050 C.2     1  UNL1       -0.0000
      6 C         -26.2320   -4.6110   29.7840 C.2     1  UNL1       -0.0003
      7 C         -26.1550   -3.2320   30.0650 C.2     1  UNL1       -0.0039
      8 C         -25.3870   -0.6790   31.5710 C.3     1  UNL1        0.0823
      9 C         -25.1890    0.7730   32.0280 C.3     1  UNL1        0.0196
     10 C         -25.3360    0.6840   33.5440 C.3     1  UNL1        0.0203
     11 C         -24.8290   -0.7150   33.9050 C.3     1  UNL1        0.0887
     12 N         -24.7580   -1.4810   32.6460 N.3     1  UNL1       -0.2187
     13 C         -25.6880    1.6140   26.4610 C.3     1  UNL1        0.1084
     14 C         -26.2500    2.9200   26.3950 C.2     1  UNL1        0.0604
     15 C         -25.6420    4.0930   27.1230 C.2     1  UNL1        0.2628
     16 N         -25.6140    5.2520   26.4490 N.am    1  UNL1       -0.2000
     17 C         -25.0260    6.4790   26.9630 C.3     1  UNL1        0.1388
     18 O         -25.1430    3.9660   28.2430 O.2     1  UNL1       -0.2686
     19 C         -27.4380    3.0910   25.6450 C.2     1  UNL1        0.1025
     20 N         -28.0750    2.0890   25.0030 N.2     1  UNL1       -0.2118
     21 C         -27.5430    0.8490   25.0790 C.2     1  UNL1        0.2345
     22 O         -28.1930   -0.2080   24.4770 O.2     1  UNL1       -0.4585
     23 C         -29.4600    0.0050   23.8660 C.3     1  UNL1        0.2423
     24 C         -30.0650   -1.3770   23.5730 C.3     1  UNL1        0.2292
     25 O         -30.7290   -1.8780   24.7210 O.3     1  UNL1       -0.2162
     26 C         -26.3540    0.5760   25.7770 C.3     1  UNL1        0.2455
     27 F         -25.8600   -0.6810   25.7950 F       1  UNL1       -0.2265
     28 O         -27.5536   -0.4241   28.4681 O.2     1  UNL1       -0.2701
     29 N         -29.3720    3.1386   29.3408 N.3     1  UNL1       -0.2548
     30 C         -30.5512    3.5637   29.9797 C.3     1  UNL1        0.0908
     31 C         -24.8861    1.1288   27.4702 C.ar    1  UNL1        0.0500
     32 C         -22.6082    1.7472   26.6287 C.3     1  UNL1        0.2185
     33 O         -21.4064    1.3939   27.0660 O.3     1  UNL1       -0.3321
     34 C         -21.5080    0.6251   28.3898 C.3     1  UNL1        0.1714
     35 C         -26.7505    0.5695   28.8856 C.2     1  UNL1        0.2580
     36 C         -28.2536    3.9946   29.3406 C.3     1  UNL1        0.1643
     37 C         -23.0795    0.3073   28.6281 C.ar    1  UNL1        0.0204
     38 C         -23.5543    1.2191   27.5011 C.ar    1  UNL1        0.0321
     39 N         -25.4864    0.5077   28.5493 N.ar    1  UNL1       -0.2839
     40 C         -29.2954    1.9691   28.5654 C.3     1  UNL1        0.1005
     41 C         -24.5073   -0.0668   29.2037 C.ar    1  UNL1        0.0469
     42 N         -27.0312    2.8208   29.2262 N.3     1  UNL1       -0.1913
     43 C         -27.4853    1.6814   29.2193 C.3     1  UNL1        0.1692
     44 CL        -23.0166    2.5391   25.1111 Cl      1  UNL1       -0.0773
@<TRIPOS>BOND
     1     1    41    1
     2     2     7    1
     3     2     1    1
     4     3     2    2
     5     4     3    1
     6     4     5    2
     7     5     6    1
     8     6     7    2
     9     8     1    1
    10     8     9    1
    11     8    12    1
    12     9    10    1
    13    10    11    1
    14    12    11    1
    15    13    31    1
    16    14    13    1
    17    14    15    1
    18    15    18    2
    19    16    17    1
    20    16    15    1
    21    19    14    2
    22    20    21    2
    23    20    19    1
    24    21    26    1
    25    22    21    1
    26    23    22    1
    27    24    23    1
    28    24    25    1
    29    26    27    1
    30    26    13    1
    31    28    35    2
    32    29    30    1
    33    31    38   ar
    34    31    39   ar
    35    32    44    1
    36    32    33    1
    37    32    38    1
    38    33    34    1
    39    34    37    1
    40    36    29    1
    41    37    41   ar
    42    38    37   ar
    43    39    35   am
    44    39    41   ar
    45    40    43    1
    46    40    29    1
    47    42    36    1
    48    43    35    1
    49    43    42    1
