@<TRIPOS>MOLECULE
outputs/IAG933/test6/raw/output_6979_IAG933_linker_design_.xyz
 44 48 0 0 0
SMALL
GASTEIGER

@<TRIPOS>ATOM
      1 C         -24.8550   -1.0120   30.1430 C.3     1  UNL1        0.0401
      2 C         -24.9730   -2.5050   29.7880 C.2     1  UNL1       -0.0211
      3 C         -23.9060   -3.1730   29.1460 C.2     1  UNL1       -0.0042
      4 C         -23.9890   -4.5490   28.8530 C.2     1  UNL1       -0.0003
      5 C         -25.1370   -5.2800   29.2050 C.2     1  UNL1       -0.0000
      6 C         -26.2320   -4.6110   29.7840 C.2     1  UNL1       -0.0003
      7 C         -26.1550   -3.2320   30.0650 C.2     1  UNL1       -0.0042
      8 C         -25.3870   -0.6790   31.5710 C.3     1  UNL1        0.0792
      9 C         -25.1890    0.7730   32.0280 C.3     1  UNL1        0.0474
     10 C         -25.3360    0.6840   33.5440 C.3     1  UNL1        0.0227
     11 C         -24.8290   -0.7150   33.9050 C.3     1  UNL1        0.0888
     12 N         -24.7580   -1.4810   32.6460 N.3     1  UNL1       -0.2190
     13 C         -25.6880    1.6140   26.4610 C.2     1  UNL1        0.0880
     14 C         -26.2500    2.9200   26.3950 C.2     1  UNL1        0.0899
     15 C         -25.6420    4.0930   27.1230 C.2     1  UNL1        0.2676
     16 N         -25.6140    5.2520   26.4490 N.am    1  UNL1       -0.1997
     17 C         -25.0260    6.4790   26.9630 C.3     1  UNL1        0.1388
     18 O         -25.1430    3.9660   28.2430 O.2     1  UNL1       -0.2683
     19 C         -27.4380    3.0910   25.6450 C.2     1  UNL1        0.1080
     20 N         -28.0750    2.0890   25.0030 N.2     1  UNL1       -0.2080
     21 C         -27.5430    0.8490   25.0790 C.2     1  UNL1        0.2546
     22 O         -28.1930   -0.2080   24.4770 O.2     1  UNL1       -0.4558
     23 C         -29.4600    0.0050   23.8660 C.3     1  UNL1        0.2426
     24 C         -30.0650   -1.3770   23.5730 C.3     1  UNL1        0.2292
     25 O         -30.7290   -1.8780   24.7210 O.3     1  UNL1       -0.2162
     26 C         -26.3540    0.5760   25.7770 C.2     1  UNL1        0.2063
     27 F         -25.8600   -0.6810   25.7950 F       1  UNL1       -0.1979
     28 C         -24.8978    5.4485   32.6348 C.2     1  UNL1        0.2909
     29 C         -25.5400    4.3451   31.9058 C.3     1  UNL1        0.2304
     30 O         -21.1359    1.0011   27.8489 O.3     1  UNL1       -0.3519
     31 C         -23.0638    2.4458   25.0569 C.3     1  UNL1        0.1762
     32 N         -24.6461    1.1557   27.3031 N.pl3   1  UNL1       -0.2821
     33 O         -23.1630    2.6821   26.4653 O.3     1  UNL1       -0.3329
     34 C         -24.1960    0.2247   29.4018 C.3     1  UNL1        0.0278
     35 O         -24.0743    6.1960   32.1043 O.2     1  UNL1       -0.2689
     36 C         -25.2786    2.1875   31.4615 C.3     1  UNL1        0.1442
     37 C         -22.4821    0.9491   28.0377 C.3     1  UNL1        0.1617
     38 C         -20.6513   -0.0248   28.5690 C.3     1  UNL1        0.1423
     39 C         -22.8753    0.1202   29.0549 C.3     1  UNL1        0.0360
     40 C         -21.7573   -0.5513   29.3407 C.3     1  UNL1        0.0347
     41 N         -25.0626    5.4038   34.0110 N.am    1  UNL1       -0.0856
     42 C         -23.4057    1.5565   27.2465 C.3     1  UNL1        0.2200
     43 O         -24.6230    3.2532   32.0961 O.3     1  UNL1       -0.3443
     44 C         -25.0396    0.0439   28.1875 C.3     1  UNL1        0.0935
@<TRIPOS>BOND
     1     1     2    1
     2     2     7    1
     3     3     2    2
     4     4     3    1
     5     4     5    2
     6     5     6    1
     7     6     7    2
     8     8     1    1
     9     8     9    1
    10     8    12    1
    11     9    36    1
    12     9    10    1
    13    10    11    1
    14    12    11    1
    15    13    32    1
    16    14    13    1
    17    14    15    1
    18    15    18    2
    19    16    17    1
    20    16    15    1
    21    19    14    2
    22    20    21    2
    23    20    19    1
    24    21    26    1
    25    22    21    1
    26    23    22    1
    27    24    23    1
    28    24    25    1
    29    26    27    1
    30    26    13    2
    31    28    41    1
    32    29    43    1
    33    29    28    1
    34    30    38    1
    35    31    33    1
    36    32    44    1
    37    34     1    1
    38    35    28    2
    39    36    43    1
    40    37    30    1
    41    37    39    1
    42    38    40    1
    43    39    40    1
    44    39    34    1
    45    42    33    1
    46    42    32    1
    47    42    37    1
    48    44    34    1
