@<TRIPOS>MOLECULE
outputs/IAG933/test6/raw/output_6980_IAG933_linker_design_.xyz
 44 49 0 0 0
SMALL
GASTEIGER

@<TRIPOS>ATOM
      1 C         -24.8550   -1.0120   30.1430 C.3     1  UNL1        0.0658
      2 C         -24.9730   -2.5050   29.7880 C.2     1  UNL1       -0.0188
      3 C         -23.9060   -3.1730   29.1460 C.2     1  UNL1       -0.0042
      4 C         -23.9890   -4.5490   28.8530 C.2     1  UNL1       -0.0003
      5 C         -25.1370   -5.2800   29.2050 C.2     1  UNL1       -0.0000
      6 C         -26.2320   -4.6110   29.7840 C.2     1  UNL1       -0.0003
      7 C         -26.1550   -3.2320   30.0650 C.2     1  UNL1       -0.0042
      8 C         -25.3870   -0.6790   31.5710 C.3     1  UNL1        0.0792
      9 C         -25.1890    0.7730   32.0280 C.3     1  UNL1        0.0193
     10 C         -25.3360    0.6840   33.5440 C.3     1  UNL1        0.0202
     11 C         -24.8290   -0.7150   33.9050 C.3     1  UNL1        0.0887
     12 N         -24.7580   -1.4810   32.6460 N.3     1  UNL1       -0.2190
     13 C         -25.6880    1.6140   26.4610 C.2     1  UNL1        0.0195
     14 C         -26.2500    2.9200   26.3950 C.2     1  UNL1        0.0727
     15 C         -25.6420    4.0930   27.1230 C.2     1  UNL1        0.2661
     16 N         -25.6140    5.2520   26.4490 N.am    1  UNL1       -0.1997
     17 C         -25.0260    6.4790   26.9630 C.3     1  UNL1        0.1388
     18 O         -25.1430    3.9660   28.2430 O.2     1  UNL1       -0.2683
     19 C         -27.4380    3.0910   25.6450 C.2     1  UNL1        0.1064
     20 N         -28.0750    2.0890   25.0030 N.2     1  UNL1       -0.2081
     21 C         -27.5430    0.8490   25.0790 C.2     1  UNL1        0.2530
     22 O         -28.1930   -0.2080   24.4770 O.2     1  UNL1       -0.4558
     23 C         -29.4600    0.0050   23.8660 C.3     1  UNL1        0.2426
     24 C         -30.0650   -1.3770   23.5730 C.3     1  UNL1        0.2292
     25 O         -30.7290   -1.8780   24.7210 O.3     1  UNL1       -0.2162
     26 C         -26.3540    0.5760   25.7770 C.2     1  UNL1        0.1892
     27 F         -25.8600   -0.6810   25.7950 F       1  UNL1       -0.1996
     28 C         -25.3356   -0.1239   28.9296 C.3     1  UNL1        0.1248
     29 C         -29.3747    0.3793   31.0270 C.2     1  UNL1       -0.0006
     30 C         -24.3864    1.4080   26.9110 C.3     1  UNL1        0.0715
     31 CL        -23.2653    2.2026   24.5163 Cl      1  UNL1       -0.1098
     32 C         -30.1423    1.2980   30.2608 C.2     1  UNL1       -0.0043
     33 C         -30.8803    2.1627   28.0067 C.3     1  UNL1        0.0310
     34 O         -24.9751    1.0655   29.3131 O.3     1  UNL1       -0.3573
     35 C         -23.2476    1.6682   26.1655 C.3     1  UNL1        0.1079
     36 C         -28.0406   -0.1872   29.0461 C.2     1  UNL1       -0.0201
     37 C         -24.3294    0.7952   28.2073 C.3     1  UNL1        0.1250
     38 C         -21.9696    1.7557   26.8535 C.2     1  UNL1       -0.0143
     39 C         -26.7055   -0.6225   28.4497 C.3     1  UNL1        0.0562
     40 C         -22.8968    0.4790   28.7475 C.3     1  UNL1        0.0556
     41 C         -28.9542    0.5783   28.2203 C.2     1  UNL1       -0.0084
     42 C         -29.9635    1.3242   28.8619 C.2     1  UNL1       -0.0222
     43 C         -28.3638   -0.4171   30.4152 C.2     1  UNL1       -0.0042
     44 C         -21.8594    1.2150   28.1166 C.2     1  UNL1       -0.0270
@<TRIPOS>BOND
     1     1     2    1
     2     2     7    1
     3     3     2    2
     4     4     3    1
     5     4     5    2
     6     5     6    1
     7     6     7    2
     8     8     1    1
     9     8     9    1
    10     8    12    1
    11     9    10    1
    12    10    11    1
    13    12    11    1
    14    14    13    1
    15    14    15    1
    16    15    18    2
    17    16    17    1
    18    16    15    1
    19    19    14    2
    20    20    21    2
    21    20    19    1
    22    21    26    1
    23    22    21    1
    24    23    22    1
    25    24    23    1
    26    24    25    1
    27    26    27    1
    28    26    13    2
    29    28    39    1
    30    28    34    1
    31    28     1    1
    32    30    13    1
    33    30    37    1
    34    32    29    2
    35    33    42    1
    36    35    31    1
    37    35    38    1
    38    35    30    1
    39    36    43    2
    40    37    40    1
    41    37    28    1
    42    37    34    1
    43    38    44    2
    44    39    36    1
    45    41    42    2
    46    41    36    1
    47    42    32    1
    48    43    29    1
    49    44    40    1
