@<TRIPOS>MOLECULE
outputs/IAG933/test6/raw/output_6984_IAG933_linker_design_.xyz
 42 45 0 0 0
SMALL
GASTEIGER

@<TRIPOS>ATOM
      1 C         -24.8550   -1.0120   30.1430 C.3     1  UNL1        0.0730
      2 C         -24.9730   -2.5050   29.7880 C.2     1  UNL1       -0.0183
      3 C         -23.9060   -3.1730   29.1460 C.2     1  UNL1       -0.0041
      4 C         -23.9890   -4.5490   28.8530 C.2     1  UNL1       -0.0003
      5 C         -25.1370   -5.2800   29.2050 C.2     1  UNL1       -0.0000
      6 C         -26.2320   -4.6110   29.7840 C.2     1  UNL1       -0.0003
      7 C         -26.1550   -3.2320   30.0650 C.2     1  UNL1       -0.0041
      8 C         -25.3870   -0.6790   31.5710 C.3     1  UNL1        0.0796
      9 C         -25.1890    0.7730   32.0280 C.3     1  UNL1        0.0193
     10 C         -25.3360    0.6840   33.5440 C.3     1  UNL1        0.0202
     11 C         -24.8290   -0.7150   33.9050 C.3     1  UNL1        0.0887
     12 N         -24.7580   -1.4810   32.6460 N.3     1  UNL1       -0.2190
     13 C         -25.6880    1.6140   26.4610 C.2     1  UNL1        0.0380
     14 C         -26.2500    2.9200   26.3950 C.2     1  UNL1        0.0765
     15 C         -25.6420    4.0930   27.1230 C.2     1  UNL1        0.2664
     16 N         -25.6140    5.2520   26.4490 N.am    1  UNL1       -0.1997
     17 C         -25.0260    6.4790   26.9630 C.3     1  UNL1        0.1388
     18 O         -25.1430    3.9660   28.2430 O.2     1  UNL1       -0.2683
     19 C         -27.4380    3.0910   25.6450 C.2     1  UNL1        0.1067
     20 N         -28.0750    2.0890   25.0030 N.2     1  UNL1       -0.2081
     21 C         -27.5430    0.8490   25.0790 C.2     1  UNL1        0.2533
     22 O         -28.1930   -0.2080   24.4770 O.2     1  UNL1       -0.4558
     23 C         -29.4600    0.0050   23.8660 C.3     1  UNL1        0.2426
     24 C         -30.0650   -1.3770   23.5730 C.3     1  UNL1        0.2292
     25 O         -30.7290   -1.8780   24.7210 O.3     1  UNL1       -0.2162
     26 C         -26.3540    0.5760   25.7770 C.2     1  UNL1        0.1930
     27 F         -25.8600   -0.6810   25.7950 F       1  UNL1       -0.1992
     28 C         -22.9822    3.6885   30.4637 C.3     1  UNL1        0.0945
     29 C         -21.8458    1.8457   27.4572 C.2     1  UNL1       -0.0162
     30 C         -22.7467    1.8879   25.1379 C.2     1  UNL1        0.3331
     31 C         -25.3007   -0.0463   29.0847 C.3     1  UNL1        0.1795
     32 C         -23.0471    1.6240   26.6184 C.2     1  UNL1        0.0637
     33 C         -24.5679    0.9218   28.5294 C.2     1  UNL1        0.0077
     34 F         -21.6147    2.4284   24.8086 F       1  UNL1       -0.1586
     35 C         -24.3657    1.2965   27.1894 C.2     1  UNL1        0.0060
     36 C         -21.9042    2.3009   28.7432 C.3     1  UNL1        0.0486
     37 O         -26.4884   -0.2317   28.6165 O.3     1  UNL1       -0.2179
     38 C         -22.9251    2.4226   29.6631 C.2     1  UNL1       -0.0323
     39 C         -24.0908    1.5482   29.5057 C.2     1  UNL1       -0.0096
     40 O         -23.3709    4.8307   32.4110 O.2     1  UNL1       -0.2879
     41 O         -23.5314    1.4644   24.2675 O.2     1  UNL1       -0.2541
     42 C         -23.5971    3.8746   31.5937 C.2     1  UNL1        0.2118
@<TRIPOS>BOND
     1     1    31    1
     2     2     7    1
     3     2     1    1
     4     3     2    2
     5     4     3    1
     6     4     5    2
     7     5     6    1
     8     6     7    2
     9     8     1    1
    10     8     9    1
    11     8    12    1
    12     9    10    1
    13    10    11    1
    14    12    11    1
    15    13    35    1
    16    14    13    1
    17    14    15    1
    18    15    18    2
    19    16    17    1
    20    16    15    1
    21    19    14    2
    22    20    21    2
    23    20    19    1
    24    21    26    1
    25    22    21    1
    26    23    22    1
    27    24    23    1
    28    24    25    1
    29    26    27    1
    30    26    13    2
    31    28    42    1
    32    29    36    1
    33    30    32    1
    34    31    37    1
    35    32    35    1
    36    32    29    2
    37    33    31    1
    38    33    39    1
    39    34    30    1
    40    35    33    2
    41    36    38    1
    42    38    28    1
    43    39    38    2
    44    41    30    2
    45    42    40    2
