@<TRIPOS>MOLECULE
outputs/IAG933/test6/raw/output_6985_IAG933_linker_design_.xyz
 43 47 0 0 0
SMALL
GASTEIGER

@<TRIPOS>ATOM
      1 C         -24.8550   -1.0120   30.1430 C.3     1  UNL1        0.0438
      2 C         -24.9730   -2.5050   29.7880 C.2     1  UNL1       -0.0208
      3 C         -23.9060   -3.1730   29.1460 C.2     1  UNL1       -0.0042
      4 C         -23.9890   -4.5490   28.8530 C.2     1  UNL1       -0.0003
      5 C         -25.1370   -5.2800   29.2050 C.2     1  UNL1       -0.0000
      6 C         -26.2320   -4.6110   29.7840 C.2     1  UNL1       -0.0003
      7 C         -26.1550   -3.2320   30.0650 C.2     1  UNL1       -0.0042
      8 C         -25.3870   -0.6790   31.5710 C.3     1  UNL1        0.0786
      9 C         -25.1890    0.7730   32.0280 C.3     1  UNL1        0.0395
     10 C         -25.3360    0.6840   33.5440 C.3     1  UNL1        0.0218
     11 C         -24.8290   -0.7150   33.9050 C.3     1  UNL1        0.0888
     12 N         -24.7580   -1.4810   32.6460 N.3     1  UNL1       -0.2191
     13 C         -25.6880    1.6140   26.4610 C.2     1  UNL1        0.0441
     14 C         -26.2500    2.9200   26.3950 C.2     1  UNL1        0.0767
     15 C         -25.6420    4.0930   27.1230 C.2     1  UNL1        0.2664
     16 N         -25.6140    5.2520   26.4490 N.am    1  UNL1       -0.1997
     17 C         -25.0260    6.4790   26.9630 C.3     1  UNL1        0.1388
     18 O         -25.1430    3.9660   28.2430 O.2     1  UNL1       -0.2683
     19 C         -27.4380    3.0910   25.6450 C.2     1  UNL1        0.1067
     20 N         -28.0750    2.0890   25.0030 N.2     1  UNL1       -0.2081
     21 C         -27.5430    0.8490   25.0790 C.2     1  UNL1        0.2533
     22 O         -28.1930   -0.2080   24.4770 O.2     1  UNL1       -0.4558
     23 C         -29.4600    0.0050   23.8660 C.3     1  UNL1        0.2426
     24 C         -30.0650   -1.3770   23.5730 C.3     1  UNL1        0.2292
     25 O         -30.7290   -1.8780   24.7210 O.3     1  UNL1       -0.2162
     26 C         -26.3540    0.5760   25.7770 C.2     1  UNL1        0.1932
     27 F         -25.8600   -0.6810   25.7950 F       1  UNL1       -0.1992
     28 C         -21.7904    1.3756   28.3074 C.2     1  UNL1        0.0064
     29 N         -26.0729    3.2172   31.8812 N.3     1  UNL1       -0.1139
     30 O         -26.6253    4.4199   31.5370 O.2     1  UNL1       -0.3981
     31 C         -21.8834    1.6595   26.9547 C.2     1  UNL1        0.0415
     32 C         -25.0025    3.4914   32.6582 C.3     1  UNL1        0.1427
     33 C         -24.3805    1.5031   27.1196 C.2     1  UNL1        0.0746
     34 C         -26.2557    1.8066   31.5318 C.3     1  UNL1        0.1407
     35 C         -22.9304    1.1822   29.0694 C.2     1  UNL1        0.0371
     36 C         -24.2197    1.3112   28.5132 C.2     1  UNL1        0.1417
     37 O         -23.1166    2.0209   25.0582 O.2     1  UNL1       -0.2918
     38 F         -21.9749    2.6317   24.6600 F       1  UNL1        0.0138
     39 O         -25.2903    1.2868   29.3759 O.2     1  UNL1       -0.4738
     40 C         -24.9616    4.8875   33.0108 C.2     1  UNL1        0.0373
     41 C         -23.1441    1.7185   26.3724 C.2     1  UNL1        0.1918
     42 C         -26.5366    1.6121   30.0363 C.3     1  UNL1        0.2246
     43 C         -25.9694    5.4211   32.2138 C.2     1  UNL1        0.1982
@<TRIPOS>BOND
     1     2     7    1
     2     2     1    1
     3     3     2    2
     4     4     3    1
     5     4     5    2
     6     5     6    1
     7     6     7    2
     8     8     1    1
     9     8     9    1
    10     8    12    1
    11     9    34    1
    12     9    10    1
    13    10    11    1
    14    12    11    1
    15    13    33    1
    16    14    13    1
    17    14    15    1
    18    15    18    2
    19    16    17    1
    20    16    15    1
    21    19    14    2
    22    20    21    2
    23    20    19    1
    24    21    26    1
    25    22    21    1
    26    23    22    1
    27    24    23    1
    28    24    25    1
    29    26    27    1
    30    26    13    2
    31    28    35    1
    32    29    32    1
    33    30    29    1
    34    30    43    1
    35    31    28    2
    36    32    40    1
    37    33    36    1
    38    34    42    1
    39    34    29    1
    40    36    35    2
    41    36    39    1
    42    37    41    1
    43    38    37    1
    44    39    42    1
    45    41    31    1
    46    41    33    2
    47    43    40    2
