@<TRIPOS>MOLECULE
outputs/IAG933/test6/raw/output_6986_IAG933_linker_design_.xyz
 44 47 0 0 0
SMALL
GASTEIGER

@<TRIPOS>ATOM
      1 C         -24.8550   -1.0120   30.1430 C.3     1  UNL1        0.0634
      2 C         -24.9730   -2.5050   29.7880 C.2     1  UNL1       -0.0170
      3 C         -23.9060   -3.1730   29.1460 C.2     1  UNL1       -0.0039
      4 C         -23.9890   -4.5490   28.8530 C.2     1  UNL1       -0.0003
      5 C         -25.1370   -5.2800   29.2050 C.2     1  UNL1       -0.0000
      6 C         -26.2320   -4.6110   29.7840 C.2     1  UNL1       -0.0003
      7 C         -26.1550   -3.2320   30.0650 C.2     1  UNL1       -0.0039
      8 C         -25.3870   -0.6790   31.5710 C.3     1  UNL1        0.0809
      9 C         -25.1890    0.7730   32.0280 C.3     1  UNL1        0.0195
     10 C         -25.3360    0.6840   33.5440 C.3     1  UNL1        0.0203
     11 C         -24.8290   -0.7150   33.9050 C.3     1  UNL1        0.0887
     12 N         -24.7580   -1.4810   32.6460 N.3     1  UNL1       -0.2188
     13 C         -25.6880    1.6140   26.4610 C.3     1  UNL1        0.0918
     14 C         -26.2500    2.9200   26.3950 C.2     1  UNL1        0.0589
     15 C         -25.6420    4.0930   27.1230 C.2     1  UNL1        0.2628
     16 N         -25.6140    5.2520   26.4490 N.am    1  UNL1       -0.2000
     17 C         -25.0260    6.4790   26.9630 C.3     1  UNL1        0.1388
     18 O         -25.1430    3.9660   28.2430 O.2     1  UNL1       -0.2686
     19 C         -27.4380    3.0910   25.6450 C.2     1  UNL1        0.1025
     20 N         -28.0750    2.0890   25.0030 N.2     1  UNL1       -0.2118
     21 C         -27.5430    0.8490   25.0790 C.2     1  UNL1        0.2344
     22 O         -28.1930   -0.2080   24.4770 O.2     1  UNL1       -0.4585
     23 C         -29.4600    0.0050   23.8660 C.3     1  UNL1        0.2423
     24 C         -30.0650   -1.3770   23.5730 C.3     1  UNL1        0.2292
     25 O         -30.7290   -1.8780   24.7210 O.3     1  UNL1       -0.2162
     26 C         -26.3540    0.5760   25.7770 C.3     1  UNL1        0.2440
     27 F         -25.8600   -0.6810   25.7950 F       1  UNL1       -0.2265
     28 C         -20.6999    0.0196   28.5249 C.2     1  UNL1        0.0039
     29 C         -24.5466    0.1272   29.5263 C.ar    1  UNL1        0.0203
     30 F         -20.7202    1.9439   27.3742 F       1  UNL1       -0.2044
     31 O         -23.5537    2.8284   25.0232 O.3     1  UNL1       -0.1839
     32 F         -22.7142    1.1117   23.8460 F       1  UNL1       -0.2007
     33 C         -22.9077    1.6867   25.0205 C.3     1  UNL1        0.3140
     34 O         -22.6033    0.5129   30.6507 O.3     1  UNL1       -0.2868
     35 C         -21.1707   -1.1392   29.3550 C.3     1  UNL1        0.0331
     36 C         -23.0488    0.9600   26.1721 C.3     1  UNL1        0.0960
     37 F         -27.5692    0.5990   28.4873 F       1  UNL1       -0.2291
     38 C         -26.7339    1.3151   29.3249 C.3     1  UNL1        0.2192
     39 C         -25.3908    0.8786   28.7718 C.ar    1  UNL1        0.0085
     40 C         -22.7493    0.9494   28.4099 C.ar    1  UNL1        0.0616
     41 C         -21.2714    0.9869   28.0795 C.2     1  UNL1        0.1386
     42 C         -24.9367    1.2359   27.6051 C.ar    1  UNL1       -0.0202
     43 C         -23.5723    1.1321   27.3585 C.ar    1  UNL1       -0.0153
     44 C         -23.2774    0.5799   29.4945 C.ar    1  UNL1        0.1936
@<TRIPOS>BOND
     1     1    29    1
     2     2     7    1
     3     2     1    1
     4     3     2    2
     5     4     3    1
     6     4     5    2
     7     5     6    1
     8     6     7    2
     9     8     1    1
    10     8     9    1
    11     8    12    1
    12     9    10    1
    13    10    11    1
    14    12    11    1
    15    13    42    1
    16    14    13    1
    17    14    15    1
    18    15    18    2
    19    16    17    1
    20    16    15    1
    21    19    14    2
    22    20    21    2
    23    20    19    1
    24    21    26    1
    25    22    21    1
    26    23    22    1
    27    24    23    1
    28    24    25    1
    29    26    27    1
    30    26    13    1
    31    28    35    1
    32    30    41    1
    33    33    32    1
    34    33    31    1
    35    33    36    1
    36    36    43    1
    37    37    38    1
    38    39    38    1
    39    39    29   ar
    40    40    44   ar
    41    41    40    1
    42    41    28    2
    43    42    39   ar
    44    43    42   ar
    45    43    40   ar
    46    44    29   ar
    47    44    34    1
