@<TRIPOS>MOLECULE
outputs/IAG933/test6/raw/output_6989_IAG933_linker_design_.xyz
 48 52 0 0 0
SMALL
GASTEIGER

@<TRIPOS>ATOM
      1 C         -24.8550   -1.0120   30.1430 C.3     1  UNL1        0.0965
      2 C         -24.9730   -2.5050   29.7880 C.2     1  UNL1       -0.0064
      3 C         -23.9060   -3.1730   29.1460 C.2     1  UNL1       -0.0029
      4 C         -23.9890   -4.5490   28.8530 C.2     1  UNL1       -0.0003
      5 C         -25.1370   -5.2800   29.2050 C.2     1  UNL1       -0.0000
      6 C         -26.2320   -4.6110   29.7840 C.2     1  UNL1       -0.0003
      7 C         -26.1550   -3.2320   30.0650 C.2     1  UNL1       -0.0029
      8 C         -25.3870   -0.6790   31.5710 C.3     1  UNL1        0.0916
      9 C         -25.1890    0.7730   32.0280 C.3     1  UNL1        0.0206
     10 C         -25.3360    0.6840   33.5440 C.3     1  UNL1        0.0203
     11 C         -24.8290   -0.7150   33.9050 C.3     1  UNL1        0.0888
     12 N         -24.7580   -1.4810   32.6460 N.3     1  UNL1       -0.2178
     13 C         -25.6880    1.6140   26.4610 C.2     1  UNL1        0.0351
     14 C         -26.2500    2.9200   26.3950 C.2     1  UNL1        0.0763
     15 C         -25.6420    4.0930   27.1230 C.2     1  UNL1        0.2664
     16 N         -25.6140    5.2520   26.4490 N.am    1  UNL1       -0.1997
     17 C         -25.0260    6.4790   26.9630 C.3     1  UNL1        0.1388
     18 O         -25.1430    3.9660   28.2430 O.2     1  UNL1       -0.2683
     19 C         -27.4380    3.0910   25.6450 C.2     1  UNL1        0.1067
     20 N         -28.0750    2.0890   25.0030 N.2     1  UNL1       -0.2081
     21 C         -27.5430    0.8490   25.0790 C.2     1  UNL1        0.2533
     22 O         -28.1930   -0.2080   24.4770 O.2     1  UNL1       -0.4558
     23 C         -29.4600    0.0050   23.8660 C.3     1  UNL1        0.2426
     24 C         -30.0650   -1.3770   23.5730 C.3     1  UNL1        0.2292
     25 O         -30.7290   -1.8780   24.7210 O.3     1  UNL1       -0.2162
     26 C         -26.3540    0.5760   25.7770 C.2     1  UNL1        0.1928
     27 F         -25.8600   -0.6810   25.7950 F       1  UNL1       -0.1992
     28 C         -24.4943    1.4181   27.1652 C.2     1  UNL1       -0.0095
     29 C         -30.6061    3.2143   27.7113 C.2     1  UNL1        0.1402
     30 C         -30.5246    5.0692   29.3127 C.2     1  UNL1        0.0242
     31 O         -30.3243    1.8990   27.4026 O.2     1  UNL1       -0.4754
     32 C         -24.5169    0.7928   28.4246 C.3     1  UNL1        0.0801
     33 C         -30.5113    3.6930   28.9997 C.2     1  UNL1        0.0386
     34 O         -32.9050    6.6558   27.3169 O.3     1  UNL1       -0.2502
     35 C         -22.0237    1.0132   28.5874 C.3     1  UNL1        0.0064
     36 N         -31.9012    6.0392   27.4500 N.3     1  UNL1       -0.2145
     37 C         -31.6076    5.1755   26.4139 C.2     1  UNL1        0.1082
     38 C         -30.4241    0.8745   28.3857 C.3     1  UNL1        0.2054
     39 C         -28.3483    0.0465   29.5701 C.3     1  UNL1        0.0212
     40 N         -25.4564   -0.0535   29.1690 N.3     1  UNL1       -0.2668
     41 C         -23.1677    0.0409   28.5220 C.3     1  UNL1        0.0208
     42 C         -22.0248    2.0707   27.4042 C.3     1  UNL1        0.0258
     43 C         -30.8562    4.0294   26.5210 C.2     1  UNL1        0.0580
     44 C         -29.1965   -0.0237   28.2892 C.3     1  UNL1        0.0488
     45 C         -32.6214    7.5094   26.2823 C.3     1  UNL1        0.2091
     46 C         -26.8643   -0.0003   29.1423 C.3     1  UNL1        0.0727
     47 C         -31.1208    6.1193   28.6066 C.2     1  UNL1        0.1052
     48 C         -23.2726    1.9921   26.5099 C.2     1  UNL1       -0.0290
@<TRIPOS>BOND
     1     1    40    1
     2     2     7    1
     3     2     1    1
     4     3     2    2
     5     4     3    1
     6     4     5    2
     7     5     6    1
     8     6     7    2
     9     8     1    1
    10     8     9    1
    11     8    12    1
    12     9    10    1
    13    10    11    1
    14    12    11    1
    15    13    28    1
    16    14    13    1
    17    14    15    1
    18    15    18    2
    19    16    17    1
    20    16    15    1
    21    19    14    2
    22    20    21    2
    23    20    19    1
    24    21    26    1
    25    22    21    1
    26    23    22    1
    27    24    23    1
    28    24    25    1
    29    26    27    1
    30    26    13    2
    31    28    32    1
    32    29    33    2
    33    31    29    1
    34    31    38    1
    35    32    41    1
    36    32    40    1
    37    33    30    1
    38    34    36    1
    39    36    47    1
    40    37    43    2
    41    37    36    1
    42    41    35    1
    43    42    35    1
    44    43    29    1
    45    44    38    1
    46    44    39    1
    47    45    34    1
    48    46    40    1
    49    46    39    1
    50    47    30    2
    51    48    28    2
    52    48    42    1
