@<TRIPOS>MOLECULE
outputs/IAG933/test6/raw/output_6991_IAG933_linker_design_.xyz
 42 47 0 0 0
SMALL
GASTEIGER

@<TRIPOS>ATOM
      1 C         -24.8550   -1.0120   30.1430 C.3     1  UNL1        0.1541
      2 C         -24.9730   -2.5050   29.7880 C.2     1  UNL1        0.0059
      3 C         -23.9060   -3.1730   29.1460 C.2     1  UNL1       -0.0019
      4 C         -23.9890   -4.5490   28.8530 C.2     1  UNL1       -0.0002
      5 C         -25.1370   -5.2800   29.2050 C.2     1  UNL1       -0.0000
      6 C         -26.2320   -4.6110   29.7840 C.2     1  UNL1       -0.0002
      7 C         -26.1550   -3.2320   30.0650 C.2     1  UNL1       -0.0019
      8 C         -25.3870   -0.6790   31.5710 C.3     1  UNL1        0.1057
      9 C         -25.1890    0.7730   32.0280 C.3     1  UNL1        0.0401
     10 C         -25.3360    0.6840   33.5440 C.3     1  UNL1        0.0220
     11 C         -24.8290   -0.7150   33.9050 C.3     1  UNL1        0.0889
     12 N         -24.7580   -1.4810   32.6460 N.3     1  UNL1       -0.2166
     13 C         -25.6880    1.6140   26.4610 C.2     1  UNL1        0.0367
     14 C         -26.2500    2.9200   26.3950 C.2     1  UNL1        0.0763
     15 C         -25.6420    4.0930   27.1230 C.2     1  UNL1        0.2664
     16 N         -25.6140    5.2520   26.4490 N.am    1  UNL1       -0.1997
     17 C         -25.0260    6.4790   26.9630 C.3     1  UNL1        0.1388
     18 O         -25.1430    3.9660   28.2430 O.2     1  UNL1       -0.2683
     19 C         -27.4380    3.0910   25.6450 C.2     1  UNL1        0.1067
     20 N         -28.0750    2.0890   25.0030 N.2     1  UNL1       -0.2081
     21 C         -27.5430    0.8490   25.0790 C.2     1  UNL1        0.2533
     22 O         -28.1930   -0.2080   24.4770 O.2     1  UNL1       -0.4558
     23 C         -29.4600    0.0050   23.8660 C.3     1  UNL1        0.2426
     24 C         -30.0650   -1.3770   23.5730 C.3     1  UNL1        0.2292
     25 O         -30.7290   -1.8780   24.7210 O.3     1  UNL1       -0.2162
     26 C         -26.3540    0.5760   25.7770 C.2     1  UNL1        0.1928
     27 F         -25.8600   -0.6810   25.7950 F       1  UNL1       -0.1992
     28 C         -27.9555    1.1947   30.0590 C.3     1  UNL1        0.0000
     29 N         -23.9403    2.1749   30.3397 N.pl3   1  UNL1       -0.2409
     30 C         -24.3872    1.3561   27.0593 C.2     1  UNL1        0.0125
     31 C         -23.4866    1.3258   29.2180 C.2     1  UNL1        0.0741
     32 C         -24.9981    2.0726   31.3307 C.3     1  UNL1        0.0936
     33 O         -25.1501   -0.2410   28.9290 O.3     1  UNL1       -0.3427
     34 C         -21.9270    1.0794   28.9986 C.2     1  UNL1        0.0144
     35 C         -27.3180    3.3110   31.8169 C.3     1  UNL1        0.0018
     36 C         -28.0147    2.5493   29.3818 C.3     1  UNL1        0.0000
     37 C         -24.3611    0.8123   28.4079 C.3     1  UNL1        0.1748
     38 C         -23.3112    1.7293   26.1615 C.2     1  UNL1       -0.0015
     39 C         -25.7868    3.3246   31.6670 C.3     1  UNL1        0.0216
     40 C         -21.8845    1.7758   26.4516 C.2     1  UNL1       -0.0002
     41 C         -21.1672    1.4073   27.7281 C.2     1  UNL1        0.0011
     42 C         -28.1814    2.5108   30.8877 C.3     1  UNL1        0.0001
@<TRIPOS>BOND
     1     1     2    1
     2     1     8    1
     3     2     7    1
     4     3     2    2
     5     4     3    1
     6     4     5    2
     7     5     6    1
     8     6     7    2
     9     8     9    1
    10     8    12    1
    11     9    10    1
    12    10    11    1
    13    12    11    1
    14    13    30    1
    15    14    13    1
    16    14    15    1
    17    15    18    2
    18    16    17    1
    19    16    15    1
    20    19    14    2
    21    20    21    2
    22    20    19    1
    23    21    26    1
    24    22    21    1
    25    23    22    1
    26    24    23    1
    27    24    25    1
    28    26    27    1
    29    26    13    2
    30    28    42    1
    31    29    32    1
    32    31    29    1
    33    32    39    1
    34    32     9    1
    35    33     1    1
    36    34    31    2
    37    36    28    1
    38    36    42    1
    39    37    30    1
    40    37    33    1
    41    37    31    1
    42    38    40    1
    43    38    30    2
    44    39    35    1
    45    40    41    2
    46    41    34    1
    47    42    35    1
