@<TRIPOS>MOLECULE
outputs/IAG933/test6/raw/output_70_IAG933_linker_design_.xyz
 44 47 0 0 0
SMALL
GASTEIGER

@<TRIPOS>ATOM
      1 C         -24.8550   -1.0120   30.1430 C.3     1  UNL1        0.0613
      2 C         -24.9730   -2.5050   29.7880 C.2     1  UNL1       -0.0194
      3 C         -23.9060   -3.1730   29.1460 C.2     1  UNL1       -0.0042
      4 C         -23.9890   -4.5490   28.8530 C.2     1  UNL1       -0.0003
      5 C         -25.1370   -5.2800   29.2050 C.2     1  UNL1       -0.0000
      6 C         -26.2320   -4.6110   29.7840 C.2     1  UNL1       -0.0003
      7 C         -26.1550   -3.2320   30.0650 C.2     1  UNL1       -0.0042
      8 C         -25.3870   -0.6790   31.5710 C.3     1  UNL1        0.0786
      9 C         -25.1890    0.7730   32.0280 C.3     1  UNL1        0.0193
     10 C         -25.3360    0.6840   33.5440 C.3     1  UNL1        0.0202
     11 C         -24.8290   -0.7150   33.9050 C.3     1  UNL1        0.0887
     12 N         -24.7580   -1.4810   32.6460 N.3     1  UNL1       -0.2191
     13 C         -25.6880    1.6140   26.4610 C.3     1  UNL1        0.1856
     14 C         -26.2500    2.9200   26.3950 C.2     1  UNL1        0.0820
     15 C         -25.6420    4.0930   27.1230 C.2     1  UNL1        0.2647
     16 N         -25.6140    5.2520   26.4490 N.am    1  UNL1       -0.1999
     17 C         -25.0260    6.4790   26.9630 C.3     1  UNL1        0.1388
     18 O         -25.1430    3.9660   28.2430 O.2     1  UNL1       -0.2686
     19 C         -27.4380    3.0910   25.6450 C.2     1  UNL1        0.1045
     20 N         -28.0750    2.0890   25.0030 N.2     1  UNL1       -0.2117
     21 C         -27.5430    0.8490   25.0790 C.2     1  UNL1        0.2367
     22 O         -28.1930   -0.2080   24.4770 O.2     1  UNL1       -0.4585
     23 C         -29.4600    0.0050   23.8660 C.3     1  UNL1        0.2423
     24 C         -30.0650   -1.3770   23.5730 C.3     1  UNL1        0.2292
     25 O         -30.7290   -1.8780   24.7210 O.3     1  UNL1       -0.2162
     26 C         -26.3540    0.5760   25.7770 C.3     1  UNL1        0.2670
     27 F         -25.8600   -0.6810   25.7950 F       1  UNL1       -0.2242
     28 O         -31.3587    2.2831   31.6769 O.3     1  UNL1       -0.2230
     29 C         -29.8383    0.4064   31.8103 C.3     1  UNL1        0.0356
     30 O         -21.9804    1.2696   27.9784 O.3     1  UNL1       -0.4427
     31 O         -22.4605   -0.2588   29.5348 O.2     1  UNL1       -0.2473
     32 O         -27.8676    1.8631   30.6355 O.3     1  UNL1       -0.3443
     33 O         -28.5435   -0.7138   28.4310 O.2     1  UNL1       -0.2707
     34 C         -22.8518    0.4682   28.5803 C.2     1  UNL1        0.3463
     35 C         -21.7785    2.0255   26.7490 C.3     1  UNL1        0.2557
     36 N         -26.6175    0.2557   28.6371 N.am    1  UNL1       -0.2017
     37 C         -28.8216    2.7592   31.2591 C.3     1  UNL1        0.1729
     38 C         -28.6382    1.3695   29.4556 C.3     1  UNL1        0.1951
     39 C         -25.2881   -0.0125   29.0088 C.3     1  UNL1        0.1387
     40 C         -30.0924    1.8359   31.1787 C.3     1  UNL1        0.1567
     41 C         -27.9844    0.3064   28.6590 C.2     1  UNL1        0.2687
     42 O         -24.3438    1.3382   26.7972 O.3     1  UNL1       -0.3383
     43 C         -30.1438    1.6425   29.6201 C.3     1  UNL1        0.0720
     44 C         -24.2116    0.5234   28.0810 C.3     1  UNL1        0.2341
@<TRIPOS>BOND
     1     1    39    1
     2     2     7    1
     3     2     1    1
     4     3     2    2
     5     4     3    1
     6     4     5    2
     7     5     6    1
     8     6     7    2
     9     8     1    1
    10     8     9    1
    11     8    12    1
    12     9    10    1
    13    10    11    1
    14    12    11    1
    15    13    42    1
    16    14    13    1
    17    14    15    1
    18    15    18    2
    19    16    17    1
    20    16    15    1
    21    19    14    2
    22    20    21    2
    23    20    19    1
    24    21    26    1
    25    22    21    1
    26    23    22    1
    27    24    23    1
    28    24    25    1
    29    26    27    1
    30    26    13    1
    31    30    34    1
    32    32    37    1
    33    33    41    2
    34    34    31    2
    35    35    30    1
    36    36    41    1
    37    38    41    1
    38    38    43    1
    39    38    32    1
    40    39    36    1
    41    40    37    1
    42    40    28    1
    43    40    29    1
    44    43    40    1
    45    44    42    1
    46    44    34    1
    47    44    39    1
