@<TRIPOS>MOLECULE
outputs/IAG933/test6/raw/output_7000_IAG933_linker_design_.xyz
 44 48 0 0 0
SMALL
GASTEIGER

@<TRIPOS>ATOM
      1 C         -24.8550   -1.0120   30.1430 C.3     1  UNL1        0.0587
      2 C         -24.9730   -2.5050   29.7880 C.2     1  UNL1       -0.0195
      3 C         -23.9060   -3.1730   29.1460 C.2     1  UNL1       -0.0042
      4 C         -23.9890   -4.5490   28.8530 C.2     1  UNL1       -0.0003
      5 C         -25.1370   -5.2800   29.2050 C.2     1  UNL1       -0.0000
      6 C         -26.2320   -4.6110   29.7840 C.2     1  UNL1       -0.0003
      7 C         -26.1550   -3.2320   30.0650 C.2     1  UNL1       -0.0042
      8 C         -25.3870   -0.6790   31.5710 C.3     1  UNL1        0.0785
      9 C         -25.1890    0.7730   32.0280 C.3     1  UNL1        0.0192
     10 C         -25.3360    0.6840   33.5440 C.3     1  UNL1        0.0202
     11 C         -24.8290   -0.7150   33.9050 C.3     1  UNL1        0.0887
     12 N         -24.7580   -1.4810   32.6460 N.3     1  UNL1       -0.2191
     13 C         -25.6880    1.6140   26.4610 C.2     1  UNL1        0.0409
     14 C         -26.2500    2.9200   26.3950 C.2     1  UNL1        0.0766
     15 C         -25.6420    4.0930   27.1230 C.2     1  UNL1        0.2664
     16 N         -25.6140    5.2520   26.4490 N.am    1  UNL1       -0.1997
     17 C         -25.0260    6.4790   26.9630 C.3     1  UNL1        0.1388
     18 O         -25.1430    3.9660   28.2430 O.2     1  UNL1       -0.2683
     19 C         -27.4380    3.0910   25.6450 C.2     1  UNL1        0.1067
     20 N         -28.0750    2.0890   25.0030 N.2     1  UNL1       -0.2081
     21 C         -27.5430    0.8490   25.0790 C.2     1  UNL1        0.2533
     22 O         -28.1930   -0.2080   24.4770 O.2     1  UNL1       -0.4558
     23 C         -29.4600    0.0050   23.8660 C.3     1  UNL1        0.2426
     24 C         -30.0650   -1.3770   23.5730 C.3     1  UNL1        0.2292
     25 O         -30.7290   -1.8780   24.7210 O.3     1  UNL1       -0.2162
     26 C         -26.3540    0.5760   25.7770 C.2     1  UNL1        0.1931
     27 F         -25.8600   -0.6810   25.7950 F       1  UNL1       -0.1992
     28 C         -24.2891    0.5998   28.3377 C.2     1  UNL1        0.0246
     29 C         -28.9961    1.5601   28.2229 C.3     1  UNL1        0.2040
     30 C         -21.9289    1.4112   26.8881 C.2     1  UNL1        0.0435
     31 C         -27.6326   -0.5136   28.7739 C.3     1  UNL1        0.1282
     32 O         -29.9428   -0.7412   28.2443 O.3     1  UNL1       -0.2188
     33 C         -21.7799    0.8605   28.1317 C.2     1  UNL1        0.0326
     34 C         -25.2506    0.0317   29.0973 C.3     1  UNL1        0.1062
     35 C         -23.2109    1.6304   26.4193 C.2     1  UNL1        0.1888
     36 C         -22.8972    0.4519   28.8060 C.2     1  UNL1        0.1376
     37 C         -24.3924    1.2821   27.0892 C.2     1  UNL1        0.0402
     38 N         -26.5623    0.4561   28.9616 N.3     1  UNL1       -0.1725
     39 O         -23.4369    2.1376   25.1589 O.2     1  UNL1       -0.2920
     40 F         -22.5670   -0.0034   30.0435 F       1  UNL1       -0.2045
     41 O         -28.0874    2.3377   29.0672 O.3     1  UNL1       -0.2489
     42 C         -28.9894    0.1526   28.8420 C.3     1  UNL1        0.2010
     43 F         -22.4230    2.6199   24.8077 F       1  UNL1        0.0138
     44 N         -27.1875    1.5590   29.7020 N.3     1  UNL1       -0.0022
@<TRIPOS>BOND
     1     1    34    1
     2     2     7    1
     3     2     1    1
     4     3     2    2
     5     4     3    1
     6     4     5    2
     7     5     6    1
     8     6     7    2
     9     8     1    1
    10     8     9    1
    11     8    12    1
    12     9    10    1
    13    10    11    1
    14    12    11    1
    15    13    37    1
    16    14    13    1
    17    14    15    1
    18    15    18    2
    19    16    17    1
    20    16    15    1
    21    19    14    2
    22    20    21    2
    23    20    19    1
    24    21    26    1
    25    22    21    1
    26    23    22    1
    27    24    23    1
    28    24    25    1
    29    26    27    1
    30    26    13    2
    31    28    36    1
    32    29    42    1
    33    29    41    1
    34    30    33    1
    35    31    42    1
    36    31    38    1
    37    33    36    2
    38    34    28    1
    39    35    30    2
    40    35    37    1
    41    36    40    1
    42    37    28    2
    43    38    34    1
    44    38    44    1
    45    39    35    1
    46    41    44    1
    47    42    32    1
    48    43    39    1
