@<TRIPOS>MOLECULE
outputs/IAG933/test6/raw/output_7002_IAG933_linker_design_.xyz
 42 46 0 0 0
SMALL
GASTEIGER

@<TRIPOS>ATOM
      1 C         -24.8550   -1.0120   30.1430 C.3     1  UNL1        0.0581
      2 C         -24.9730   -2.5050   29.7880 C.2     1  UNL1       -0.0173
      3 C         -23.9060   -3.1730   29.1460 C.2     1  UNL1       -0.0039
      4 C         -23.9890   -4.5490   28.8530 C.2     1  UNL1       -0.0003
      5 C         -25.1370   -5.2800   29.2050 C.2     1  UNL1       -0.0000
      6 C         -26.2320   -4.6110   29.7840 C.2     1  UNL1       -0.0003
      7 C         -26.1550   -3.2320   30.0650 C.2     1  UNL1       -0.0039
      8 C         -25.3870   -0.6790   31.5710 C.3     1  UNL1        0.0806
      9 C         -25.1890    0.7730   32.0280 C.3     1  UNL1        0.0195
     10 C         -25.3360    0.6840   33.5440 C.3     1  UNL1        0.0203
     11 C         -24.8290   -0.7150   33.9050 C.3     1  UNL1        0.0887
     12 N         -24.7580   -1.4810   32.6460 N.3     1  UNL1       -0.2188
     13 C         -25.6880    1.6140   26.4610 C.2     1  UNL1        0.0392
     14 C         -26.2500    2.9200   26.3950 C.2     1  UNL1        0.0766
     15 C         -25.6420    4.0930   27.1230 C.2     1  UNL1        0.2664
     16 N         -25.6140    5.2520   26.4490 N.am    1  UNL1       -0.1997
     17 C         -25.0260    6.4790   26.9630 C.3     1  UNL1        0.1388
     18 O         -25.1430    3.9660   28.2430 O.2     1  UNL1       -0.2683
     19 C         -27.4380    3.0910   25.6450 C.2     1  UNL1        0.1067
     20 N         -28.0750    2.0890   25.0030 N.2     1  UNL1       -0.2081
     21 C         -27.5430    0.8490   25.0790 C.2     1  UNL1        0.2533
     22 O         -28.1930   -0.2080   24.4770 O.2     1  UNL1       -0.4558
     23 C         -29.4600    0.0050   23.8660 C.3     1  UNL1        0.2426
     24 C         -30.0650   -1.3770   23.5730 C.3     1  UNL1        0.2292
     25 O         -30.7290   -1.8780   24.7210 O.3     1  UNL1       -0.2162
     26 C         -26.3540    0.5760   25.7770 C.2     1  UNL1        0.1931
     27 F         -25.8600   -0.6810   25.7950 F       1  UNL1       -0.1992
     28 C         -21.7608    0.2901   28.4839 C.2     1  UNL1       -0.0022
     29 C         -22.9163    2.1243   25.6648 C.3     1  UNL1        0.2251
     30 O         -21.5553    2.3163   25.8045 O.3     1  UNL1       -0.1677
     31 C         -28.4235    1.1303   29.9955 C.3     1  UNL1        0.0968
     32 C         -22.0955    1.2675   27.5105 C.2     1  UNL1        0.1737
     33 C         -24.6320    1.3006   27.3071 C.2     1  UNL1        0.0188
     34 C         -22.7630   -0.3419   29.1788 C.3     1  UNL1        0.0488
     35 C         -27.2855    0.5014   29.2267 C.2     1  UNL1        0.2460
     36 C         -20.4241   -0.0804   28.6403 C.3     1  UNL1        0.0300
     37 O         -21.2175    2.1075   27.1043 O.2     1  UNL1       -0.3341
     38 O         -27.4403   -0.5647   28.6630 O.2     1  UNL1       -0.2730
     39 N         -26.1461    1.2418   29.1683 N.am    1  UNL1       -0.1798
     40 C         -24.1945   -0.1235   29.2228 C.2     1  UNL1       -0.0196
     41 C         -23.2653    1.4682   26.8986 C.2     1  UNL1        0.0502
     42 C         -25.0088    0.7737   28.5620 C.2     1  UNL1        0.0660
@<TRIPOS>BOND
     1     1    40    1
     2     2     7    1
     3     2     1    1
     4     3     2    2
     5     4     3    1
     6     4     5    2
     7     5     6    1
     8     6     7    2
     9     8     1    1
    10     8     9    1
    11     8    12    1
    12     9    10    1
    13    10    11    1
    14    12    11    1
    15    13    33    1
    16    14    13    1
    17    14    15    1
    18    15    18    2
    19    16    17    1
    20    16    15    1
    21    19    14    2
    22    20    21    2
    23    20    19    1
    24    21    26    1
    25    22    21    1
    26    23    22    1
    27    24    23    1
    28    24    25    1
    29    26    27    1
    30    26    13    2
    31    28    36    1
    32    28    34    1
    33    29    30    1
    34    29    41    1
    35    30    37    1
    36    32    28    2
    37    33    42    1
    38    34    40    1
    39    35    31    1
    40    37    32    1
    41    38    35    2
    42    39    35    1
    43    41    33    2
    44    41    32    1
    45    42    39    1
    46    42    40    2
