@<TRIPOS>MOLECULE
outputs/IAG933/test6/raw/output_7004_IAG933_linker_design_.xyz
 41 44 0 0 0
SMALL
GASTEIGER

@<TRIPOS>ATOM
      1 C         -24.8550   -1.0120   30.1430 C.3     1  UNL1        0.0664
      2 C         -24.9730   -2.5050   29.7880 C.2     1  UNL1       -0.0189
      3 C         -23.9060   -3.1730   29.1460 C.2     1  UNL1       -0.0042
      4 C         -23.9890   -4.5490   28.8530 C.2     1  UNL1       -0.0003
      5 C         -25.1370   -5.2800   29.2050 C.2     1  UNL1       -0.0000
      6 C         -26.2320   -4.6110   29.7840 C.2     1  UNL1       -0.0003
      7 C         -26.1550   -3.2320   30.0650 C.2     1  UNL1       -0.0042
      8 C         -25.3870   -0.6790   31.5710 C.3     1  UNL1        0.0791
      9 C         -25.1890    0.7730   32.0280 C.3     1  UNL1        0.0193
     10 C         -25.3360    0.6840   33.5440 C.3     1  UNL1        0.0202
     11 C         -24.8290   -0.7150   33.9050 C.3     1  UNL1        0.0887
     12 N         -24.7580   -1.4810   32.6460 N.3     1  UNL1       -0.2191
     13 C         -25.6880    1.6140   26.4610 C.2     1  UNL1        0.0414
     14 C         -26.2500    2.9200   26.3950 C.2     1  UNL1        0.0765
     15 C         -25.6420    4.0930   27.1230 C.2     1  UNL1        0.2664
     16 N         -25.6140    5.2520   26.4490 N.am    1  UNL1       -0.1997
     17 C         -25.0260    6.4790   26.9630 C.3     1  UNL1        0.1388
     18 O         -25.1430    3.9660   28.2430 O.2     1  UNL1       -0.2683
     19 C         -27.4380    3.0910   25.6450 C.2     1  UNL1        0.1067
     20 N         -28.0750    2.0890   25.0030 N.2     1  UNL1       -0.2081
     21 C         -27.5430    0.8490   25.0790 C.2     1  UNL1        0.2533
     22 O         -28.1930   -0.2080   24.4770 O.2     1  UNL1       -0.4558
     23 C         -29.4600    0.0050   23.8660 C.3     1  UNL1        0.2426
     24 C         -30.0650   -1.3770   23.5730 C.3     1  UNL1        0.2292
     25 O         -30.7290   -1.8780   24.7210 O.3     1  UNL1       -0.2162
     26 C         -26.3540    0.5760   25.7770 C.2     1  UNL1        0.1930
     27 F         -25.8600   -0.6810   25.7950 F       1  UNL1       -0.1992
     28 P         -29.4808   -0.5435   29.2362 P.3     1  UNL1        0.1532
     29 C         -24.3617    1.2884   27.0281 C.2     1  UNL1        0.0700
     30 N         -22.9505    0.3643   28.6715 N.2     1  UNL1       -0.2102
     31 C         -29.4388   -2.0721   29.9649 C.3     1  UNL1        0.0735
     32 F         -23.1292    2.2312   25.1897 F       1  UNL1       -0.1832
     33 O         -22.0136    1.7499   27.0374 O.2     1  UNL1       -0.4257
     34 C         -28.0524   -0.1658   28.4352 C.2     1  UNL1        0.1255
     35 C         -29.7637    0.7163   30.3230 C.3     1  UNL1        0.0735
     36 C         -23.1763    1.7717   26.4310 C.3     1  UNL1        0.3536
     37 C         -21.9207    1.0259   28.1489 C.2     1  UNL1        0.2820
     38 C         -25.3821   -0.0626   29.0504 C.3     1  UNL1        0.1484
     39 N         -26.8559   -0.1602   29.1440 N.2     1  UNL1       -0.2615
     40 O         -30.4773   -0.5128   28.0618 O.2     1  UNL1       -0.3134
     41 C         -24.1884    0.5244   28.2029 C.2     1  UNL1        0.0870
@<TRIPOS>BOND
     1     1    38    1
     2     2     7    1
     3     2     1    1
     4     3     2    2
     5     4     3    1
     6     4     5    2
     7     5     6    1
     8     6     7    2
     9     8     1    1
    10     8     9    1
    11     8    12    1
    12     9    10    1
    13    10    11    1
    14    12    11    1
    15    13    29    1
    16    14    13    1
    17    14    15    1
    18    15    18    2
    19    16    17    1
    20    16    15    1
    21    19    14    2
    22    20    21    2
    23    20    19    1
    24    21    26    1
    25    22    21    1
    26    23    22    1
    27    24    23    1
    28    24    25    1
    29    26    27    1
    30    26    13    2
    31    28    31    1
    32    28    35    1
    33    29    41    2
    34    33    37    1
    35    34    39    2
    36    34    28    1
    37    36    32    1
    38    36    29    1
    39    36    33    1
    40    37    30    2
    41    38    39    1
    42    40    28    2
    43    41    30    1
    44    41    38    1
