@<TRIPOS>MOLECULE
outputs/IAG933/test6/raw/output_7006_IAG933_linker_design_.xyz
 42 46 0 0 0
SMALL
GASTEIGER

@<TRIPOS>ATOM
      1 C         -24.8550   -1.0120   30.1430 C.3     1  UNL1        0.0621
      2 C         -24.9730   -2.5050   29.7880 C.2     1  UNL1       -0.0170
      3 C         -23.9060   -3.1730   29.1460 C.2     1  UNL1       -0.0039
      4 C         -23.9890   -4.5490   28.8530 C.2     1  UNL1       -0.0003
      5 C         -25.1370   -5.2800   29.2050 C.2     1  UNL1       -0.0000
      6 C         -26.2320   -4.6110   29.7840 C.2     1  UNL1       -0.0003
      7 C         -26.1550   -3.2320   30.0650 C.2     1  UNL1       -0.0039
      8 C         -25.3870   -0.6790   31.5710 C.3     1  UNL1        0.0809
      9 C         -25.1890    0.7730   32.0280 C.3     1  UNL1        0.0195
     10 C         -25.3360    0.6840   33.5440 C.3     1  UNL1        0.0203
     11 C         -24.8290   -0.7150   33.9050 C.3     1  UNL1        0.0887
     12 N         -24.7580   -1.4810   32.6460 N.3     1  UNL1       -0.2188
     13 C         -25.6880    1.6140   26.4610 C.3     1  UNL1        0.1556
     14 C         -26.2500    2.9200   26.3950 C.2     1  UNL1        0.0756
     15 C         -25.6420    4.0930   27.1230 C.2     1  UNL1        0.2642
     16 N         -25.6140    5.2520   26.4490 N.am    1  UNL1       -0.1999
     17 C         -25.0260    6.4790   26.9630 C.3     1  UNL1        0.1388
     18 O         -25.1430    3.9660   28.2430 O.2     1  UNL1       -0.2686
     19 C         -27.4380    3.0910   25.6450 C.2     1  UNL1        0.1040
     20 N         -28.0750    2.0890   25.0030 N.2     1  UNL1       -0.2117
     21 C         -27.5430    0.8490   25.0790 C.2     1  UNL1        0.2361
     22 O         -28.1930   -0.2080   24.4770 O.2     1  UNL1       -0.4585
     23 C         -29.4600    0.0050   23.8660 C.3     1  UNL1        0.2423
     24 C         -30.0650   -1.3770   23.5730 C.3     1  UNL1        0.2292
     25 O         -30.7290   -1.8780   24.7210 O.3     1  UNL1       -0.2162
     26 C         -26.3540    0.5760   25.7770 C.3     1  UNL1        0.2606
     27 F         -25.8600   -0.6810   25.7950 F       1  UNL1       -0.2248
     28 C         -27.6212    0.4987   28.8496 C.2     1  UNL1        0.1888
     29 C         -28.2556    1.8414   29.1826 C.3     1  UNL1        0.0789
     30 C         -21.5313    1.4705   27.4342 C.2     1  UNL1        0.0070
     31 C         -23.8626    0.4746   28.6587 C.ar    1  UNL1        0.0138
     32 O         -23.7285    2.2019   24.8745 O.2     1  UNL1       -0.2540
     33 C         -22.7582    2.0965   25.5473 C.2     1  UNL1        0.3348
     34 N         -25.0984    1.1889   27.6084 N.ar    1  UNL1       -0.3196
     35 C         -21.4525    0.8122   28.6488 C.2     1  UNL1        0.0003
     36 O         -28.2697   -0.4797   28.8750 O.2     1  UNL1       -0.2898
     37 C         -26.1886    0.4508   28.5634 C.ar    1  UNL1        0.0916
     38 C         -22.5497    0.2715   29.2675 C.2     1  UNL1        0.0012
     39 C         -25.2880   -0.1180   29.2209 C.ar    1  UNL1        0.0029
     40 F         -21.6402    2.3902   24.9714 F       1  UNL1       -0.1585
     41 C         -22.8089    1.6015   26.9155 C.2     1  UNL1        0.0835
     42 C         -23.9433    1.1820   27.6253 C.ar    1  UNL1        0.0653
@<TRIPOS>BOND
     1     1    39    1
     2     2     7    1
     3     2     1    1
     4     3     2    2
     5     4     3    1
     6     4     5    2
     7     5     6    1
     8     6     7    2
     9     8     1    1
    10     8     9    1
    11     8    12    1
    12     9    10    1
    13    10    11    1
    14    12    11    1
    15    13    34    1
    16    14    13    1
    17    14    15    1
    18    15    18    2
    19    16    17    1
    20    16    15    1
    21    19    14    2
    22    20    21    2
    23    20    19    1
    24    21    26    1
    25    22    21    1
    26    23    22    1
    27    24    23    1
    28    24    25    1
    29    26    27    1
    30    26    13    1
    31    28    36    2
    32    28    29    1
    33    30    35    1
    34    31    39   ar
    35    31    38    1
    36    32    33    2
    37    33    41    1
    38    34    42   ar
    39    34    37   ar
    40    35    38    2
    41    37    28    1
    42    37    39   ar
    43    40    33    1
    44    41    30    2
    45    41    42    1
    46    42    31   ar
