@<TRIPOS>MOLECULE
outputs/IAG933/test6/raw/output_7007_IAG933_linker_design_.xyz
 42 46 0 0 0
SMALL
GASTEIGER

@<TRIPOS>ATOM
      1 C         -24.8550   -1.0120   30.1430 C.3     1  UNL1        0.0646
      2 C         -24.9730   -2.5050   29.7880 C.2     1  UNL1       -0.0191
      3 C         -23.9060   -3.1730   29.1460 C.2     1  UNL1       -0.0042
      4 C         -23.9890   -4.5490   28.8530 C.2     1  UNL1       -0.0003
      5 C         -25.1370   -5.2800   29.2050 C.2     1  UNL1       -0.0000
      6 C         -26.2320   -4.6110   29.7840 C.2     1  UNL1       -0.0003
      7 C         -26.1550   -3.2320   30.0650 C.2     1  UNL1       -0.0042
      8 C         -25.3870   -0.6790   31.5710 C.3     1  UNL1        0.0789
      9 C         -25.1890    0.7730   32.0280 C.3     1  UNL1        0.0193
     10 C         -25.3360    0.6840   33.5440 C.3     1  UNL1        0.0202
     11 C         -24.8290   -0.7150   33.9050 C.3     1  UNL1        0.0887
     12 N         -24.7580   -1.4810   32.6460 N.3     1  UNL1       -0.2191
     13 C         -25.6880    1.6140   26.4610 C.2     1  UNL1        0.0407
     14 C         -26.2500    2.9200   26.3950 C.2     1  UNL1        0.0755
     15 C         -25.6420    4.0930   27.1230 C.2     1  UNL1        0.2376
     16 N         -25.6140    5.2520   26.4490 N.2     1  UNL1       -0.2347
     17 C         -25.0260    6.4790   26.9630 C.3     1  UNL1        0.1550
     18 O         -25.1430    3.9660   28.2430 O.2     1  UNL1       -0.3846
     19 C         -27.4380    3.0910   25.6450 C.2     1  UNL1        0.1068
     20 N         -28.0750    2.0890   25.0030 N.2     1  UNL1       -0.2081
     21 C         -27.5430    0.8490   25.0790 C.2     1  UNL1        0.2533
     22 O         -28.1930   -0.2080   24.4770 O.2     1  UNL1       -0.4558
     23 C         -29.4600    0.0050   23.8660 C.3     1  UNL1        0.2426
     24 C         -30.0650   -1.3770   23.5730 C.3     1  UNL1        0.2292
     25 O         -30.7290   -1.8780   24.7210 O.3     1  UNL1       -0.2162
     26 C         -26.3540    0.5760   25.7770 C.2     1  UNL1        0.1931
     27 F         -25.8600   -0.6810   25.7950 F       1  UNL1       -0.1992
     28 N         -24.7322    1.2276   29.1341 N.pl3   1  UNL1       -0.2225
     29 C         -27.0071    2.4315   29.2684 C.3     1  UNL1        0.1905
     30 O         -21.4192    1.9976   25.9223 O.2     1  UNL1       -0.4714
     31 O         -24.8451    3.1367   30.6174 O.3     1  UNL1       -0.1143
     32 C         -21.3289   -0.0916   28.9706 C.2     1  UNL1        0.0044
     33 C         -23.4184    1.0288   28.8009 C.2     1  UNL1        0.0638
     34 O         -28.1031    0.4391   29.6149 O.2     1  UNL1       -0.2932
     35 S         -25.5818    2.9322   29.1476 S.3     1  UNL1        0.1485
     36 C         -25.6651    0.0128   29.2281 C.3     1  UNL1        0.1506
     37 C         -27.1228    0.9833   29.3952 C.2     1  UNL1        0.1863
     38 C         -21.7378    1.5034   27.1709 C.2     1  UNL1        0.1400
     39 C         -22.6180    0.0875   29.4499 C.2     1  UNL1        0.0156
     40 C         -22.9347    1.7585   27.7514 C.2     1  UNL1        0.0523
     41 C         -20.8879    0.6410   27.8728 C.2     1  UNL1        0.0370
     42 C         -22.5453    2.2145   25.0720 C.3     1  UNL1        0.2525
@<TRIPOS>BOND
     1     1     2    1
     2     2     7    1
     3     3     2    2
     4     4     3    1
     5     4     5    2
     6     5     6    1
     7     6     7    2
     8     8     1    1
     9     8     9    1
    10     8    12    1
    11     9    10    1
    12    10    11    1
    13    12    11    1
    14    14    13    1
    15    14    15    1
    16    15    18    1
    17    16    17    1
    18    16    15    2
    19    18    35    1
    20    19    14    2
    21    20    21    2
    22    20    19    1
    23    21    26    1
    24    22    21    1
    25    23    22    1
    26    24    23    1
    27    24    25    1
    28    26    27    1
    29    26    13    2
    30    28    35    1
    31    28    36    1
    32    29    37    1
    33    30    38    1
    34    32    39    1
    35    33    28    1
    36    33    39    2
    37    35    29    1
    38    35    31    1
    39    36    37    1
    40    36     1    1
    41    37    34    2
    42    38    40    2
    43    38    41    1
    44    40    33    1
    45    41    32    2
    46    42    30    1
