@<TRIPOS>MOLECULE
No_701-gen_results/8p0m/2024-11-27-11-27-31/
 14 14 0 0 0
SMALL
GASTEIGER

@<TRIPOS>ATOM
      1 C         -28.0162   -0.8135   28.8779 C.ar    1  UNL1        0.0026
      2 C         -28.4690   -0.7850   29.8287 C.ar    1  UNL1        0.0795
      3 C         -26.5042   -0.7777   28.8766 C.ar    1  UNL1       -0.0176
      4 C         -25.8103   -0.8531   30.1028 C.ar    1  UNL1       -0.0039
      5 C         -27.9906   -0.8916   31.2257 C.ar    1  UNL1        0.0066
      6 C         -26.6042   -0.8676   31.2652 C.ar    1  UNL1       -0.0001
      7 C         -30.0773   -0.8857   30.0240 C.2     1  UNL1        0.3877
      8 O         -30.6406   -1.8993   30.1420 O.co2   1  UNL1       -0.2406
      9 O         -30.7306    0.2547   29.8034 O.co2   1  UNL1       -0.2406
     10 C         -25.6668   -0.7064   27.6792 C.3     1  UNL1        0.0530
     11 C         -25.9298    0.3750   26.7782 C.2     1  UNL1       -0.0105
     12 C         -25.5740    1.3363   26.6437 C.2     1  UNL1        0.0738
     13 C         -24.6418    1.9337   27.7089 C.1     1  UNL1        0.1008
     14 N         -23.7551    2.3776   27.8485 N.1     1  UNL1       -0.1908
@<TRIPOS>BOND
     1     2     7    1
     2     7     8   ar
     3     7     9   ar
     4     3    10    1
     5    10    11    1
     6    11    12    2
     7    12    13    1
     8    13    14    3
     9     1     2   ar
    10     2     5   ar
    11     5     6   ar
    12     6     4   ar
    13     4     3   ar
    14     3     1   ar
