@<TRIPOS>MOLECULE
outputs/IAG933/test6/raw/output_7014_IAG933_linker_design_.xyz
 46 51 0 0 0
SMALL
GASTEIGER

@<TRIPOS>ATOM
      1 C         -24.8550   -1.0120   30.1430 C.3     1  UNL1        0.0631
      2 C         -24.9730   -2.5050   29.7880 C.2     1  UNL1       -0.0170
      3 C         -23.9060   -3.1730   29.1460 C.2     1  UNL1       -0.0039
      4 C         -23.9890   -4.5490   28.8530 C.2     1  UNL1       -0.0003
      5 C         -25.1370   -5.2800   29.2050 C.2     1  UNL1       -0.0000
      6 C         -26.2320   -4.6110   29.7840 C.2     1  UNL1       -0.0003
      7 C         -26.1550   -3.2320   30.0650 C.2     1  UNL1       -0.0039
      8 C         -25.3870   -0.6790   31.5710 C.3     1  UNL1        0.0809
      9 C         -25.1890    0.7730   32.0280 C.3     1  UNL1        0.0195
     10 C         -25.3360    0.6840   33.5440 C.3     1  UNL1        0.0203
     11 C         -24.8290   -0.7150   33.9050 C.3     1  UNL1        0.0887
     12 N         -24.7580   -1.4810   32.6460 N.3     1  UNL1       -0.2188
     13 C         -25.6880    1.6140   26.4610 C.2     1  UNL1        0.0403
     14 C         -26.2500    2.9200   26.3950 C.2     1  UNL1        0.0744
     15 C         -25.6420    4.0930   27.1230 C.2     1  UNL1        0.2220
     16 N         -25.6140    5.2520   26.4490 N.2     1  UNL1       -0.2357
     17 C         -25.0260    6.4790   26.9630 C.3     1  UNL1        0.1550
     18 O         -25.1430    3.9660   28.2430 O.2     1  UNL1       -0.4585
     19 C         -27.4380    3.0910   25.6450 C.2     1  UNL1        0.1068
     20 N         -28.0750    2.0890   25.0030 N.2     1  UNL1       -0.2081
     21 C         -27.5430    0.8490   25.0790 C.2     1  UNL1        0.2533
     22 O         -28.1930   -0.2080   24.4770 O.2     1  UNL1       -0.4558
     23 C         -29.4600    0.0050   23.8660 C.3     1  UNL1        0.2426
     24 C         -30.0650   -1.3770   23.5730 C.3     1  UNL1        0.2292
     25 O         -30.7290   -1.8780   24.7210 O.3     1  UNL1       -0.2162
     26 C         -26.3540    0.5760   25.7770 C.2     1  UNL1        0.1931
     27 F         -25.8600   -0.6810   25.7950 F       1  UNL1       -0.1992
     28 C         -22.1498    1.4950   27.6320 C.2     1  UNL1        0.2226
     29 C         -24.5467    1.4524   27.3630 C.2     1  UNL1        0.0312
     30 C         -26.4471    2.6523   29.7198 C.3     1  UNL1        0.1412
     31 N         -29.4102    4.2159   29.1715 N.3     1  UNL1       -0.2131
     32 C         -23.2439    1.7211   26.8852 C.2     1  UNL1        0.1023
     33 N         -26.1514    1.3955   29.1759 N.pl3   1  UNL1       -0.2354
     34 CL        -23.0365    2.4300   25.3677 Cl      1  UNL1       -0.0784
     35 C         -27.8073    2.8284   29.5598 C.3     1  UNL1        0.0639
     36 C         -25.5033    3.8269   29.6036 C.3     1  UNL1        0.2288
     37 C         -29.5836    3.1323   28.3788 C.3     1  UNL1        0.1141
     38 C         -24.2053    0.0852   29.4074 C.2     1  UNL1        0.0144
     39 C         -28.6794    2.1415   28.6961 C.2     1  UNL1        0.0181
     40 N         -21.9592    0.7357   28.6994 N.pl3   1  UNL1       -0.1838
     41 C         -28.3659    3.9683   29.9936 C.3     1  UNL1        0.0950
     42 C         -24.9546    1.0283   28.6767 C.2     1  UNL1        0.0640
     43 F         -20.9956    2.0330   27.1461 F       1  UNL1       -0.1851
     44 C         -22.8549    0.1409   29.5147 C.2     1  UNL1        0.0854
     45 C         -28.6231    0.7053   28.1745 C.2     1  UNL1        0.2272
     46 O         -29.4947    0.2145   27.2760 O.2     1  UNL1       -0.2838
@<TRIPOS>BOND
     1     1    38    1
     2     2     7    1
     3     2     1    1
     4     3     2    2
     5     4     3    1
     6     4     5    2
     7     5     6    1
     8     6     7    2
     9     8     1    1
    10     8     9    1
    11     8    12    1
    12     9    10    1
    13    10    11    1
    14    12    11    1
    15    13    29    1
    16    14    13    1
    17    14    15    1
    18    15    18    1
    19    16    17    1
    20    16    15    2
    21    18    36    1
    22    19    14    2
    23    20    21    2
    24    20    19    1
    25    21    26    1
    26    22    21    1
    27    23    22    1
    28    24    23    1
    29    24    25    1
    30    26    27    1
    31    26    13    2
    32    28    40    1
    33    29    42    2
    34    30    36    1
    35    31    41    1
    36    32    29    1
    37    32    28    2
    38    33    30    1
    39    34    32    1
    40    35    30    1
    41    35    41    1
    42    37    39    1
    43    37    31    1
    44    38    44    2
    45    39    35    1
    46    40    44    1
    47    42    33    1
    48    42    38    1
    49    43    28    1
    50    45    39    2
    51    46    45    1
