@<TRIPOS>MOLECULE
outputs/IAG933/test6/raw/output_7018_IAG933_linker_design_.xyz
 42 45 0 0 0
SMALL
GASTEIGER

@<TRIPOS>ATOM
      1 C         -24.8550   -1.0120   30.1430 C.3     1  UNL1        0.1307
      2 C         -24.9730   -2.5050   29.7880 C.2     1  UNL1       -0.0013
      3 C         -23.9060   -3.1730   29.1460 C.2     1  UNL1       -0.0026
      4 C         -23.9890   -4.5490   28.8530 C.2     1  UNL1       -0.0003
      5 C         -25.1370   -5.2800   29.2050 C.2     1  UNL1       -0.0000
      6 C         -26.2320   -4.6110   29.7840 C.2     1  UNL1       -0.0003
      7 C         -26.1550   -3.2320   30.0650 C.2     1  UNL1       -0.0026
      8 C         -25.3870   -0.6790   31.5710 C.3     1  UNL1        0.0968
      9 C         -25.1890    0.7730   32.0280 C.3     1  UNL1        0.0210
     10 C         -25.3360    0.6840   33.5440 C.3     1  UNL1        0.0203
     11 C         -24.8290   -0.7150   33.9050 C.3     1  UNL1        0.0888
     12 N         -24.7580   -1.4810   32.6460 N.3     1  UNL1       -0.2174
     13 C         -25.6880    1.6140   26.4610 C.2     1  UNL1        0.0407
     14 C         -26.2500    2.9200   26.3950 C.2     1  UNL1        0.0745
     15 C         -25.6420    4.0930   27.1230 C.2     1  UNL1        0.2250
     16 N         -25.6140    5.2520   26.4490 N.2     1  UNL1       -0.2356
     17 C         -25.0260    6.4790   26.9630 C.3     1  UNL1        0.1550
     18 O         -25.1430    3.9660   28.2430 O.2     1  UNL1       -0.4262
     19 C         -27.4380    3.0910   25.6450 C.2     1  UNL1        0.1068
     20 N         -28.0750    2.0890   25.0030 N.2     1  UNL1       -0.2081
     21 C         -27.5430    0.8490   25.0790 C.2     1  UNL1        0.2533
     22 O         -28.1930   -0.2080   24.4770 O.2     1  UNL1       -0.4558
     23 C         -29.4600    0.0050   23.8660 C.3     1  UNL1        0.2426
     24 C         -30.0650   -1.3770   23.5730 C.3     1  UNL1        0.2292
     25 O         -30.7290   -1.8780   24.7210 O.3     1  UNL1       -0.2162
     26 C         -26.3540    0.5760   25.7770 C.2     1  UNL1        0.1931
     27 F         -25.8600   -0.6810   25.7950 F       1  UNL1       -0.1992
     28 C         -27.4768    4.4795   31.4455 C.2     1  UNL1       -0.0040
     29 C         -27.4980    4.0264   29.0901 C.2     1  UNL1       -0.0040
     30 C         -29.5494    3.9025   30.2894 C.2     1  UNL1       -0.0000
     31 C         -26.7617    4.1494   30.3107 C.2     1  UNL1       -0.0146
     32 C         -25.3021    3.7350   30.4645 C.3     1  UNL1        0.1182
     33 O         -24.4350    1.6075   29.5177 O.3     1  UNL1       -0.4093
     34 N         -23.3802   -0.7737   30.3038 N.pl3   1  UNL1       -0.2276
     35 C         -24.9887    2.8951   29.1833 C.3     1  UNL1        0.3484
     36 O         -22.8167    1.9971   27.9403 O.2     1  UNL1       -0.2434
     37 C         -23.3055    1.2198   28.8272 C.2     1  UNL1        0.3585
     38 C         -28.8666    3.7667   29.0717 C.2     1  UNL1       -0.0003
     39 C         -20.4815    0.6996   28.1487 C.3     1  UNL1        0.0323
     40 C         -22.7255   -0.0049   29.3187 C.2     1  UNL1        0.1372
     41 C         -28.8656    4.2930   31.4340 C.2     1  UNL1       -0.0003
     42 C         -21.2826   -0.3545   28.8632 C.2     1  UNL1       -0.0031
@<TRIPOS>BOND
     1     1    34    1
     2     2     7    1
     3     2     1    1
     4     3     2    2
     5     4     3    1
     6     4     5    2
     7     5     6    1
     8     6     7    2
     9     8     1    1
    10     8     9    1
    11     8    12    1
    12     9    10    1
    13    10    11    1
    14    12    11    1
    15    14    13    1
    16    14    15    1
    17    15    18    1
    18    16    17    1
    19    16    15    2
    20    18    35    1
    21    19    14    2
    22    20    21    2
    23    20    19    1
    24    21    26    1
    25    22    21    1
    26    23    22    1
    27    24    23    1
    28    24    25    1
    29    26    27    1
    30    26    13    2
    31    29    31    1
    32    30    41    2
    33    31    32    1
    34    31    28    2
    35    35    33    1
    36    35    32    1
    37    36    37    2
    38    37    40    1
    39    37    33    1
    40    38    29    2
    41    38    30    1
    42    39    42    1
    43    40    34    1
    44    41    28    1
    45    42    40    2
