@<TRIPOS>MOLECULE
outputs/IAG933/test6/raw/output_7022_IAG933_linker_design_.xyz
 43 48 0 0 0
SMALL
GASTEIGER

@<TRIPOS>ATOM
      1 C         -24.8550   -1.0120   30.1430 C.3     1  UNL1        0.0675
      2 C         -24.9730   -2.5050   29.7880 C.2     1  UNL1       -0.0165
      3 C         -23.9060   -3.1730   29.1460 C.2     1  UNL1       -0.0039
      4 C         -23.9890   -4.5490   28.8530 C.2     1  UNL1       -0.0003
      5 C         -25.1370   -5.2800   29.2050 C.2     1  UNL1       -0.0000
      6 C         -26.2320   -4.6110   29.7840 C.2     1  UNL1       -0.0003
      7 C         -26.1550   -3.2320   30.0650 C.2     1  UNL1       -0.0039
      8 C         -25.3870   -0.6790   31.5710 C.3     1  UNL1        0.0814
      9 C         -25.1890    0.7730   32.0280 C.3     1  UNL1        0.0195
     10 C         -25.3360    0.6840   33.5440 C.3     1  UNL1        0.0203
     11 C         -24.8290   -0.7150   33.9050 C.3     1  UNL1        0.0887
     12 N         -24.7580   -1.4810   32.6460 N.3     1  UNL1       -0.2188
     13 C         -25.6880    1.6140   26.4610 C.2     1  UNL1        0.0394
     14 C         -26.2500    2.9200   26.3950 C.2     1  UNL1        0.0766
     15 C         -25.6420    4.0930   27.1230 C.2     1  UNL1        0.2664
     16 N         -25.6140    5.2520   26.4490 N.am    1  UNL1       -0.1997
     17 C         -25.0260    6.4790   26.9630 C.3     1  UNL1        0.1388
     18 O         -25.1430    3.9660   28.2430 O.2     1  UNL1       -0.2683
     19 C         -27.4380    3.0910   25.6450 C.2     1  UNL1        0.1067
     20 N         -28.0750    2.0890   25.0030 N.2     1  UNL1       -0.2081
     21 C         -27.5430    0.8490   25.0790 C.2     1  UNL1        0.2533
     22 O         -28.1930   -0.2080   24.4770 O.2     1  UNL1       -0.4558
     23 C         -29.4600    0.0050   23.8660 C.3     1  UNL1        0.2426
     24 C         -30.0650   -1.3770   23.5730 C.3     1  UNL1        0.2292
     25 O         -30.7290   -1.8780   24.7210 O.3     1  UNL1       -0.2162
     26 C         -26.3540    0.5760   25.7770 C.2     1  UNL1        0.1931
     27 F         -25.8600   -0.6810   25.7950 F       1  UNL1       -0.1992
     28 C         -28.3348   -0.4303   28.9083 C.2     1  UNL1        0.2076
     29 C         -23.1769    0.4405   28.9475 C.3     1  UNL1        0.1116
     30 O         -21.2643    2.0354   25.6382 O.2     1  UNL1       -0.3126
     31 C         -24.4980    0.4650   28.3493 C.2     1  UNL1        0.0001
     32 C         -22.1631    0.4027   28.6154 C.3     1  UNL1        0.1009
     33 C         -25.4982   -0.2152   29.0614 C.2     1  UNL1        0.0174
     34 C         -24.5084    1.3030   27.1779 C.2     1  UNL1        0.0229
     35 N         -23.4243    2.4282   25.4533 N.3     1  UNL1       -0.0847
     36 O         -28.8542   -1.2911   29.6149 O.2     1  UNL1       -0.2829
     37 C         -23.2969    1.7700   26.6984 C.2     1  UNL1        0.1449
     38 C         -21.8505    1.5927   26.7979 C.2     1  UNL1        0.1839
     39 C         -26.9200   -0.2467   28.8823 C.1     1  UNL1       -0.0693
     40 O         -22.3643    2.6189   24.8188 O.3     1  UNL1       -0.0346
     41 N         -22.1565    0.0641   29.4568 N.3     1  UNL1       -0.2128
     42 C         -21.1498    1.0838   27.7988 C.3     1  UNL1        0.0889
     43 C         -29.1149    0.5459   28.0422 C.3     1  UNL1        0.0862
@<TRIPOS>BOND
     1     1    33    1
     2     2     7    1
     3     2     1    1
     4     3     2    2
     5     4     3    1
     6     4     5    2
     7     5     6    1
     8     6     7    2
     9     8     1    1
    10     8     9    1
    11     8    12    1
    12     9    10    1
    13    10    11    1
    14    12    11    1
    15    13    34    1
    16    14    13    1
    17    14    15    1
    18    15    18    2
    19    16    17    1
    20    16    15    1
    21    19    14    2
    22    20    21    2
    23    20    19    1
    24    21    26    1
    25    22    21    1
    26    23    22    1
    27    24    23    1
    28    24    25    1
    29    26    27    1
    30    26    13    2
    31    28    36    1
    32    29    31    1
    33    29    41    1
    34    30    38    1
    35    31    33    1
    36    32    42    1
    37    32    29    1
    38    32    41    1
    39    34    31    2
    40    35    37    1
    41    37    38    2
    42    37    34    1
    43    38    42    1
    44    39    28    2
    45    39    33    2
    46    40    35    1
    47    40    30    1
    48    43    28    1
