@<TRIPOS>MOLECULE
outputs/IAG933/test6/raw/output_7029_IAG933_linker_design_.xyz
 41 45 0 0 0
SMALL
GASTEIGER

@<TRIPOS>ATOM
      1 C         -24.8550   -1.0120   30.1430 C.3     1  UNL1        0.2032
      2 C         -24.9730   -2.5050   29.7880 C.2     1  UNL1        0.0217
      3 C         -23.9060   -3.1730   29.1460 C.2     1  UNL1       -0.0004
      4 C         -23.9890   -4.5490   28.8530 C.2     1  UNL1       -0.0002
      5 C         -25.1370   -5.2800   29.2050 C.2     1  UNL1       -0.0000
      6 C         -26.2320   -4.6110   29.7840 C.2     1  UNL1       -0.0002
      7 C         -26.1550   -3.2320   30.0650 C.2     1  UNL1       -0.0004
      8 C         -25.3870   -0.6790   31.5710 C.3     1  UNL1        0.1201
      9 C         -25.1890    0.7730   32.0280 C.3     1  UNL1        0.0233
     10 C         -25.3360    0.6840   33.5440 C.3     1  UNL1        0.0204
     11 C         -24.8290   -0.7150   33.9050 C.3     1  UNL1        0.0889
     12 N         -24.7580   -1.4810   32.6460 N.3     1  UNL1       -0.2150
     13 C         -25.6880    1.6140   26.4610 C.2     1  UNL1        0.0414
     14 C         -26.2500    2.9200   26.3950 C.2     1  UNL1        0.0767
     15 C         -25.6420    4.0930   27.1230 C.2     1  UNL1        0.2664
     16 N         -25.6140    5.2520   26.4490 N.am    1  UNL1       -0.1997
     17 C         -25.0260    6.4790   26.9630 C.3     1  UNL1        0.1388
     18 O         -25.1430    3.9660   28.2430 O.2     1  UNL1       -0.2683
     19 C         -27.4380    3.0910   25.6450 C.2     1  UNL1        0.1067
     20 N         -28.0750    2.0890   25.0030 N.2     1  UNL1       -0.2081
     21 C         -27.5430    0.8490   25.0790 C.2     1  UNL1        0.2533
     22 O         -28.1930   -0.2080   24.4770 O.2     1  UNL1       -0.4558
     23 C         -29.4600    0.0050   23.8660 C.3     1  UNL1        0.2426
     24 C         -30.0650   -1.3770   23.5730 C.3     1  UNL1        0.2292
     25 O         -30.7290   -1.8780   24.7210 O.3     1  UNL1       -0.2162
     26 C         -26.3540    0.5760   25.7770 C.2     1  UNL1        0.1932
     27 F         -25.8600   -0.6810   25.7950 F       1  UNL1       -0.1992
     28 C         -24.6132    1.4262   27.0186 C.2     1  UNL1        0.0395
     29 C         -29.0228   -1.3419   29.4292 C.2     1  UNL1        0.2354
     30 N         -25.4770   -0.0196   29.0379 N.pl3   1  UNL1       -0.1688
     31 C         -29.1914    1.5669   31.7216 C.3     1  UNL1        0.0314
     32 C         -29.6292   -0.3145   30.1546 C.2     1  UNL1        0.0465
     33 N         -27.7451   -1.1346   28.9698 N.2     1  UNL1       -0.0359
     34 C         -23.1071    0.9738   28.9078 C.2     1  UNL1        0.0403
     35 C         -22.0168    1.4528   28.1317 C.2     1  UNL1        0.0035
     36 C         -22.2410    1.9449   26.8388 C.2     1  UNL1        0.0002
     37 C         -23.5527    1.9355   26.2886 C.2     1  UNL1        0.0035
     38 C         -26.9964   -0.0058   29.2440 C.2     1  UNL1        0.3283
     39 C         -28.8434    0.7982   30.4805 C.2     1  UNL1       -0.0107
     40 C         -27.6361    1.0695   29.8599 C.2     1  UNL1        0.0857
     41 C         -24.4491    0.8329   28.2843 C.2     1  UNL1        0.1389
@<TRIPOS>BOND
     1     1    30    1
     2     2     7    1
     3     2     1    1
     4     3     2    2
     5     4     3    1
     6     4     5    2
     7     5     6    1
     8     6     7    2
     9     8     1    1
    10     8     9    1
    11     8    12    1
    12     9    10    1
    13    10    11    1
    14    12    11    1
    15    13    28    1
    16    14    13    1
    17    14    15    1
    18    15    18    2
    19    16    17    1
    20    16    15    1
    21    19    14    2
    22    20    21    2
    23    20    19    1
    24    21    26    1
    25    22    21    1
    26    23    22    1
    27    24    23    1
    28    24    25    1
    29    26    27    1
    30    26    13    2
    31    28    41    1
    32    29    32    1
    33    30    38    1
    34    32    39    2
    35    33    38    1
    36    33    29    2
    37    35    34    1
    38    36    35    2
    39    37    36    1
    40    37    28    2
    41    38    40    2
    42    39    31    1
    43    40    39    1
    44    41    34    2
    45    41    30    1
