@<TRIPOS>MOLECULE
outputs/IAG933/test6/raw/output_7038_IAG933_linker_design_.xyz
 46 50 0 0 0
SMALL
GASTEIGER

@<TRIPOS>ATOM
      1 C         -24.8550   -1.0120   30.1430 C.3     1  UNL1        0.0697
      2 C         -24.9730   -2.5050   29.7880 C.2     1  UNL1       -0.0184
      3 C         -23.9060   -3.1730   29.1460 C.2     1  UNL1       -0.0041
      4 C         -23.9890   -4.5490   28.8530 C.2     1  UNL1       -0.0003
      5 C         -25.1370   -5.2800   29.2050 C.2     1  UNL1       -0.0000
      6 C         -26.2320   -4.6110   29.7840 C.2     1  UNL1       -0.0003
      7 C         -26.1550   -3.2320   30.0650 C.2     1  UNL1       -0.0041
      8 C         -25.3870   -0.6790   31.5710 C.3     1  UNL1        0.0795
      9 C         -25.1890    0.7730   32.0280 C.3     1  UNL1        0.0193
     10 C         -25.3360    0.6840   33.5440 C.3     1  UNL1        0.0202
     11 C         -24.8290   -0.7150   33.9050 C.3     1  UNL1        0.0887
     12 N         -24.7580   -1.4810   32.6460 N.3     1  UNL1       -0.2190
     13 C         -25.6880    1.6140   26.4610 C.3     1  UNL1        0.0921
     14 C         -26.2500    2.9200   26.3950 C.2     1  UNL1        0.0589
     15 C         -25.6420    4.0930   27.1230 C.2     1  UNL1        0.2628
     16 N         -25.6140    5.2520   26.4490 N.am    1  UNL1       -0.2000
     17 C         -25.0260    6.4790   26.9630 C.3     1  UNL1        0.1388
     18 O         -25.1430    3.9660   28.2430 O.2     1  UNL1       -0.2686
     19 C         -27.4380    3.0910   25.6450 C.2     1  UNL1        0.1025
     20 N         -28.0750    2.0890   25.0030 N.2     1  UNL1       -0.2118
     21 C         -27.5430    0.8490   25.0790 C.2     1  UNL1        0.2344
     22 O         -28.1930   -0.2080   24.4770 O.2     1  UNL1       -0.4585
     23 C         -29.4600    0.0050   23.8660 C.3     1  UNL1        0.2423
     24 C         -30.0650   -1.3770   23.5730 C.3     1  UNL1        0.2292
     25 O         -30.7290   -1.8780   24.7210 O.3     1  UNL1       -0.2162
     26 C         -26.3540    0.5760   25.7770 C.3     1  UNL1        0.2440
     27 F         -25.8600   -0.6810   25.7950 F       1  UNL1       -0.2265
     28 C         -24.2711    1.4094   26.8343 C.2     1  UNL1       -0.0168
     29 C         -23.8276    0.8352   28.0729 C.2     1  UNL1        0.0013
     30 C         -28.2837   -0.3682   29.2496 C.3     1  UNL1        0.1857
     31 C         -30.3937    3.4096   31.8897 C.2     1  UNL1        0.0114
     32 C         -21.5415    1.4956   27.4889 C.2     1  UNL1       -0.0003
     33 O         -28.9493   -1.5880   29.3919 O.3     1  UNL1       -0.2201
     34 O         -26.1631    0.3478   28.7117 O.3     1  UNL1       -0.3488
     35 C         -21.9699    1.9880   26.2578 C.2     1  UNL1       -0.0003
     36 C         -29.2932    2.6095   31.9818 C.2     1  UNL1        0.0574
     37 C         -29.1717    0.7478   28.7022 C.3     1  UNL1        0.0619
     38 C         -23.3107    1.8999   25.9444 C.2     1  UNL1       -0.0041
     39 C         -28.9235    1.7507   30.9524 C.2     1  UNL1        0.0072
     40 C         -31.1114    3.4241   30.7115 C.2     1  UNL1        0.0005
     41 C         -22.4745    0.9326   28.3706 C.2     1  UNL1       -0.0022
     42 CL        -28.3234    2.5388   33.3987 Cl      1  UNL1       -0.0823
     43 C         -30.7248    2.6165   29.6434 C.2     1  UNL1       -0.0041
     44 C         -27.0934   -0.6949   28.4211 C.3     1  UNL1        0.1755
     45 C         -24.7635    0.0911   29.0304 C.3     1  UNL1        0.1425
     46 C         -29.6489    1.7309   29.7905 C.2     1  UNL1       -0.0187
@<TRIPOS>BOND
     1     1    45    1
     2     2     7    1
     3     2     1    1
     4     3     2    2
     5     4     3    1
     6     4     5    2
     7     5     6    1
     8     6     7    2
     9     8     1    1
    10     8     9    1
    11     8    12    1
    12     9    10    1
    13    10    11    1
    14    12    11    1
    15    13    28    1
    16    14    13    1
    17    14    15    1
    18    15    18    2
    19    16    17    1
    20    16    15    1
    21    19    14    2
    22    20    21    2
    23    20    19    1
    24    21    26    1
    25    22    21    1
    26    23    22    1
    27    24    23    1
    28    24    25    1
    29    26    27    1
    30    26    13    1
    31    28    29    1
    32    29    41    2
    33    29    45    1
    34    30    33    1
    35    31    36    1
    36    32    41    1
    37    35    32    2
    38    36    42    1
    39    37    30    1
    40    37    46    1
    41    38    35    1
    42    38    28    2
    43    39    36    2
    44    40    31    2
    45    43    46    2
    46    43    40    1
    47    44    34    1
    48    44    30    1
    49    45    34    1
    50    46    39    1
