@<TRIPOS>MOLECULE
No_704-gen_results/8p0m/2024-11-27-11-27-31/
 13 14 0 0 0
SMALL
GASTEIGER

@<TRIPOS>ATOM
      1 C         -28.0162   -0.8135   28.8779 C.ar    1  UNL1        0.0375
      2 C         -27.0636   -0.1190   28.6079 C.ar    1  UNL1        0.1453
      3 C         -25.7923   -0.4302   29.0761 C.ar    1  UNL1        0.0375
      4 C         -25.5756   -1.5654   29.9363 C.ar    1  UNL1        0.0031
      5 C         -26.7354   -2.3004   30.2173 C.ar    1  UNL1        0.0002
      6 C         -27.9184   -1.9537   29.7629 C.ar    1  UNL1        0.0031
      7 O         -27.1229    1.0229   27.8500 O.3     1  UNL1       -0.4535
      8 C         -26.6157    1.8989   27.6272 C.ar    1  UNL1        0.1453
      9 C         -26.3194    2.8754   28.4938 C.ar    1  UNL1        0.0375
     10 C         -25.4382    4.0112   28.2420 C.ar    1  UNL1        0.0031
     11 C         -24.8119    3.9993   26.9742 C.ar    1  UNL1        0.0002
     12 C         -25.8300    2.0898   26.3298 C.ar    1  UNL1        0.0375
     13 C         -25.0300    3.1086   26.0464 C.ar    1  UNL1        0.0031
@<TRIPOS>BOND
     1     2     7    1
     2     7     8    1
     3     1     2   ar
     4     2     3   ar
     5     3     4   ar
     6     4     5   ar
     7     5     6   ar
     8     6     1   ar
     9     8     9   ar
    10     9    10   ar
    11    10    11   ar
    12    11    13   ar
    13    13    12   ar
    14    12     8   ar
