@<TRIPOS>MOLECULE
outputs/IAG933/test6/raw/output_7040_IAG933_linker_design_.xyz
 41 44 0 0 0
SMALL
GASTEIGER

@<TRIPOS>ATOM
      1 C         -24.8550   -1.0120   30.1430 C.3     1  UNL1        0.1212
      2 C         -24.9730   -2.5050   29.7880 C.2     1  UNL1       -0.0025
      3 C         -23.9060   -3.1730   29.1460 C.2     1  UNL1       -0.0026
      4 C         -23.9890   -4.5490   28.8530 C.2     1  UNL1       -0.0003
      5 C         -25.1370   -5.2800   29.2050 C.2     1  UNL1       -0.0000
      6 C         -26.2320   -4.6110   29.7840 C.2     1  UNL1       -0.0003
      7 C         -26.1550   -3.2320   30.0650 C.2     1  UNL1       -0.0026
      8 C         -25.3870   -0.6790   31.5710 C.3     1  UNL1        0.0956
      9 C         -25.1890    0.7730   32.0280 C.3     1  UNL1        0.0209
     10 C         -25.3360    0.6840   33.5440 C.3     1  UNL1        0.0203
     11 C         -24.8290   -0.7150   33.9050 C.3     1  UNL1        0.0888
     12 N         -24.7580   -1.4810   32.6460 N.3     1  UNL1       -0.2174
     13 C         -25.6880    1.6140   26.4610 C.2     1  UNL1        0.0413
     14 C         -26.2500    2.9200   26.3950 C.2     1  UNL1        0.0766
     15 C         -25.6420    4.0930   27.1230 C.2     1  UNL1        0.2664
     16 N         -25.6140    5.2520   26.4490 N.am    1  UNL1       -0.1997
     17 C         -25.0260    6.4790   26.9630 C.3     1  UNL1        0.1388
     18 O         -25.1430    3.9660   28.2430 O.2     1  UNL1       -0.2683
     19 C         -27.4380    3.0910   25.6450 C.2     1  UNL1        0.1067
     20 N         -28.0750    2.0890   25.0030 N.2     1  UNL1       -0.2081
     21 C         -27.5430    0.8490   25.0790 C.2     1  UNL1        0.2533
     22 O         -28.1930   -0.2080   24.4770 O.2     1  UNL1       -0.4558
     23 C         -29.4600    0.0050   23.8660 C.3     1  UNL1        0.2426
     24 C         -30.0650   -1.3770   23.5730 C.3     1  UNL1        0.2292
     25 O         -30.7290   -1.8780   24.7210 O.3     1  UNL1       -0.2162
     26 C         -26.3540    0.5760   25.7770 C.2     1  UNL1        0.1931
     27 F         -25.8600   -0.6810   25.7950 F       1  UNL1       -0.1992
     28 F         -20.4530    0.9535   28.5481 F       1  UNL1       -0.2260
     29 C         -24.3832    1.3318   27.2150 C.2     1  UNL1        0.0447
     30 F         -23.3154    2.4337   25.2802 F       1  UNL1       -0.2044
     31 O         -27.4590   -0.5794   28.6714 O.co2   1  UNL1       -0.2220
     32 C         -23.2343    1.8967   26.5060 C.2     1  UNL1        0.1398
     33 N         -25.1987   -0.0946   29.1024 N.am    1  UNL1       -0.2169
     34 C         -21.7660    1.0605   28.1806 C.3     1  UNL1        0.2511
     35 O         -26.8434    1.4279   29.2138 O.co2   1  UNL1       -0.2220
     36 F         -22.3147   -0.8517   29.2879 F       1  UNL1       -0.1949
     37 C         -26.5807    0.2261   28.9953 C.2     1  UNL1        0.4511
     38 C         -22.7688    0.3429   29.0147 C.3     1  UNL1        0.3281
     39 F         -22.7147    0.7764   30.3209 F       1  UNL1       -0.1949
     40 C         -22.0035    1.8088   27.0920 C.2     1  UNL1        0.0442
     41 C         -24.1592    0.4901   28.4254 C.2     1  UNL1        0.1001
@<TRIPOS>BOND
     1     1    33    1
     2     2     7    1
     3     2     1    1
     4     3     2    2
     5     4     3    1
     6     4     5    2
     7     5     6    1
     8     6     7    2
     9     8     1    1
    10     8     9    1
    11     8    12    1
    12     9    10    1
    13    10    11    1
    14    12    11    1
    15    13    29    1
    16    14    13    1
    17    14    15    1
    18    15    18    2
    19    16    17    1
    20    16    15    1
    21    19    14    2
    22    20    21    2
    23    20    19    1
    24    21    26    1
    25    22    21    1
    26    23    22    1
    27    24    23    1
    28    24    25    1
    29    26    27    1
    30    26    13    2
    31    29    41    2
    32    30    32    1
    33    31    37   ar
    34    32    40    2
    35    32    29    1
    36    34    28    1
    37    34    38    1
    38    37    33   am
    39    37    35   ar
    40    38    36    1
    41    38    39    1
    42    40    34    1
    43    41    38    1
    44    41    33    1
