@<TRIPOS>MOLECULE
outputs/IAG933/test6/raw/output_7042_IAG933_linker_design_.xyz
 43 47 0 0 0
SMALL
GASTEIGER

@<TRIPOS>ATOM
      1 C         -24.8550   -1.0120   30.1430 C.3     1  UNL1        0.0401
      2 C         -24.9730   -2.5050   29.7880 C.2     1  UNL1       -0.0211
      3 C         -23.9060   -3.1730   29.1460 C.2     1  UNL1       -0.0042
      4 C         -23.9890   -4.5490   28.8530 C.2     1  UNL1       -0.0003
      5 C         -25.1370   -5.2800   29.2050 C.2     1  UNL1       -0.0000
      6 C         -26.2320   -4.6110   29.7840 C.2     1  UNL1       -0.0003
      7 C         -26.1550   -3.2320   30.0650 C.2     1  UNL1       -0.0042
      8 C         -25.3870   -0.6790   31.5710 C.3     1  UNL1        0.0769
      9 C         -25.1890    0.7730   32.0280 C.3     1  UNL1        0.0192
     10 C         -25.3360    0.6840   33.5440 C.3     1  UNL1        0.0202
     11 C         -24.8290   -0.7150   33.9050 C.3     1  UNL1        0.0887
     12 N         -24.7580   -1.4810   32.6460 N.3     1  UNL1       -0.2191
     13 C         -25.6880    1.6140   26.4610 C.2     1  UNL1        0.0226
     14 C         -26.2500    2.9200   26.3950 C.2     1  UNL1        0.0730
     15 C         -25.6420    4.0930   27.1230 C.2     1  UNL1        0.2661
     16 N         -25.6140    5.2520   26.4490 N.am    1  UNL1       -0.1997
     17 C         -25.0260    6.4790   26.9630 C.3     1  UNL1        0.1388
     18 O         -25.1430    3.9660   28.2430 O.2     1  UNL1       -0.2683
     19 C         -27.4380    3.0910   25.6450 C.2     1  UNL1        0.1064
     20 N         -28.0750    2.0890   25.0030 N.2     1  UNL1       -0.2081
     21 C         -27.5430    0.8490   25.0790 C.2     1  UNL1        0.2530
     22 O         -28.1930   -0.2080   24.4770 O.2     1  UNL1       -0.4558
     23 C         -29.4600    0.0050   23.8660 C.3     1  UNL1        0.2426
     24 C         -30.0650   -1.3770   23.5730 C.3     1  UNL1        0.2292
     25 O         -30.7290   -1.8780   24.7210 O.3     1  UNL1       -0.2162
     26 C         -26.3540    0.5760   25.7770 C.2     1  UNL1        0.1895
     27 F         -25.8600   -0.6810   25.7950 F       1  UNL1       -0.1996
     28 C         -24.3922    1.1699   26.9995 C.3     1  UNL1        0.0850
     29 C         -24.3685    1.4818   29.4506 C.3     1  UNL1        0.1223
     30 C         -22.8017    1.0468   29.3466 C.3     1  UNL1        0.1642
     31 C         -23.2029    1.8170   26.4306 C.2     1  UNL1        0.1841
     32 C         -27.1645    3.4996   31.4653 C.2     1  UNL1        0.0161
     33 C         -21.7346    1.5454   27.0977 C.3     1  UNL1        0.2064
     34 C         -24.8564    4.1337   32.0990 C.2     1  UNL1        0.0161
     35 N         -25.1264    2.6177   30.1917 N.pl3   1  UNL1       -0.2368
     36 C         -25.7209    3.4669   31.2711 C.2     1  UNL1        0.0653
     37 C         -25.0088    0.1986   29.1051 C.3     1  UNL1        0.0285
     38 C         -27.6600    3.9403   32.7248 C.2     1  UNL1        0.0013
     39 C         -24.5145   -0.0338   27.8492 C.3     1  UNL1        0.0141
     40 O         -22.0823    0.7501   28.0746 O.3     1  UNL1       -0.3441
     41 C         -25.3681    4.6250   33.3311 C.2     1  UNL1        0.0013
     42 O         -23.2671    2.6516   25.4658 O.2     1  UNL1       -0.2931
     43 C         -26.7409    4.4842   33.6546 C.2     1  UNL1        0.0001
@<TRIPOS>BOND
     1     1     2    1
     2     2     7    1
     3     3     2    2
     4     4     3    1
     5     4     5    2
     6     5     6    1
     7     6     7    2
     8     8     1    1
     9     8     9    1
    10     8    12    1
    11     9    10    1
    12    10    11    1
    13    12    11    1
    14    14    13    1
    15    14    15    1
    16    15    18    2
    17    16    17    1
    18    16    15    1
    19    19    14    2
    20    20    21    2
    21    20    19    1
    22    21    26    1
    23    22    21    1
    24    23    22    1
    25    24    23    1
    26    24    25    1
    27    26    27    1
    28    26    13    2
    29    28    13    1
    30    28    39    1
    31    29    35    1
    32    30    29    1
    33    31    28    1
    34    31    33    1
    35    32    38    1
    36    33    40    1
    37    34    41    2
    38    35    36    1
    39    36    32    2
    40    36    34    1
    41    37    29    1
    42    37     1    1
    43    38    43    2
    44    39    37    1
    45    40    30    1
    46    41    43    1
    47    42    31    2
