@<TRIPOS>MOLECULE
outputs/IAG933/test6/raw/output_7045_IAG933_linker_design_.xyz
 45 49 0 0 0
SMALL
GASTEIGER

@<TRIPOS>ATOM
      1 C         -24.8550   -1.0120   30.1430 C.3     1  UNL1        0.2191
      2 C         -24.9730   -2.5050   29.7880 C.2     1  UNL1        0.0230
      3 C         -23.9060   -3.1730   29.1460 C.2     1  UNL1       -0.0003
      4 C         -23.9890   -4.5490   28.8530 C.2     1  UNL1       -0.0002
      5 C         -25.1370   -5.2800   29.2050 C.2     1  UNL1       -0.0000
      6 C         -26.2320   -4.6110   29.7840 C.2     1  UNL1       -0.0002
      7 C         -26.1550   -3.2320   30.0650 C.2     1  UNL1       -0.0003
      8 C         -25.3870   -0.6790   31.5710 C.3     1  UNL1        0.1214
      9 C         -25.1890    0.7730   32.0280 C.3     1  UNL1        0.0219
     10 C         -25.3360    0.6840   33.5440 C.3     1  UNL1        0.0203
     11 C         -24.8290   -0.7150   33.9050 C.3     1  UNL1        0.0889
     12 N         -24.7580   -1.4810   32.6460 N.3     1  UNL1       -0.2150
     13 C         -25.6880    1.6140   26.4610 C.3     1  UNL1        0.0826
     14 C         -26.2500    2.9200   26.3950 C.2     1  UNL1        0.0554
     15 C         -25.6420    4.0930   27.1230 C.2     1  UNL1        0.2625
     16 N         -25.6140    5.2520   26.4490 N.am    1  UNL1       -0.2000
     17 C         -25.0260    6.4790   26.9630 C.3     1  UNL1        0.1388
     18 O         -25.1430    3.9660   28.2430 O.2     1  UNL1       -0.2687
     19 C         -27.4380    3.0910   25.6450 C.2     1  UNL1        0.1022
     20 N         -28.0750    2.0890   25.0030 N.2     1  UNL1       -0.2119
     21 C         -27.5430    0.8490   25.0790 C.2     1  UNL1        0.2341
     22 O         -28.1930   -0.2080   24.4770 O.2     1  UNL1       -0.4585
     23 C         -29.4600    0.0050   23.8660 C.3     1  UNL1        0.2423
     24 C         -30.0650   -1.3770   23.5730 C.3     1  UNL1        0.2292
     25 O         -30.7290   -1.8780   24.7210 O.3     1  UNL1       -0.2162
     26 C         -26.3540    0.5760   25.7770 C.3     1  UNL1        0.2406
     27 F         -25.8600   -0.6810   25.7950 F       1  UNL1       -0.2269
     28 O         -20.4019    1.5113   27.7923 O.2     1  UNL1       -0.2444
     29 O         -23.7683    3.1779   25.0929 O.2     1  UNL1       -0.2496
     30 C         -24.3284    1.7674   26.8769 C.3     1  UNL1        0.1314
     31 O         -22.0334    2.2634   26.2870 O.3     1  UNL1       -0.3892
     32 C         -22.7271    1.0130   28.2279 C.2     1  UNL1        0.1598
     33 N         -25.8508    4.8571   34.6886 N.am    1  UNL1       -0.0878
     34 O         -27.1952    3.3191   33.9850 O.2     1  UNL1       -0.2717
     35 C         -24.9128    3.2782   31.8035 C.3     1  UNL1        0.0097
     36 C         -23.9879    1.3934   28.0251 C.3     1  UNL1        0.1644
     37 N         -24.8970    1.0958   28.9421 N.3     1  UNL1       -0.0326
     38 C         -25.7978    2.0668   31.5200 C.3     1  UNL1        0.0021
     39 C         -22.8263    0.0807   29.2235 C.2     1  UNL1        0.3866
     40 N         -24.1526    0.0356   29.4770 N.pl3   1  UNL1       -0.1013
     41 C         -23.3711    2.3643   26.0074 C.2     1  UNL1        0.3255
     42 C         -25.8100    4.4208   32.3303 C.3     1  UNL1        0.0885
     43 C         -26.3526    4.1502   33.7217 C.2     1  UNL1        0.2607
     44 C         -21.6873    1.5949   27.4491 C.2     1  UNL1        0.3525
     45 N         -21.8529   -0.5063   29.8243 N.pl3   1  UNL1        0.2114
@<TRIPOS>BOND
     1     1     2    1
     2     2     7    1
     3     3     2    2
     4     4     3    1
     5     4     5    2
     6     5     6    1
     7     6     7    2
     8     8     1    1
     9     8     9    1
    10     8    12    1
    11     9    38    1
    12     9    10    1
    13    10    11    1
    14    12    11    1
    15    13    14    1
    16    13    30    1
    17    14    15    1
    18    15    18    2
    19    16    17    1
    20    16    15    1
    21    19    14    2
    22    20    21    2
    23    20    19    1
    24    21    26    1
    25    22    21    1
    26    23    22    1
    27    24    23    1
    28    24    25    1
    29    26    27    1
    30    26    13    1
    31    29    41    2
    32    30    41    1
    33    30    36    1
    34    31    44    1
    35    32    39    2
    36    35    42    1
    37    36    32    1
    38    36    37    1
    39    37    40    1
    40    38    35    1
    41    39    40    1
    42    39    45    1
    43    40     1    1
    44    41    31    1
    45    42    43    1
    46    43    34    2
    47    43    33    1
    48    44    28    2
    49    44    32    1
