@<TRIPOS>MOLECULE
outputs/IAG933/test6/raw/output_7049_IAG933_linker_design_.xyz
 44 47 0 0 0
SMALL
GASTEIGER

@<TRIPOS>ATOM
      1 C         -24.8550   -1.0120   30.1430 C.3     1  UNL1        0.0444
      2 C         -24.9730   -2.5050   29.7880 C.2     1  UNL1       -0.0209
      3 C         -23.9060   -3.1730   29.1460 C.2     1  UNL1       -0.0042
      4 C         -23.9890   -4.5490   28.8530 C.2     1  UNL1       -0.0003
      5 C         -25.1370   -5.2800   29.2050 C.2     1  UNL1       -0.0000
      6 C         -26.2320   -4.6110   29.7840 C.2     1  UNL1       -0.0003
      7 C         -26.1550   -3.2320   30.0650 C.2     1  UNL1       -0.0042
      8 C         -25.3870   -0.6790   31.5710 C.3     1  UNL1        0.0770
      9 C         -25.1890    0.7730   32.0280 C.3     1  UNL1        0.0192
     10 C         -25.3360    0.6840   33.5440 C.3     1  UNL1        0.0202
     11 C         -24.8290   -0.7150   33.9050 C.3     1  UNL1        0.0887
     12 N         -24.7580   -1.4810   32.6460 N.3     1  UNL1       -0.2191
     13 C         -25.6880    1.6140   26.4610 C.2     1  UNL1        0.1791
     14 C         -26.2500    2.9200   26.3950 C.2     1  UNL1        0.1106
     15 C         -25.6420    4.0930   27.1230 C.2     1  UNL1        0.2694
     16 N         -25.6140    5.2520   26.4490 N.am    1  UNL1       -0.1996
     17 C         -25.0260    6.4790   26.9630 C.3     1  UNL1        0.1388
     18 O         -25.1430    3.9660   28.2430 O.2     1  UNL1       -0.2682
     19 C         -27.4380    3.0910   25.6450 C.2     1  UNL1        0.1098
     20 N         -28.0750    2.0890   25.0030 N.2     1  UNL1       -0.2079
     21 C         -27.5430    0.8490   25.0790 C.2     1  UNL1        0.2564
     22 O         -28.1930   -0.2080   24.4770 O.2     1  UNL1       -0.4558
     23 C         -29.4600    0.0050   23.8660 C.3     1  UNL1        0.2426
     24 C         -30.0650   -1.3770   23.5730 C.3     1  UNL1        0.2292
     25 O         -30.7290   -1.8780   24.7210 O.3     1  UNL1       -0.2162
     26 C         -26.3540    0.5760   25.7770 C.2     1  UNL1        0.2268
     27 F         -25.8600   -0.6810   25.7950 F       1  UNL1       -0.1960
     28 C         -26.8421   -0.6916   28.6397 C.3     1  UNL1        0.0068
     29 O         -32.2242   -3.1386   29.1050 O.2     1  UNL1       -0.2749
     30 C         -29.1965   -0.5113   27.8795 C.3     1  UNL1        0.0216
     31 C         -28.2016   -0.6218   29.0379 C.3     1  UNL1        0.0036
     32 C         -25.5793    0.0298   29.0917 C.3     1  UNL1        0.0756
     33 C         -21.1372    0.9390   28.1235 C.3     1  UNL1        0.0322
     34 C         -28.5665   -1.1625   30.4938 C.3     1  UNL1        0.0216
     35 O         -23.3739   -0.1564   28.2728 O.3     1  UNL1       -0.3206
     36 C         -21.5750    1.9159   27.0261 C.3     1  UNL1        0.0027
     37 O         -24.7661    1.4089   27.3354 O.2     1  UNL1       -0.4498
     38 C         -30.6245   -0.5712   28.4786 C.3     1  UNL1        0.0934
     39 N         -30.7142   -1.4825   29.5628 N.am    1  UNL1       -0.2795
     40 C         -22.3383    0.5152   29.0027 C.3     1  UNL1        0.1459
     41 C         -24.5508    0.4410   28.2140 C.3     1  UNL1        0.2878
     42 C         -32.9636   -1.8026   30.7848 C.3     1  UNL1        0.0948
     43 C         -31.9690   -2.2192   29.7290 C.2     1  UNL1        0.2261
     44 C         -29.7480   -1.7154   30.4584 C.3     1  UNL1        0.0934
@<TRIPOS>BOND
     1     1    32    1
     2     2     7    1
     3     2     1    1
     4     3     2    2
     5     4     3    1
     6     4     5    2
     7     5     6    1
     8     6     7    2
     9     8     1    1
    10     8     9    1
    11     8    12    1
    12     9    10    1
    13    10    11    1
    14    12    11    1
    15    13    37    1
    16    14    13    1
    17    14    15    1
    18    15    18    2
    19    16    17    1
    20    16    15    1
    21    19    14    2
    22    20    21    2
    23    20    19    1
    24    21    26    1
    25    22    21    1
    26    23    22    1
    27    24    23    1
    28    24    25    1
    29    26    27    1
    30    26    13    2
    31    28    31    1
    32    29    43    2
    33    30    38    1
    34    30    31    1
    35    31    34    1
    36    32    28    1
    37    33    40    1
    38    35    40    1
    39    36    33    1
    40    38    39    1
    41    39    43   am
    42    39    44    1
    43    41    37    1
    44    41    35    1
    45    41    32    1
    46    43    42    1
    47    44    34    1
