@<TRIPOS>MOLECULE
No_705-gen_results/8p0m/2024-11-27-11-27-31/
 35 38 0 0 0
SMALL
GASTEIGER

@<TRIPOS>ATOM
      1 C         -28.0162   -0.8135   28.8779 C.ar    1  UNL1        0.0375
      2 C         -27.0636   -0.1189   28.6079 C.ar    1  UNL1        0.0031
      3 C         -25.7647   -0.3897   29.0360 C.ar    1  UNL1       -0.0003
      4 C         -25.5296   -1.5302   29.9014 C.ar    1  UNL1        0.0031
      5 C         -26.6888   -2.2893   30.1810 C.ar    1  UNL1        0.0375
      6 C         -27.8727   -1.9508   29.7373 C.ar    1  UNL1        0.1454
      7 O         -28.9304   -2.7298   30.1154 O.3     1  UNL1       -0.4504
      8 C         -24.5394    0.4211   28.7421 C.2     1  UNL1       -0.0031
      9 C         -24.5259    1.2743   27.7265 C.2     1  UNL1        0.0217
     10 C         -25.5567    1.6073   26.8963 C.3     1  UNL1        0.0320
     11 C         -23.1685    1.9096   27.4273 C.3     1  UNL1        0.3372
     12 F         -22.2990    1.7939   28.3515 F       1  UNL1       -0.1936
     13 F         -22.9229    2.4542   26.3519 F       1  UNL1       -0.1936
     14 C         -30.0599   -2.2419   30.5433 C.ar    1  UNL1        0.1790
     15 C         -30.2927   -1.2790   30.9066 C.ar    1  UNL1        0.0406
     16 C         -31.1435   -3.3214   30.4161 C.ar    1  UNL1        0.1736
     17 C         -31.5762   -0.7605   31.3480 C.ar    1  UNL1        0.0033
     18 C         -32.4417   -2.9185   30.7493 C.ar    1  UNL1        0.0401
     19 C         -32.6409   -1.6458   31.2751 C.ar    1  UNL1        0.0033
     20 O         -30.9447   -4.5382   29.9395 O.3     1  UNL1       -0.4672
     21 C         -31.8143   -5.4789   29.8923 C.3     1  UNL1        0.2101
     22 C         -31.5876   -6.5586   30.6914 C.ar    1  UNL1        0.0215
     23 C         -30.5028   -6.4393   31.5385 C.ar    1  UNL1       -0.0005
     24 C         -30.1846   -7.5218   32.5001 C.ar    1  UNL1       -0.0002
     25 C         -30.7919   -8.7341   32.2743 C.ar    1  UNL1       -0.0000
     26 C         -31.7653   -8.9013   31.3297 C.ar    1  UNL1       -0.0002
     27 C         -32.1204   -7.8224   30.5559 C.ar    1  UNL1       -0.0005
     28 C         -32.1398   -5.8184   28.4552 C.2     1  UNL1        0.0169
     29 C         -33.2291   -5.3622   27.9058 C.2     1  UNL1       -0.0233
     30 C         -34.0080   -4.5284   28.6573 C.2     1  UNL1       -0.0129
     31 C         -35.1306   -4.7015   28.7239 C.2     1  UNL1       -0.0439
     32 C         -35.8647   -5.3264   27.6579 C.3     1  UNL1        0.0263
     33 C         -34.2332   -6.3101   27.4159 C.3     1  UNL1        0.0261
     34 C         -36.1112   -3.4701   29.1622 C.3     1  UNL1        0.0264
     35 C         -33.9120   -7.3829   28.0024 C.3     1  UNL1        0.0050
@<TRIPOS>BOND
     1     6     7    1
     2     3     8    1
     3     8     9    2
     4     9    10    1
     5     9    11    1
     6    11    12    1
     7    11    13    1
     8     7    14    1
     9    16    20    1
    10    20    21    1
    11    21    22    1
    12    21    28    1
    13    28    29    2
    14    29    30    1
    15    30    31    2
    16    31    32    1
    17    29    33    1
    18    32    33    1
    19    31    34    1
    20    33    35    1
    21     1     2   ar
    22     2     3   ar
    23     3     4   ar
    24     4     5   ar
    25     5     6   ar
    26     6     1   ar
    27    22    23   ar
    28    23    24   ar
    29    24    25   ar
    30    25    26   ar
    31    26    27   ar
    32    27    22   ar
    33    14    15   ar
    34    15    17   ar
    35    17    19   ar
    36    19    18   ar
    37    18    16   ar
    38    16    14   ar
