@<TRIPOS>MOLECULE
outputs/IAG933/test6/raw/output_7052_IAG933_linker_design_.xyz
 43 48 0 0 0
SMALL
GASTEIGER

@<TRIPOS>ATOM
      1 C         -24.8550   -1.0120   30.1430 C.3     1  UNL1        0.2031
      2 C         -24.9730   -2.5050   29.7880 C.2     1  UNL1        0.0217
      3 C         -23.9060   -3.1730   29.1460 C.2     1  UNL1       -0.0004
      4 C         -23.9890   -4.5490   28.8530 C.2     1  UNL1       -0.0002
      5 C         -25.1370   -5.2800   29.2050 C.2     1  UNL1       -0.0000
      6 C         -26.2320   -4.6110   29.7840 C.2     1  UNL1       -0.0002
      7 C         -26.1550   -3.2320   30.0650 C.2     1  UNL1       -0.0004
      8 C         -25.3870   -0.6790   31.5710 C.3     1  UNL1        0.1201
      9 C         -25.1890    0.7730   32.0280 C.3     1  UNL1        0.0233
     10 C         -25.3360    0.6840   33.5440 C.3     1  UNL1        0.0204
     11 C         -24.8290   -0.7150   33.9050 C.3     1  UNL1        0.0889
     12 N         -24.7580   -1.4810   32.6460 N.3     1  UNL1       -0.2150
     13 C         -25.6880    1.6140   26.4610 C.3     1  UNL1        0.0997
     14 C         -26.2500    2.9200   26.3950 C.2     1  UNL1        0.0591
     15 C         -25.6420    4.0930   27.1230 C.2     1  UNL1        0.2628
     16 N         -25.6140    5.2520   26.4490 N.am    1  UNL1       -0.2000
     17 C         -25.0260    6.4790   26.9630 C.3     1  UNL1        0.1388
     18 O         -25.1430    3.9660   28.2430 O.2     1  UNL1       -0.2686
     19 C         -27.4380    3.0910   25.6450 C.2     1  UNL1        0.1025
     20 N         -28.0750    2.0890   25.0030 N.2     1  UNL1       -0.2118
     21 C         -27.5430    0.8490   25.0790 C.2     1  UNL1        0.2344
     22 O         -28.1930   -0.2080   24.4770 O.2     1  UNL1       -0.4585
     23 C         -29.4600    0.0050   23.8660 C.3     1  UNL1        0.2423
     24 C         -30.0650   -1.3770   23.5730 C.3     1  UNL1        0.2292
     25 O         -30.7290   -1.8780   24.7210 O.3     1  UNL1       -0.2162
     26 C         -26.3540    0.5760   25.7770 C.3     1  UNL1        0.2442
     27 F         -25.8600   -0.6810   25.7950 F       1  UNL1       -0.2265
     28 C         -23.4086    0.5719   28.8938 C.2     1  UNL1        0.1813
     29 N         -24.5901   -0.0242   29.1246 N.pl3   1  UNL1       -0.1679
     30 C         -23.5522    1.1948   27.8405 C.2     1  UNL1        0.1115
     31 C         -24.9303    1.0913   27.5381 C.2     1  UNL1        0.0738
     32 O         -22.5396    2.2193   26.0108 O.2     1  UNL1       -0.2540
     33 C         -25.5965    0.2396   28.3608 C.2     1  UNL1        0.3100
     34 C         -29.8687    1.0906   29.8020 C.3     1  UNL1        0.1518
     35 C         -28.3699    1.4229   29.7613 C.3     1  UNL1        0.0885
     36 C         -22.4164    1.7815   27.1192 C.2     1  UNL1        0.3368
     37 O         -29.6565   -0.6693   28.5180 O.3     1  UNL1       -0.3248
     38 C         -27.7721   -0.0264   29.7207 C.3     1  UNL1        0.2629
     39 F         -21.2693    1.8208   27.6866 F       1  UNL1       -0.1585
     40 O         -29.9272   -0.0652   30.5230 O.3     1  UNL1       -0.3272
     41 C         -30.2773    0.6064   28.4269 C.3     1  UNL1        0.1745
     42 N         -27.0123   -0.1560   28.4228 N.pl3   1  UNL1       -0.0353
     43 C         -28.9480   -0.7906   29.8394 C.3     1  UNL1        0.2840
@<TRIPOS>BOND
     1     1     2    1
     2     2     7    1
     3     3     2    2
     4     4     3    1
     5     4     5    2
     6     5     6    1
     7     6     7    2
     8     8     1    1
     9     8     9    1
    10     8    12    1
    11     9    10    1
    12    10    11    1
    13    12    11    1
    14    13    31    1
    15    14    13    1
    16    14    15    1
    17    15    18    2
    18    16    17    1
    19    16    15    1
    20    19    14    2
    21    20    21    2
    22    20    19    1
    23    21    26    1
    24    22    21    1
    25    23    22    1
    26    24    23    1
    27    24    25    1
    28    26    27    1
    29    26    13    1
    30    28    29    1
    31    29     1    1
    32    30    28    2
    33    31    30    1
    34    31    33    2
    35    32    36    2
    36    33    42    1
    37    33    29    1
    38    34    41    1
    39    34    40    1
    40    35    34    1
    41    36    39    1
    42    36    30    1
    43    38    42    1
    44    38    35    1
    45    38    43    1
    46    41    37    1
    47    43    37    1
    48    43    40    1
