@<TRIPOS>MOLECULE
outputs/IAG933/test6/raw/output_7055_IAG933_linker_design_.xyz
 41 44 0 0 0
SMALL
GASTEIGER

@<TRIPOS>ATOM
      1 C         -24.8550   -1.0120   30.1430 C.3     1  UNL1        0.0438
      2 C         -24.9730   -2.5050   29.7880 C.2     1  UNL1       -0.0208
      3 C         -23.9060   -3.1730   29.1460 C.2     1  UNL1       -0.0042
      4 C         -23.9890   -4.5490   28.8530 C.2     1  UNL1       -0.0003
      5 C         -25.1370   -5.2800   29.2050 C.2     1  UNL1       -0.0000
      6 C         -26.2320   -4.6110   29.7840 C.2     1  UNL1       -0.0003
      7 C         -26.1550   -3.2320   30.0650 C.2     1  UNL1       -0.0042
      8 C         -25.3870   -0.6790   31.5710 C.3     1  UNL1        0.0785
      9 C         -25.1890    0.7730   32.0280 C.3     1  UNL1        0.0365
     10 C         -25.3360    0.6840   33.5440 C.3     1  UNL1        0.0217
     11 C         -24.8290   -0.7150   33.9050 C.3     1  UNL1        0.0887
     12 N         -24.7580   -1.4810   32.6460 N.3     1  UNL1       -0.2191
     13 C         -25.6880    1.6140   26.4610 C.3     1  UNL1        0.2315
     14 C         -26.2500    2.9200   26.3950 C.2     1  UNL1        0.0973
     15 C         -25.6420    4.0930   27.1230 C.2     1  UNL1        0.2662
     16 N         -25.6140    5.2520   26.4490 N.am    1  UNL1       -0.1999
     17 C         -25.0260    6.4790   26.9630 C.3     1  UNL1        0.1388
     18 O         -25.1430    3.9660   28.2430 O.2     1  UNL1       -0.2685
     19 C         -27.4380    3.0910   25.6450 C.2     1  UNL1        0.1060
     20 N         -28.0750    2.0890   25.0030 N.2     1  UNL1       -0.2116
     21 C         -27.5430    0.8490   25.0790 C.2     1  UNL1        0.2384
     22 O         -28.1930   -0.2080   24.4770 O.2     1  UNL1       -0.4584
     23 C         -29.4600    0.0050   23.8660 C.3     1  UNL1        0.2423
     24 C         -30.0650   -1.3770   23.5730 C.3     1  UNL1        0.2292
     25 O         -30.7290   -1.8780   24.7210 O.3     1  UNL1       -0.2162
     26 C         -26.3540    0.5760   25.7770 C.3     1  UNL1        0.2824
     27 F         -25.8600   -0.6810   25.7950 F       1  UNL1       -0.2225
     28 CL        -23.0378    2.5773   25.2217 Cl      1  UNL1       -0.0745
     29 N         -23.1311    1.0099   28.9155 N.2     1  UNL1       -0.0353
     30 N         -25.6814    2.0608   30.0283 N.3     1  UNL1       -0.1714
     31 C         -25.8068    3.2739   32.7024 C.3     1  UNL1        0.1681
     32 C         -25.8023    0.9761   28.8055 C.3     1  UNL1        0.2988
     33 C         -21.2775    1.7553   27.0167 C.2     1  UNL1        0.0228
     34 N         -24.9580    1.3447   27.6078 N.pl3   1  UNL1       -0.1706
     35 C         -27.3106    3.6001   32.6821 C.3     1  UNL1        0.0370
     36 C         -21.8487    0.8355   29.2050 C.2     1  UNL1        0.2357
     37 C         -25.3204    2.2266   31.6345 C.3     1  UNL1        0.1085
     38 C         -23.6094    1.4485   27.7492 C.2     1  UNL1        0.3359
     39 C         -22.6646    1.9218   26.7683 C.2     1  UNL1        0.1398
     40 O         -25.0959    4.5527   32.6141 O.3     1  UNL1       -0.2217
     41 C         -20.8619    1.1665   28.2210 C.2     1  UNL1        0.0516
@<TRIPOS>BOND
     1     2     7    1
     2     2     1    1
     3     3     2    2
     4     4     3    1
     5     4     5    2
     6     5     6    1
     7     6     7    2
     8     8     1    1
     9     8     9    1
    10     8    12    1
    11     9    37    1
    12     9    10    1
    13    10    11    1
    14    12    11    1
    15    13    34    1
    16    14    13    1
    17    14    15    1
    18    15    18    2
    19    16    17    1
    20    16    15    1
    21    19    14    2
    22    20    21    2
    23    20    19    1
    24    21    26    1
    25    22    21    1
    26    23    22    1
    27    24    23    1
    28    24    25    1
    29    26    27    1
    30    26    13    1
    31    28    39    1
    32    29    36    1
    33    31    35    1
    34    32    30    1
    35    33    41    1
    36    34    38    1
    37    34    32    1
    38    37    30    1
    39    37    31    1
    40    38    29    2
    41    39    33    2
    42    39    38    1
    43    40    31    1
    44    41    36    2
