@<TRIPOS>MOLECULE
outputs/IAG933/test6/raw/output_7059_IAG933_linker_design_.xyz
 42 44 0 0 0
SMALL
GASTEIGER

@<TRIPOS>ATOM
      1 C         -24.8550   -1.0120   30.1430 C.3     1  UNL1        0.0987
      2 C         -24.9730   -2.5050   29.7880 C.2     1  UNL1       -0.0064
      3 C         -23.9060   -3.1730   29.1460 C.2     1  UNL1       -0.0029
      4 C         -23.9890   -4.5490   28.8530 C.2     1  UNL1       -0.0003
      5 C         -25.1370   -5.2800   29.2050 C.2     1  UNL1       -0.0000
      6 C         -26.2320   -4.6110   29.7840 C.2     1  UNL1       -0.0003
      7 C         -26.1550   -3.2320   30.0650 C.2     1  UNL1       -0.0029
      8 C         -25.3870   -0.6790   31.5710 C.3     1  UNL1        0.0916
      9 C         -25.1890    0.7730   32.0280 C.3     1  UNL1        0.0206
     10 C         -25.3360    0.6840   33.5440 C.3     1  UNL1        0.0203
     11 C         -24.8290   -0.7150   33.9050 C.3     1  UNL1        0.0888
     12 N         -24.7580   -1.4810   32.6460 N.3     1  UNL1       -0.2178
     13 C         -25.6880    1.6140   26.4610 C.3     1  UNL1        0.1179
     14 C         -26.2500    2.9200   26.3950 C.2     1  UNL1        0.0649
     15 C         -25.6420    4.0930   27.1230 C.2     1  UNL1        0.2633
     16 N         -25.6140    5.2520   26.4490 N.am    1  UNL1       -0.2000
     17 C         -25.0260    6.4790   26.9630 C.3     1  UNL1        0.1388
     18 O         -25.1430    3.9660   28.2430 O.2     1  UNL1       -0.2686
     19 C         -27.4380    3.0910   25.6450 C.2     1  UNL1        0.1030
     20 N         -28.0750    2.0890   25.0030 N.2     1  UNL1       -0.2118
     21 C         -27.5430    0.8490   25.0790 C.2     1  UNL1        0.2350
     22 O         -28.1930   -0.2080   24.4770 O.2     1  UNL1       -0.4585
     23 C         -29.4600    0.0050   23.8660 C.3     1  UNL1        0.2423
     24 C         -30.0650   -1.3770   23.5730 C.3     1  UNL1        0.2292
     25 O         -30.7290   -1.8780   24.7210 O.3     1  UNL1       -0.2162
     26 C         -26.3540    0.5760   25.7770 C.3     1  UNL1        0.2499
     27 F         -25.8600   -0.6810   25.7950 F       1  UNL1       -0.2260
     28 O         -28.3809   -0.3918   29.1724 O.2     1  UNL1       -0.2701
     29 C         -23.5143    4.4481   30.6169 C.2     1  UNL1        0.2839
     30 C         -23.3361    3.2818   30.3407 C.1     1  UNL1       -0.0158
     31 S         -23.9583    1.3611   26.1569 S.3     1  UNL1       -0.1234
     32 N         -22.7211    0.3866   28.4599 N.am    1  UNL1       -0.1769
     33 N         -24.9352    0.0216   29.1384 N.3     1  UNL1       -0.2345
     34 C         -27.4786    0.4212   29.0207 C.2     1  UNL1        0.2772
     35 N         -27.4750    1.6585   29.4547 N.am    1  UNL1       -0.0866
     36 C         -23.7397    0.9096   29.1800 C.3     1  UNL1        0.2214
     37 C         -26.2436   -0.2182   28.4558 C.3     1  UNL1        0.1642
     38 O         -24.2970    5.2638   31.2008 O.2     1  UNL1       -0.2733
     39 C         -22.3807    1.9892   26.5941 C.3     1  UNL1        0.1446
     40 C         -21.9227    1.2659   27.8394 C.2     1  UNL1        0.2544
     41 O         -20.7982    1.5038   28.2543 O.2     1  UNL1       -0.2723
     42 C         -23.4736    1.9472   29.8498 C.1     1  UNL1       -0.0453
@<TRIPOS>BOND
     1     1    33    1
     2     2     7    1
     3     2     1    1
     4     3     2    2
     5     4     3    1
     6     4     5    2
     7     5     6    1
     8     6     7    2
     9     8     1    1
    10     8     9    1
    11     8    12    1
    12     9    10    1
    13    10    11    1
    14    12    11    1
    15    13    31    1
    16    14    13    1
    17    14    15    1
    18    15    18    2
    19    16    17    1
    20    16    15    1
    21    19    14    2
    22    20    21    2
    23    20    19    1
    24    21    26    1
    25    22    21    1
    26    23    22    1
    27    24    23    1
    28    24    25    1
    29    26    27    1
    30    26    13    1
    31    29    38    2
    32    30    29    1
    33    31    39    1
    34    32    36    1
    35    33    36    1
    36    34    28    2
    37    34    35    1
    38    36    42    1
    39    37    34    1
    40    37    33    1
    41    39    40    1
    42    40    41    2
    43    40    32    1
    44    42    30    3
