@<TRIPOS>MOLECULE
No_706-gen_results/8p0m/2024-11-27-11-27-31/
 35 38 0 0 0
SMALL
GASTEIGER

@<TRIPOS>ATOM
      1 C         -28.0162   -0.8135   28.8779 C.ar    1  UNL1        0.0275
      2 C         -28.4690   -0.7850   29.8287 C.ar    1  UNL1        0.0590
      3 C         -26.5042   -0.7777   28.8766 C.ar    1  UNL1        0.0679
      4 C         -25.8103   -0.8531   30.1028 C.ar    1  UNL1        0.0178
      5 C         -27.9906   -0.8916   31.2257 C.ar    1  UNL1        0.0115
      6 C         -26.6042   -0.8676   31.2652 C.ar    1  UNL1        0.0022
      7 CL        -30.2937   -0.8377   29.8355 Cl      1  UNL1       -0.0822
      8 C         -24.3700   -0.8208   30.1393 C.ar    1  UNL1        0.0362
      9 C         -23.7914    0.5375   30.1250 C.ar    1  UNL1        0.0059
     10 C         -22.5631    0.6963   29.4364 C.ar    1  UNL1        0.0377
     11 C         -21.8309   -0.4850   29.0506 C.ar    1  UNL1        0.1712
     12 N         -22.4420   -1.6624   29.0597 N.ar    1  UNL1       -0.2095
     13 C         -23.6873   -1.8182   29.5147 C.ar    1  UNL1        0.1711
     14 N         -24.1346   -3.0449   29.4469 N.pl3   1  UNL1       -0.1072
     15 N         -20.6246   -0.2077   28.5131 N.pl3   1  UNL1       -0.1072
     16 N         -25.7804   -0.7028   27.7077 N.pl3   1  UNL1       -0.2183
     17 C         -26.0289    0.1442   26.6712 C.3     1  UNL1        0.1931
     18 C         -26.7053    1.2691   26.8045 C.ar    1  UNL1        0.0126
     19 C         -27.0438    1.8034   28.0135 C.ar    1  UNL1       -0.0014
     20 C         -27.7250    3.1063   28.1162 C.ar    1  UNL1       -0.0002
     21 C         -27.9869    3.7067   29.3561 C.ar    1  UNL1       -0.0000
     22 C         -28.7009    4.8908   29.4762 C.ar    1  UNL1       -0.0000
     23 C         -29.0872    5.4955   28.2622 C.ar    1  UNL1       -0.0000
     24 C         -28.8286    4.9634   27.0343 C.ar    1  UNL1       -0.0000
     25 C         -28.1291    3.7789   26.9590 C.ar    1  UNL1       -0.0000
     26 CL        -25.3493   -0.3795   25.1984 Cl      1  UNL1       -0.0861
     27 C         -26.8591    2.1347   25.5870 C.ar    1  UNL1       -0.0014
     28 C         -27.6792    3.2962   25.6983 C.ar    1  UNL1       -0.0002
     29 C         -27.6491    3.0084   30.6611 C.2     1  UNL1       -0.0000
     30 C         -28.6449    2.9176   31.6184 C.2     1  UNL1       -0.0000
     31 C         -29.9231    3.1896   31.4774 C.2     1  UNL1       -0.0000
     32 C         -30.8061    2.9914   32.5926 C.2     1  UNL1       -0.0003
     33 C         -32.1838    3.2360   32.4753 C.2     1  UNL1       -0.0046
     34 C         -32.6407    3.7129   31.2308 C.2     1  UNL1       -0.0258
     35 C         -31.8544    3.8987   30.1614 C.3     1  UNL1        0.0307
@<TRIPOS>BOND
     1     2     7    1
     2     4     8    1
     3    13    14    1
     4    11    15    1
     5     3    16    1
     6    16    17    1
     7    17    26    1
     8    21    29    1
     9    29    30    2
    10    30    31    1
    11    31    32    2
    12    32    33    1
    13    33    34    2
    14    34    35    1
    15    17    18    1
    16    18    19   ar
    17    19    20   ar
    18    25    28   ar
    19    28    27   ar
    20    27    18   ar
    21     8     9   ar
    22     9    10   ar
    23    10    11   ar
    24    11    12   ar
    25    12    13   ar
    26    13     8   ar
    27     1     2   ar
    28     2     5   ar
    29     5     6   ar
    30     6     4   ar
    31     4     3   ar
    32     3     1   ar
    33    20    21   ar
    34    21    22   ar
    35    22    23   ar
    36    23    24   ar
    37    24    25   ar
    38    25    20   ar
