@<TRIPOS>MOLECULE
outputs/IAG933/test6/raw/output_7063_IAG933_linker_design_.xyz
 42 45 0 0 0
SMALL
GASTEIGER

@<TRIPOS>ATOM
      1 C         -24.8550   -1.0120   30.1430 C.3     1  UNL1        0.0470
      2 C         -24.9730   -2.5050   29.7880 C.2     1  UNL1       -0.0207
      3 C         -23.9060   -3.1730   29.1460 C.2     1  UNL1       -0.0042
      4 C         -23.9890   -4.5490   28.8530 C.2     1  UNL1       -0.0003
      5 C         -25.1370   -5.2800   29.2050 C.2     1  UNL1       -0.0000
      6 C         -26.2320   -4.6110   29.7840 C.2     1  UNL1       -0.0003
      7 C         -26.1550   -3.2320   30.0650 C.2     1  UNL1       -0.0042
      8 C         -25.3870   -0.6790   31.5710 C.3     1  UNL1        0.0773
      9 C         -25.1890    0.7730   32.0280 C.3     1  UNL1        0.0192
     10 C         -25.3360    0.6840   33.5440 C.3     1  UNL1        0.0202
     11 C         -24.8290   -0.7150   33.9050 C.3     1  UNL1        0.0887
     12 N         -24.7580   -1.4810   32.6460 N.3     1  UNL1       -0.2191
     13 C         -25.6880    1.6140   26.4610 C.2     1  UNL1        0.0157
     14 C         -26.2500    2.9200   26.3950 C.2     1  UNL1        0.0726
     15 C         -25.6420    4.0930   27.1230 C.2     1  UNL1        0.2661
     16 N         -25.6140    5.2520   26.4490 N.am    1  UNL1       -0.1997
     17 C         -25.0260    6.4790   26.9630 C.3     1  UNL1        0.1388
     18 O         -25.1430    3.9660   28.2430 O.2     1  UNL1       -0.2683
     19 C         -27.4380    3.0910   25.6450 C.2     1  UNL1        0.1064
     20 N         -28.0750    2.0890   25.0030 N.2     1  UNL1       -0.2081
     21 C         -27.5430    0.8490   25.0790 C.2     1  UNL1        0.2530
     22 O         -28.1930   -0.2080   24.4770 O.2     1  UNL1       -0.4558
     23 C         -29.4600    0.0050   23.8660 C.3     1  UNL1        0.2426
     24 C         -30.0650   -1.3770   23.5730 C.3     1  UNL1        0.2292
     25 O         -30.7290   -1.8780   24.7210 O.3     1  UNL1       -0.2162
     26 C         -26.3540    0.5760   25.7770 C.2     1  UNL1        0.1891
     27 F         -25.8600   -0.6810   25.7950 F       1  UNL1       -0.1996
     28 F         -23.1462    2.4041   25.2322 F       1  UNL1       -0.2324
     29 C         -23.6068   -0.0297   28.2928 C.3     1  UNL1        0.0078
     30 C         -21.1008    1.2132   28.1041 C.2     1  UNL1       -0.0257
     31 O         -21.7381   -0.7086   30.0281 O.3     1  UNL1       -0.2201
     32 C         -22.4845    2.1875   26.3205 C.3     1  UNL1        0.1830
     33 C         -21.2025    2.0976   27.0454 C.2     1  UNL1        0.0039
     34 C         -24.7111    1.4561   27.2405 C.3     1  UNL1        0.0284
     35 C         -22.6697    0.2444   29.5487 C.3     1  UNL1        0.1863
     36 C         -25.5577   -0.0418   29.0963 C.3     1  UNL1        0.0855
     37 O         -27.7633   -0.4831   28.8544 O.2     1  UNL1       -0.2717
     38 C         -26.9699    0.3993   29.0356 C.2     1  UNL1        0.2606
     39 C         -23.5935    1.4976   26.2325 C.3     1  UNL1        0.0443
     40 C         -22.3138    0.5269   28.5704 C.3     1  UNL1        0.0548
     41 N         -27.2958    1.6547   29.2203 N.am    1  UNL1       -0.0878
     42 C         -24.6875    0.4165   28.1522 C.3     1  UNL1        0.0137
@<TRIPOS>BOND
     1     1    36    1
     2     2     7    1
     3     2     1    1
     4     3     2    2
     5     4     3    1
     6     4     5    2
     7     5     6    1
     8     6     7    2
     9     8     1    1
    10     8     9    1
    11     8    12    1
    12     9    10    1
    13    10    11    1
    14    12    11    1
    15    14    13    1
    16    14    15    1
    17    15    18    2
    18    16    17    1
    19    16    15    1
    20    19    14    2
    21    20    21    2
    22    20    19    1
    23    21    26    1
    24    22    21    1
    25    23    22    1
    26    24    23    1
    27    24    25    1
    28    26    27    1
    29    26    13    2
    30    29    40    1
    31    30    40    1
    32    32    28    1
    33    32    33    1
    34    33    30    2
    35    34    13    1
    36    34    42    1
    37    35    31    1
    38    36    38    1
    39    37    38    2
    40    38    41    1
    41    39    32    1
    42    39    34    1
    43    40    35    1
    44    42    29    1
    45    42    36    1
