@<TRIPOS>MOLECULE
outputs/IAG933/test6/raw/output_7074_IAG933_linker_design_.xyz
 45 48 0 0 0
SMALL
GASTEIGER

@<TRIPOS>ATOM
      1 C         -24.8550   -1.0120   30.1430 C.3     1  UNL1        0.1180
      2 C         -24.9730   -2.5050   29.7880 C.2     1  UNL1       -0.0026
      3 C         -23.9060   -3.1730   29.1460 C.2     1  UNL1       -0.0026
      4 C         -23.9890   -4.5490   28.8530 C.2     1  UNL1       -0.0003
      5 C         -25.1370   -5.2800   29.2050 C.2     1  UNL1       -0.0000
      6 C         -26.2320   -4.6110   29.7840 C.2     1  UNL1       -0.0003
      7 C         -26.1550   -3.2320   30.0650 C.2     1  UNL1       -0.0026
      8 C         -25.3870   -0.6790   31.5710 C.3     1  UNL1        0.0955
      9 C         -25.1890    0.7730   32.0280 C.3     1  UNL1        0.0209
     10 C         -25.3360    0.6840   33.5440 C.3     1  UNL1        0.0203
     11 C         -24.8290   -0.7150   33.9050 C.3     1  UNL1        0.0888
     12 N         -24.7580   -1.4810   32.6460 N.3     1  UNL1       -0.2174
     13 C         -25.6880    1.6140   26.4610 C.2     1  UNL1        0.0415
     14 C         -26.2500    2.9200   26.3950 C.2     1  UNL1        0.0767
     15 C         -25.6420    4.0930   27.1230 C.2     1  UNL1        0.2664
     16 N         -25.6140    5.2520   26.4490 N.am    1  UNL1       -0.1997
     17 C         -25.0260    6.4790   26.9630 C.3     1  UNL1        0.1388
     18 O         -25.1430    3.9660   28.2430 O.2     1  UNL1       -0.2683
     19 C         -27.4380    3.0910   25.6450 C.2     1  UNL1        0.1067
     20 N         -28.0750    2.0890   25.0030 N.2     1  UNL1       -0.2081
     21 C         -27.5430    0.8490   25.0790 C.2     1  UNL1        0.2533
     22 O         -28.1930   -0.2080   24.4770 O.2     1  UNL1       -0.4558
     23 C         -29.4600    0.0050   23.8660 C.3     1  UNL1        0.2426
     24 C         -30.0650   -1.3770   23.5730 C.3     1  UNL1        0.2292
     25 O         -30.7290   -1.8780   24.7210 O.3     1  UNL1       -0.2162
     26 C         -26.3540    0.5760   25.7770 C.2     1  UNL1        0.1932
     27 F         -25.8600   -0.6810   25.7950 F       1  UNL1       -0.1992
     28 C         -22.1370    2.1904   27.3858 C.2     1  UNL1        0.0297
     29 C         -24.3803    0.6634   28.3373 C.2     1  UNL1        0.0563
     30 C         -27.8460    3.2675   29.9904 C.3     1  UNL1        0.1016
     31 C         -23.1306    0.6561   28.9874 C.2     1  UNL1        0.0151
     32 C         -28.6148    2.0712   30.5233 C.3     1  UNL1        0.0294
     33 N         -27.6897    4.0543   31.2030 N.3     1  UNL1       -0.1615
     34 C         -23.3115    2.1138   26.6635 C.2     1  UNL1        0.1413
     35 F         -23.3261    2.7743   25.4502 F       1  UNL1       -0.2041
     36 C         -27.5501    0.9086   30.1859 C.3     1  UNL1        0.0871
     37 C         -24.4179    1.4016   27.1263 C.2     1  UNL1        0.0437
     38 O         -28.8439    4.3010   31.9112 O.3     1  UNL1       -0.2464
     39 C         -22.0553    1.4082   28.5300 C.2     1  UNL1        0.0036
     40 C         -26.8002   -0.0202   29.0791 C.2     1  UNL1        0.2296
     41 C         -28.7148    5.4055   32.7037 C.3     1  UNL1        0.3470
     42 O         -27.9576    5.3979   33.8245 O.3     1  UNL1       -0.1823
     43 C         -26.6508    4.9880   31.3081 C.3     1  UNL1        0.1208
     44 O         -27.5067   -0.7166   28.3186 O.2     1  UNL1       -0.2745
     45 N         -25.3624   -0.1101   29.0826 N.am    1  UNL1       -0.2549
@<TRIPOS>BOND
     1     1    45    1
     2     2     7    1
     3     2     1    1
     4     3     2    2
     5     4     3    1
     6     4     5    2
     7     5     6    1
     8     6     7    2
     9     8     1    1
    10     8     9    1
    11     8    12    1
    12     9    10    1
    13    10    11    1
    14    12    11    1
    15    13    37    1
    16    14    13    1
    17    14    15    1
    18    15    18    2
    19    16    17    1
    20    16    15    1
    21    19    14    2
    22    20    21    2
    23    20    19    1
    24    21    26    1
    25    22    21    1
    26    23    22    1
    27    24    23    1
    28    24    25    1
    29    26    27    1
    30    26    13    2
    31    28    39    1
    32    29    31    1
    33    29    45    1
    34    30    32    1
    35    30    33    1
    36    33    43    1
    37    33    38    1
    38    34    37    1
    39    34    28    2
    40    35    34    1
    41    36    32    1
    42    37    29    2
    43    38    41    1
    44    39    31    2
    45    40    45   am
    46    40    36    1
    47    41    42    1
    48    44    40    2
