@<TRIPOS>MOLECULE
outputs/IAG933/test6/raw/output_7076_IAG933_linker_design_.xyz
 45 47 0 0 0
SMALL
GASTEIGER

@<TRIPOS>ATOM
      1 C         -24.8550   -1.0120   30.1430 C.3     1  UNL1        0.2057
      2 C         -24.9730   -2.5050   29.7880 C.2     1  UNL1        0.0186
      3 C         -23.9060   -3.1730   29.1460 C.2     1  UNL1       -0.0008
      4 C         -23.9890   -4.5490   28.8530 C.2     1  UNL1       -0.0002
      5 C         -25.1370   -5.2800   29.2050 C.2     1  UNL1       -0.0000
      6 C         -26.2320   -4.6110   29.7840 C.2     1  UNL1       -0.0002
      7 C         -26.1550   -3.2320   30.0650 C.2     1  UNL1       -0.0008
      8 C         -25.3870   -0.6790   31.5710 C.3     1  UNL1        0.1170
      9 C         -25.1890    0.7730   32.0280 C.3     1  UNL1        0.0229
     10 C         -25.3360    0.6840   33.5440 C.3     1  UNL1        0.0204
     11 C         -24.8290   -0.7150   33.9050 C.3     1  UNL1        0.0888
     12 N         -24.7580   -1.4810   32.6460 N.3     1  UNL1       -0.2154
     13 C         -25.6880    1.6140   26.4610 C.3     1  UNL1        0.0852
     14 C         -26.2500    2.9200   26.3950 C.2     1  UNL1        0.0538
     15 C         -25.6420    4.0930   27.1230 C.2     1  UNL1        0.2196
     16 N         -25.6140    5.2520   26.4490 N.2     1  UNL1       -0.2359
     17 C         -25.0260    6.4790   26.9630 C.3     1  UNL1        0.1550
     18 O         -25.1430    3.9660   28.2430 O.2     1  UNL1       -0.4410
     19 C         -27.4380    3.0910   25.6450 C.2     1  UNL1        0.1022
     20 N         -28.0750    2.0890   25.0030 N.2     1  UNL1       -0.2119
     21 C         -27.5430    0.8490   25.0790 C.2     1  UNL1        0.2341
     22 O         -28.1930   -0.2080   24.4770 O.2     1  UNL1       -0.4585
     23 C         -29.4600    0.0050   23.8660 C.3     1  UNL1        0.2423
     24 C         -30.0650   -1.3770   23.5730 C.3     1  UNL1        0.2292
     25 O         -30.7290   -1.8780   24.7210 O.3     1  UNL1       -0.2162
     26 C         -26.3540    0.5760   25.7770 C.3     1  UNL1        0.2412
     27 F         -25.8600   -0.6810   25.7950 F       1  UNL1       -0.2269
     28 C         -26.2594    3.8551   30.5442 C.3     1  UNL1        0.1390
     29 O         -22.4854   -0.1625   29.8270 O.2     1  UNL1       -0.2318
     30 O         -25.3889   -0.4480   29.1591 O.2     1  UNL1       -0.4550
     31 O         -28.4615    2.8870   30.5321 O.3     1  UNL1       -0.2201
     32 O         -27.4337    7.4238   30.7997 O.co2   1  UNL1       -0.2428
     33 C         -22.8052    0.4069   28.8523 C.1     1  UNL1        0.1255
     34 C         -27.6664    3.5560   31.4658 C.3     1  UNL1        0.1909
     35 O         -25.1816    6.0606   30.1875 O.3     1  UNL1       -0.2106
     36 C         -21.7450    1.4802   27.7257 C.3     1  UNL1        0.0389
     37 C         -25.5745    3.1771   29.2724 C.3     1  UNL1        0.2805
     38 BR        -23.3100    2.3005   25.3761 Br      1  UNL1       -0.0760
     39 C         -27.5637    6.1369   30.7119 C.2     1  UNL1        0.3949
     40 C         -26.4937    5.2864   30.1038 C.3     1  UNL1        0.2620
     41 O         -28.7865    5.5457   30.8500 O.co2   1  UNL1       -0.2428
     42 C         -24.1660    1.5434   26.7966 C.3     1  UNL1        0.0927
     43 C         -25.4781    0.8804   29.0091 C.2     1  UNL1        0.2786
     44 C         -23.1234    0.9594   27.8060 C.2     1  UNL1        0.0415
     45 N         -25.3390    1.9523   29.3295 N.2     1  UNL1       -0.1936
@<TRIPOS>BOND
     1     1    30    1
     2     2     7    1
     3     2     1    1
     4     3     2    2
     5     4     3    1
     6     4     5    2
     7     5     6    1
     8     6     7    2
     9     8     1    1
    10     8     9    1
    11     8    12    1
    12     9    10    1
    13    10    11    1
    14    12    11    1
    15    13    42    1
    16    14    13    1
    17    14    15    1
    18    15    18    1
    19    16    17    1
    20    16    15    2
    21    19    14    2
    22    20    21    2
    23    20    19    1
    24    21    26    1
    25    22    21    1
    26    23    22    1
    27    24    23    1
    28    24    25    1
    29    26    27    1
    30    26    13    1
    31    28    34    1
    32    31    34    1
    33    33    29    2
    34    36    44    1
    35    37    18    1
    36    37    45    1
    37    37    28    1
    38    39    32   ar
    39    39    41   ar
    40    40    35    1
    41    40    28    1
    42    40    39    1
    43    42    38    1
    44    42    44    1
    45    43    30    1
    46    43    45    2
    47    44    33    2
