@<TRIPOS>MOLECULE
outputs/IAG933/test6/raw/output_7077_IAG933_linker_design_.xyz
 38 41 0 0 0
SMALL
GASTEIGER

@<TRIPOS>ATOM
      1 C         -24.8550   -1.0120   30.1430 C.3     1  UNL1        0.2052
      2 C         -24.9730   -2.5050   29.7880 C.2     1  UNL1        0.0186
      3 C         -23.9060   -3.1730   29.1460 C.2     1  UNL1       -0.0008
      4 C         -23.9890   -4.5490   28.8530 C.2     1  UNL1       -0.0002
      5 C         -25.1370   -5.2800   29.2050 C.2     1  UNL1       -0.0000
      6 C         -26.2320   -4.6110   29.7840 C.2     1  UNL1       -0.0002
      7 C         -26.1550   -3.2320   30.0650 C.2     1  UNL1       -0.0008
      8 C         -25.3870   -0.6790   31.5710 C.3     1  UNL1        0.1170
      9 C         -25.1890    0.7730   32.0280 C.3     1  UNL1        0.0229
     10 C         -25.3360    0.6840   33.5440 C.3     1  UNL1        0.0204
     11 C         -24.8290   -0.7150   33.9050 C.3     1  UNL1        0.0888
     12 N         -24.7580   -1.4810   32.6460 N.3     1  UNL1       -0.2154
     13 C         -25.6880    1.6140   26.4610 C.2     1  UNL1        0.0430
     14 C         -26.2500    2.9200   26.3950 C.2     1  UNL1        0.0747
     15 C         -25.6420    4.0930   27.1230 C.2     1  UNL1        0.2662
     16 N         -25.6140    5.2520   26.4490 N.am    1  UNL1       -0.1997
     17 C         -25.0260    6.4790   26.9630 C.3     1  UNL1        0.1388
     18 O         -25.1430    3.9660   28.2430 O.2     1  UNL1       -0.2683
     19 C         -27.4380    3.0910   25.6450 C.2     1  UNL1        0.1065
     20 N         -28.0750    2.0890   25.0030 N.2     1  UNL1       -0.2081
     21 C         -27.5430    0.8490   25.0790 C.2     1  UNL1        0.2530
     22 O         -28.1930   -0.2080   24.4770 O.2     1  UNL1       -0.4558
     23 C         -29.4600    0.0050   23.8660 C.3     1  UNL1        0.2426
     24 C         -30.0650   -1.3770   23.5730 C.3     1  UNL1        0.2292
     25 O         -30.7290   -1.8780   24.7210 O.3     1  UNL1       -0.2162
     26 C         -26.3540    0.5760   25.7770 C.2     1  UNL1        0.1913
     27 F         -25.8600   -0.6810   25.7950 F       1  UNL1       -0.1995
     28 C         -20.0074    0.2893   28.4376 C.2     1  UNL1       -0.0040
     29 C         -23.2295    1.7728   26.6768 C.2     1  UNL1        0.0859
     30 C         -24.4307    1.3611   27.1951 C.3     1  UNL1        0.1653
     31 O         -23.4829   -0.5685   30.0683 O.2     1  UNL1       -0.4607
     32 N         -24.5313    0.6062   28.3464 N.2     1  UNL1       -0.2329
     33 C         -23.4151    0.2148   28.9755 C.2     1  UNL1        0.2067
     34 C         -22.1738    0.5721   28.4457 C.3     1  UNL1        0.1482
     35 F         -20.9126    1.9872   27.0385 F       1  UNL1       -0.2074
     36 C         -22.0819    1.4196   27.3606 C.2     1  UNL1        0.1388
     37 CL        -23.1358    2.7508   25.1859 Cl      1  UNL1       -0.0826
     38 C         -20.9978    0.0640   28.8964 C.2     1  UNL1       -0.0105
@<TRIPOS>BOND
     1     1    31    1
     2     2     7    1
     3     2     1    1
     4     3     2    2
     5     4     3    1
     6     4     5    2
     7     5     6    1
     8     6     7    2
     9     8     1    1
    10     8     9    1
    11     8    12    1
    12     9    10    1
    13    10    11    1
    14    12    11    1
    15    14    13    1
    16    14    15    1
    17    15    18    2
    18    16    17    1
    19    16    15    1
    20    19    14    2
    21    20    21    2
    22    20    19    1
    23    21    26    1
    24    22    21    1
    25    23    22    1
    26    24    23    1
    27    24    25    1
    28    26    27    1
    29    26    13    2
    30    28    38    2
    31    29    30    1
    32    29    36    2
    33    30    13    1
    34    30    32    1
    35    32    33    2
    36    33    31    1
    37    34    38    1
    38    34    33    1
    39    35    36    1
    40    36    34    1
    41    37    29    1
