@<TRIPOS>MOLECULE
outputs/IAG933/test6/raw/output_7078_IAG933_linker_design_.xyz
 42 46 0 0 0
SMALL
GASTEIGER

@<TRIPOS>ATOM
      1 C         -24.8550   -1.0120   30.1430 C.3     1  UNL1        0.1139
      2 C         -24.9730   -2.5050   29.7880 C.2     1  UNL1       -0.0029
      3 C         -23.9060   -3.1730   29.1460 C.2     1  UNL1       -0.0026
      4 C         -23.9890   -4.5490   28.8530 C.2     1  UNL1       -0.0003
      5 C         -25.1370   -5.2800   29.2050 C.2     1  UNL1       -0.0000
      6 C         -26.2320   -4.6110   29.7840 C.2     1  UNL1       -0.0003
      7 C         -26.1550   -3.2320   30.0650 C.2     1  UNL1       -0.0026
      8 C         -25.3870   -0.6790   31.5710 C.3     1  UNL1        0.0951
      9 C         -25.1890    0.7730   32.0280 C.3     1  UNL1        0.0209
     10 C         -25.3360    0.6840   33.5440 C.3     1  UNL1        0.0203
     11 C         -24.8290   -0.7150   33.9050 C.3     1  UNL1        0.0888
     12 N         -24.7580   -1.4810   32.6460 N.3     1  UNL1       -0.2174
     13 C         -25.6880    1.6140   26.4610 C.3     1  UNL1        0.1457
     14 C         -26.2500    2.9200   26.3950 C.2     1  UNL1        0.0731
     15 C         -25.6420    4.0930   27.1230 C.2     1  UNL1        0.2640
     16 N         -25.6140    5.2520   26.4490 N.am    1  UNL1       -0.1999
     17 C         -25.0260    6.4790   26.9630 C.3     1  UNL1        0.1388
     18 O         -25.1430    3.9660   28.2430 O.2     1  UNL1       -0.2686
     19 C         -27.4380    3.0910   25.6450 C.2     1  UNL1        0.1038
     20 N         -28.0750    2.0890   25.0030 N.2     1  UNL1       -0.2118
     21 C         -27.5430    0.8490   25.0790 C.2     1  UNL1        0.2358
     22 O         -28.1930   -0.2080   24.4770 O.2     1  UNL1       -0.4585
     23 C         -29.4600    0.0050   23.8660 C.3     1  UNL1        0.2423
     24 C         -30.0650   -1.3770   23.5730 C.3     1  UNL1        0.2292
     25 O         -30.7290   -1.8780   24.7210 O.3     1  UNL1       -0.2162
     26 C         -26.3540    0.5760   25.7770 C.3     1  UNL1        0.2581
     27 F         -25.8600   -0.6810   25.7950 F       1  UNL1       -0.2251
     28 C         -25.6426    0.8400   28.8026 C.3     1  UNL1        0.2317
     29 C         -22.2843   -0.1523   28.9890 C.2     1  UNL1        0.0161
     30 N         -26.8579    1.2607   29.4548 N.3     1  UNL1       -0.1793
     31 O         -28.1253   -1.0859   28.9815 O.3     1  UNL1       -0.2188
     32 C         -22.1075    2.5534   24.8413 C.3     1  UNL1        0.2525
     33 C         -21.2395    0.4903   28.2761 C.2     1  UNL1        0.0045
     34 O         -23.1206    2.3935   25.7809 O.2     1  UNL1       -0.4701
     35 N         -25.1414    1.2249   27.6609 N.pl3   1  UNL1       -0.2704
     36 C         -23.8396    1.1521   27.7220 C.2     1  UNL1        0.0982
     37 C         -23.6614    0.3322   28.7338 C.2     1  UNL1        0.0668
     38 C         -28.8658    0.0349   28.5330 C.3     1  UNL1        0.2009
     39 C         -28.3562    1.1981   29.4422 C.3     1  UNL1        0.1276
     40 C         -21.4753    1.4052   27.2329 C.2     1  UNL1        0.0383
     41 C         -22.8224    1.6770   26.8487 C.2     1  UNL1        0.1532
     42 N         -24.6460    0.0825   29.1659 N.pl3   1  UNL1       -0.2747
@<TRIPOS>BOND
     1     1     2    1
     2     2     7    1
     3     3     2    2
     4     4     3    1
     5     4     5    2
     6     5     6    1
     7     6     7    2
     8     8     1    1
     9     8     9    1
    10     8    12    1
    11     9    10    1
    12    10    11    1
    13    12    11    1
    14    13    35    1
    15    14    13    1
    16    14    15    1
    17    15    18    2
    18    16    17    1
    19    16    15    1
    20    19    14    2
    21    20    21    2
    22    20    19    1
    23    21    26    1
    24    22    21    1
    25    23    22    1
    26    24    23    1
    27    24    25    1
    28    26    27    1
    29    26    13    1
    30    28    42    1
    31    28    30    1
    32    32    34    1
    33    33    29    2
    34    34    41    1
    35    35    36    1
    36    35    28    1
    37    36    37    2
    38    37    29    1
    39    37    42    1
    40    38    31    1
    41    38    39    1
    42    39    30    1
    43    40    33    1
    44    41    40    2
    45    41    36    1
    46    42     1    1
