@<TRIPOS>MOLECULE
outputs/IAG933/test6/raw/output_7082_IAG933_linker_design_.xyz
 40 43 0 0 0
SMALL
GASTEIGER

@<TRIPOS>ATOM
      1 C         -24.8550   -1.0120   30.1430 C.3     1  UNL1        0.0437
      2 C         -24.9730   -2.5050   29.7880 C.2     1  UNL1       -0.0208
      3 C         -23.9060   -3.1730   29.1460 C.2     1  UNL1       -0.0042
      4 C         -23.9890   -4.5490   28.8530 C.2     1  UNL1       -0.0003
      5 C         -25.1370   -5.2800   29.2050 C.2     1  UNL1       -0.0000
      6 C         -26.2320   -4.6110   29.7840 C.2     1  UNL1       -0.0003
      7 C         -26.1550   -3.2320   30.0650 C.2     1  UNL1       -0.0042
      8 C         -25.3870   -0.6790   31.5710 C.3     1  UNL1        0.0775
      9 C         -25.1890    0.7730   32.0280 C.3     1  UNL1        0.0226
     10 C         -25.3360    0.6840   33.5440 C.3     1  UNL1        0.0205
     11 C         -24.8290   -0.7150   33.9050 C.3     1  UNL1        0.0887
     12 N         -24.7580   -1.4810   32.6460 N.3     1  UNL1       -0.2191
     13 C         -25.6880    1.6140   26.4610 C.2     1  UNL1        0.0574
     14 C         -26.2500    2.9200   26.3950 C.2     1  UNL1        0.0762
     15 C         -25.6420    4.0930   27.1230 C.2     1  UNL1        0.2662
     16 N         -25.6140    5.2520   26.4490 N.am    1  UNL1       -0.1997
     17 C         -25.0260    6.4790   26.9630 C.3     1  UNL1        0.1388
     18 O         -25.1430    3.9660   28.2430 O.2     1  UNL1       -0.2683
     19 C         -27.4380    3.0910   25.6450 C.2     1  UNL1        0.1065
     20 N         -28.0750    2.0890   25.0030 N.2     1  UNL1       -0.2081
     21 C         -27.5430    0.8490   25.0790 C.2     1  UNL1        0.2531
     22 O         -28.1930   -0.2080   24.4770 O.2     1  UNL1       -0.4558
     23 C         -29.4600    0.0050   23.8660 C.3     1  UNL1        0.2426
     24 C         -30.0650   -1.3770   23.5730 C.3     1  UNL1        0.2292
     25 O         -30.7290   -1.8780   24.7210 O.3     1  UNL1       -0.2162
     26 C         -26.3540    0.5760   25.7770 C.2     1  UNL1        0.1927
     27 F         -25.8600   -0.6810   25.7950 F       1  UNL1       -0.1994
     28 C         -22.7091    0.7916   29.1260 C.3     1  UNL1        0.0776
     29 C         -21.6620    0.7065   28.0025 C.3     1  UNL1        0.0528
     30 F         -20.9981    2.6426   26.8939 F       1  UNL1       -0.2371
     31 C         -25.3044    3.0130   30.9851 C.2     1  UNL1        0.0466
     32 C         -26.1267    1.9085   31.5552 C.3     1  UNL1        0.0358
     33 O         -24.5321   -0.3052   27.3943 O.3     1  UNL1       -0.2042
     34 C         -23.2983    1.6780   26.2232 C.3     1  UNL1        0.0859
     35 C         -24.4390    1.1662   27.2248 C.3     1  UNL1        0.1985
     36 O         -25.8534    5.3710   32.0998 O.2     1  UNL1       -0.2317
     37 C         -25.5071    4.3347   31.6185 C.1     1  UNL1        0.1260
     38 C         -21.9538    1.7022   26.8750 C.3     1  UNL1        0.1666
     39 C         -24.5751    2.4654   29.6988 C.3     1  UNL1        0.1077
     40 N         -24.0219    1.5253   28.6838 N.3     1  UNL1       -0.2435
@<TRIPOS>BOND
     1     2     7    1
     2     2     1    1
     3     3     2    2
     4     4     3    1
     5     4     5    2
     6     5     6    1
     7     6     7    2
     8     8     1    1
     9     8     9    1
    10     8    12    1
    11     9    32    1
    12     9    10    1
    13    10    11    1
    14    12    11    1
    15    13    35    1
    16    14    13    1
    17    14    15    1
    18    15    18    2
    19    16    17    1
    20    16    15    1
    21    19    14    2
    22    20    21    2
    23    20    19    1
    24    21    26    1
    25    22    21    1
    26    23    22    1
    27    24    23    1
    28    24    25    1
    29    26    27    1
    30    26    13    2
    31    29    28    1
    32    31    32    1
    33    31    37    2
    34    34    38    1
    35    34    35    1
    36    35    33    1
    37    35    40    1
    38    37    36    2
    39    38    30    1
    40    38    29    1
    41    39    31    1
    42    40    28    1
    43    40    39    1
