@<TRIPOS>MOLECULE
outputs/IAG933/test6/raw/output_7088_IAG933_linker_design_.xyz
 42 46 0 0 0
SMALL
GASTEIGER

@<TRIPOS>ATOM
      1 C         -24.8550   -1.0120   30.1430 C.3     1  UNL1        0.1351
      2 C         -24.9730   -2.5050   29.7880 C.2     1  UNL1       -0.0012
      3 C         -23.9060   -3.1730   29.1460 C.2     1  UNL1       -0.0026
      4 C         -23.9890   -4.5490   28.8530 C.2     1  UNL1       -0.0003
      5 C         -25.1370   -5.2800   29.2050 C.2     1  UNL1       -0.0000
      6 C         -26.2320   -4.6110   29.7840 C.2     1  UNL1       -0.0003
      7 C         -26.1550   -3.2320   30.0650 C.2     1  UNL1       -0.0026
      8 C         -25.3870   -0.6790   31.5710 C.3     1  UNL1        0.0969
      9 C         -25.1890    0.7730   32.0280 C.3     1  UNL1        0.0210
     10 C         -25.3360    0.6840   33.5440 C.3     1  UNL1        0.0203
     11 C         -24.8290   -0.7150   33.9050 C.3     1  UNL1        0.0888
     12 N         -24.7580   -1.4810   32.6460 N.3     1  UNL1       -0.2174
     13 C         -25.6880    1.6140   26.4610 C.3     1  UNL1        0.1514
     14 C         -26.2500    2.9200   26.3950 C.2     1  UNL1        0.0713
     15 C         -25.6420    4.0930   27.1230 C.2     1  UNL1        0.2638
     16 N         -25.6140    5.2520   26.4490 N.am    1  UNL1       -0.2000
     17 C         -25.0260    6.4790   26.9630 C.3     1  UNL1        0.1388
     18 O         -25.1430    3.9660   28.2430 O.2     1  UNL1       -0.2686
     19 C         -27.4380    3.0910   25.6450 C.2     1  UNL1        0.1035
     20 N         -28.0750    2.0890   25.0030 N.2     1  UNL1       -0.2118
     21 C         -27.5430    0.8490   25.0790 C.2     1  UNL1        0.2356
     22 O         -28.1930   -0.2080   24.4770 O.2     1  UNL1       -0.4585
     23 C         -29.4600    0.0050   23.8660 C.3     1  UNL1        0.2423
     24 C         -30.0650   -1.3770   23.5730 C.3     1  UNL1        0.2292
     25 O         -30.7290   -1.8780   24.7210 O.3     1  UNL1       -0.2162
     26 C         -26.3540    0.5760   25.7770 C.3     1  UNL1        0.2563
     27 F         -25.8600   -0.6810   25.7950 F       1  UNL1       -0.2253
     28 C         -21.3040    1.4575   27.7642 C.2     1  UNL1       -0.0011
     29 C         -20.2567    0.7274   28.2217 C.2     1  UNL1       -0.0002
     30 N         -24.2830   -0.0949   29.1710 N.pl3   1  UNL1       -0.1772
     31 C         -23.0496    2.1730   25.8040 C.2     1  UNL1        0.3307
     32 C         -22.6536    1.1319   27.9380 C.2     1  UNL1        0.0186
     33 C         -23.5310    1.6398   27.1022 C.3     1  UNL1        0.1952
     34 C         -20.7388   -0.3439   28.7616 C.2     1  UNL1        0.0013
     35 O         -26.6213    0.6742   28.9039 O.2     1  UNL1       -0.1376
     36 F         -21.7603    2.0305   25.2630 F       1  UNL1       -0.1617
     37 O         -24.7979    2.1401   29.7749 O.2     1  UNL1       -0.1376
     38 N         -24.7213    1.4865   27.4577 N.3     1  UNL1       -0.1237
     39 S         -25.2856    1.2146   28.8974 S.O2    1  UNL1        0.1173
     40 C         -22.9689    0.1258   28.8294 C.2     1  UNL1        0.0680
     41 O         -23.6368    2.8807   25.1070 O.2     1  UNL1       -0.2572
     42 C         -21.9449   -0.6629   29.2385 C.2     1  UNL1        0.0159
@<TRIPOS>BOND
     1     1     2    1
     2     2     7    1
     3     3     2    2
     4     4     3    1
     5     4     5    2
     6     5     6    1
     7     6     7    2
     8     8     1    1
     9     8     9    1
    10     8    12    1
    11     9    10    1
    12    10    11    1
    13    12    11    1
    14    13    14    1
    15    14    15    1
    16    15    18    2
    17    16    17    1
    18    16    15    1
    19    19    14    2
    20    20    21    2
    21    20    19    1
    22    21    26    1
    23    22    21    1
    24    23    22    1
    25    24    23    1
    26    24    25    1
    27    26    27    1
    28    26    13    1
    29    28    32    2
    30    28    29    1
    31    29    34    2
    32    30     1    1
    33    32    40    1
    34    33    31    1
    35    33    38    1
    36    33    32    1
    37    34    42    1
    38    36    31    1
    39    38    13    1
    40    38    39    1
    41    39    35    2
    42    39    30    1
    43    39    37    2
    44    40    30    1
    45    40    42    2
    46    41    31    2
