@<TRIPOS>MOLECULE
No_71-gen_results/8p0m/2024-11-27-11-27-31/
 35 38 0 0 0
SMALL
GASTEIGER

@<TRIPOS>ATOM
      1 C         -28.0162   -0.8135   28.8779 C.ar    1  UNL1        0.0377
      2 C         -27.0636   -0.1189   28.6079 C.ar    1  UNL1        0.0136
      3 C         -25.7923   -0.4302   29.0761 C.ar    1  UNL1        0.0578
      4 C         -25.5756   -1.5654   29.9363 C.ar    1  UNL1        0.0145
      5 C         -26.7354   -2.3004   30.2173 C.ar    1  UNL1        0.0378
      6 C         -27.9184   -1.9537   29.7629 C.ar    1  UNL1        0.1388
      7 O         -29.0001   -2.7012   30.1151 O.3     1  UNL1       -0.4710
      8 CL        -24.3499    0.4889   28.7497 Cl      1  UNL1       -0.0822
      9 C         -29.3705   -2.8230   31.4465 C.3     1  UNL1        0.2581
     10 C         -29.9499   -1.8071   31.9917 C.3     1  UNL1        0.2845
     11 C         -30.5022   -0.8733   31.3027 C.2     1  UNL1        0.2698
     12 O         -31.3530   -1.1101   30.5660 O.2     1  UNL1       -0.2708
     13 O         -29.9073   -1.7727   33.3723 O.2     1  UNL1       -0.4630
     14 N         -30.0716    0.4725   31.5055 N.am    1  UNL1       -0.2765
     15 C         -30.5993    1.5897   30.7429 C.3     1  UNL1        0.0935
     16 C         -30.9802    2.5667   31.4663 C.3     1  UNL1        0.0216
     17 C         -30.2721    2.9499   32.6565 C.3     1  UNL1        0.0035
     18 C         -29.5136    1.8726   33.3152 C.3     1  UNL1        0.0199
     19 C         -29.4188    0.7304   32.6968 C.3     1  UNL1        0.0935
     20 C         -27.1326    1.1477   27.7344 C.ar    1  UNL1        0.0009
     21 C         -26.9231    1.0917   26.4339 C.ar    1  UNL1        0.0000
     22 C         -26.9976    2.1077   25.6353 C.ar    1  UNL1        0.0000
     23 C         -27.3693    3.1128   25.9012 C.ar    1  UNL1        0.0000
     24 C         -27.7275    3.4552   27.3092 C.ar    1  UNL1        0.0000
     25 C         -27.6099    2.4159   28.2083 C.ar    1  UNL1        0.0000
     26 C         -30.8764   -2.3531   33.9074 C.2     1  UNL1        0.1729
     27 C         -31.0240   -1.9469   35.1603 C.2     1  UNL1        0.0401
     28 C         -30.0966   -1.3381   35.8583 C.ar    1  UNL1        0.0031
     29 C         -29.5392   -1.6424   36.8599 C.ar    1  UNL1        0.0001
     30 C         -28.3807   -0.9990   37.5771 C.ar    1  UNL1        0.0000
     31 C         -27.9077    0.2167   36.9790 C.ar    1  UNL1        0.0000
     32 C         -28.5518    0.6395   35.8172 C.ar    1  UNL1        0.0000
     33 C         -29.5624   -0.0522   35.2614 C.ar    1  UNL1        0.0001
     34 C         -30.3363    0.7426   34.3174 C.3     1  UNL1        0.0017
     35 C         -31.6587    1.0014   34.2364 C.3     1  UNL1        0.0001
@<TRIPOS>BOND
     1     6     7    1
     2     3     8    1
     3     7     9    1
     4     9    10    1
     5    10    11    1
     6    11    12    2
     7    10    13    1
     8    11    14   am
     9    14    15    1
    10    16    17    1
    11    14    19    1
    12    18    19    1
    13     2    20    1
    14    13    26    1
    15    26    27    2
    16    27    28    1
    17    18    34    1
    18    34    35    1
    19    15    16    1
    20    17    18    1
    21    28    29   ar
    22    29    30   ar
    23    30    31   ar
    24    31    32   ar
    25    32    33   ar
    26    33    28   ar
    27     1     2   ar
    28     2     3   ar
    29     3     4   ar
    30     4     5   ar
    31     5     6   ar
    32     6     1   ar
    33    20    21   ar
    34    21    22   ar
    35    22    23   ar
    36    23    24   ar
    37    24    25   ar
    38    25    20   ar
