@<TRIPOS>MOLECULE
outputs/IAG933/test6/raw/output_7101_IAG933_linker_design_.xyz
 42 46 0 0 0
SMALL
GASTEIGER

@<TRIPOS>ATOM
      1 C         -24.8550   -1.0120   30.1430 C.3     1  UNL1        0.1982
      2 C         -24.9730   -2.5050   29.7880 C.2     1  UNL1        0.0213
      3 C         -23.9060   -3.1730   29.1460 C.2     1  UNL1       -0.0004
      4 C         -23.9890   -4.5490   28.8530 C.2     1  UNL1       -0.0002
      5 C         -25.1370   -5.2800   29.2050 C.2     1  UNL1       -0.0000
      6 C         -26.2320   -4.6110   29.7840 C.2     1  UNL1       -0.0002
      7 C         -26.1550   -3.2320   30.0650 C.2     1  UNL1       -0.0004
      8 C         -25.3870   -0.6790   31.5710 C.3     1  UNL1        0.1197
      9 C         -25.1890    0.7730   32.0280 C.3     1  UNL1        0.0233
     10 C         -25.3360    0.6840   33.5440 C.3     1  UNL1        0.0204
     11 C         -24.8290   -0.7150   33.9050 C.3     1  UNL1        0.0889
     12 N         -24.7580   -1.4810   32.6460 N.3     1  UNL1       -0.2150
     13 C         -25.6880    1.6140   26.4610 C.2     1  UNL1        0.0407
     14 C         -26.2500    2.9200   26.3950 C.2     1  UNL1        0.0744
     15 C         -25.6420    4.0930   27.1230 C.2     1  UNL1        0.2219
     16 N         -25.6140    5.2520   26.4490 N.2     1  UNL1       -0.2357
     17 C         -25.0260    6.4790   26.9630 C.3     1  UNL1        0.1550
     18 O         -25.1430    3.9660   28.2430 O.2     1  UNL1       -0.4597
     19 C         -27.4380    3.0910   25.6450 C.2     1  UNL1        0.1068
     20 N         -28.0750    2.0890   25.0030 N.2     1  UNL1       -0.2081
     21 C         -27.5430    0.8490   25.0790 C.2     1  UNL1        0.2533
     22 O         -28.1930   -0.2080   24.4770 O.2     1  UNL1       -0.4558
     23 C         -29.4600    0.0050   23.8660 C.3     1  UNL1        0.2426
     24 C         -30.0650   -1.3770   23.5730 C.3     1  UNL1        0.2292
     25 O         -30.7290   -1.8780   24.7210 O.3     1  UNL1       -0.2162
     26 C         -26.3540    0.5760   25.7770 C.2     1  UNL1        0.1931
     27 F         -25.8600   -0.6810   25.7950 F       1  UNL1       -0.1992
     28 C         -27.7402    3.9264   29.1671 C.2     1  UNL1        0.0466
     29 C         -24.3208    3.1563   28.9008 C.3     1  UNL1        0.2217
     30 C         -27.6638    5.8383   30.6435 C.2     1  UNL1        0.0002
     31 C         -21.4517    1.8777   27.7931 C.3     1  UNL1        0.1742
     32 C         -24.6878   -0.3620   27.7772 C.3     1  UNL1        0.2325
     33 N         -25.5278   -0.2109   29.0721 N.pl3   1  UNL1       -0.1903
     34 C         -24.1377    1.6491   28.9632 C.3     1  UNL1        0.1803
     35 C         -26.5884    3.7749   31.2553 C.2     1  UNL1        0.0466
     36 N         -26.5227    1.8859   29.6755 N.2     1  UNL1       -0.0444
     37 C         -26.9307    3.1669   30.0362 C.2     1  UNL1        0.1929
     38 C         -26.9324    5.0945   31.5600 C.2     1  UNL1        0.0038
     39 C         -23.5119    0.7070   27.9540 C.3     1  UNL1        0.1770
     40 O         -22.7116    1.6706   27.1174 O.3     1  UNL1       -0.3486
     41 C         -25.5492    1.2153   29.2038 C.2     1  UNL1        0.3060
     42 C         -28.0466    5.2633   29.4340 C.2     1  UNL1        0.0038
@<TRIPOS>BOND
     1     1     2    1
     2     2     7    1
     3     3     2    2
     4     4     3    1
     5     4     5    2
     6     5     6    1
     7     6     7    2
     8     8     1    1
     9     8     9    1
    10     8    12    1
    11     9    10    1
    12    10    11    1
    13    12    11    1
    14    14    13    1
    15    14    15    1
    16    15    18    1
    17    16    17    1
    18    16    15    2
    19    18    29    1
    20    19    14    2
    21    20    21    2
    22    20    19    1
    23    21    26    1
    24    22    21    1
    25    23    22    1
    26    24    23    1
    27    24    25    1
    28    26    27    1
    29    26    13    2
    30    28    42    2
    31    28    37    1
    32    30    38    2
    33    32    39    1
    34    32    33    1
    35    33    41    1
    36    33     1    1
    37    34    29    1
    38    34    41    1
    39    35    38    1
    40    36    37    1
    41    37    35    2
    42    39    40    1
    43    39    34    1
    44    40    31    1
    45    41    36    2
    46    42    30    1
