@<TRIPOS>MOLECULE
outputs/IAG933/test6/raw/output_7105_IAG933_linker_design_.xyz
 43 47 0 0 0
SMALL
GASTEIGER

@<TRIPOS>ATOM
      1 C         -24.8550   -1.0120   30.1430 C.3     1  UNL1        0.1305
      2 C         -24.9730   -2.5050   29.7880 C.2     1  UNL1       -0.0013
      3 C         -23.9060   -3.1730   29.1460 C.2     1  UNL1       -0.0026
      4 C         -23.9890   -4.5490   28.8530 C.2     1  UNL1       -0.0003
      5 C         -25.1370   -5.2800   29.2050 C.2     1  UNL1       -0.0000
      6 C         -26.2320   -4.6110   29.7840 C.2     1  UNL1       -0.0003
      7 C         -26.1550   -3.2320   30.0650 C.2     1  UNL1       -0.0026
      8 C         -25.3870   -0.6790   31.5710 C.3     1  UNL1        0.0968
      9 C         -25.1890    0.7730   32.0280 C.3     1  UNL1        0.0210
     10 C         -25.3360    0.6840   33.5440 C.3     1  UNL1        0.0203
     11 C         -24.8290   -0.7150   33.9050 C.3     1  UNL1        0.0888
     12 N         -24.7580   -1.4810   32.6460 N.3     1  UNL1       -0.2174
     13 C         -25.6880    1.6140   26.4610 C.3     1  UNL1        0.1622
     14 C         -26.2500    2.9200   26.3950 C.2     1  UNL1        0.0725
     15 C         -25.6420    4.0930   27.1230 C.2     1  UNL1        0.2198
     16 N         -25.6140    5.2520   26.4490 N.2     1  UNL1       -0.2359
     17 C         -25.0260    6.4790   26.9630 C.3     1  UNL1        0.1550
     18 O         -25.1430    3.9660   28.2430 O.2     1  UNL1       -0.4556
     19 C         -27.4380    3.0910   25.6450 C.2     1  UNL1        0.1039
     20 N         -28.0750    2.0890   25.0030 N.2     1  UNL1       -0.2118
     21 C         -27.5430    0.8490   25.0790 C.2     1  UNL1        0.2359
     22 O         -28.1930   -0.2080   24.4770 O.2     1  UNL1       -0.4585
     23 C         -29.4600    0.0050   23.8660 C.3     1  UNL1        0.2423
     24 C         -30.0650   -1.3770   23.5730 C.3     1  UNL1        0.2292
     25 O         -30.7290   -1.8780   24.7210 O.3     1  UNL1       -0.2162
     26 C         -26.3540    0.5760   25.7770 C.3     1  UNL1        0.2598
     27 F         -25.8600   -0.6810   25.7950 F       1  UNL1       -0.2250
     28 C         -25.9688    5.0422   30.2242 C.2     1  UNL1        0.0212
     29 C         -25.7035    3.7053   29.5604 C.3     1  UNL1        0.2337
     30 C         -26.2071    7.6894   31.1569 C.2     1  UNL1       -0.0000
     31 C         -20.6274    0.6104   28.3804 C.2     1  UNL1        0.1810
     32 C         -26.9224    7.2956   30.0058 C.2     1  UNL1       -0.0002
     33 O         -20.5218    1.6349   27.5265 O.2     1  UNL1       -0.4472
     34 C         -21.6797   -0.0272   28.9204 C.2     1  UNL1        0.0580
     35 N         -23.5884   -0.4198   29.9233 N.pl3   1  UNL1       -0.2321
     36 C         -21.5685    2.1898   26.9745 C.2     1  UNL1        0.1810
     37 C         -22.8572    2.0587   27.1482 C.2     1  UNL1        0.0580
     38 C         -25.4913    6.7211   31.9089 C.2     1  UNL1       -0.0002
     39 C         -26.7967    5.9701   29.5392 C.2     1  UNL1       -0.0007
     40 C         -23.0230    0.2579   28.8848 C.2     1  UNL1        0.0837
     41 N         -24.8639    1.1125   27.4471 N.pl3   1  UNL1       -0.2300
     42 C         -25.3785    5.3923   31.4716 C.2     1  UNL1       -0.0007
     43 C         -23.5592    1.1404   27.8668 C.2     1  UNL1        0.0837
@<TRIPOS>BOND
     1     1    35    1
     2     2     7    1
     3     2     1    1
     4     3     2    2
     5     4     3    1
     6     4     5    2
     7     5     6    1
     8     6     7    2
     9     8     1    1
    10     8     9    1
    11     8    12    1
    12     9    10    1
    13    10    11    1
    14    12    11    1
    15    13    41    1
    16    14    13    1
    17    14    15    1
    18    15    18    1
    19    16    17    1
    20    16    15    2
    21    18    29    1
    22    19    14    2
    23    20    21    2
    24    20    19    1
    25    21    26    1
    26    22    21    1
    27    23    22    1
    28    24    23    1
    29    24    25    1
    30    26    27    1
    31    26    13    1
    32    28    42    1
    33    29    28    1
    34    30    38    1
    35    31    34    2
    36    32    30    2
    37    33    31    1
    38    36    37    2
    39    36    33    1
    40    37    43    1
    41    39    32    1
    42    39    28    2
    43    40    34    1
    44    40    35    1
    45    41    43    1
    46    42    38    2
    47    43    40    2
