@<TRIPOS>MOLECULE
outputs/IAG933/test6/raw/output_7106_IAG933_linker_design_.xyz
 42 45 0 0 0
SMALL
GASTEIGER

@<TRIPOS>ATOM
      1 C         -24.8550   -1.0120   30.1430 C.3     1  UNL1        0.1163
      2 C         -24.9730   -2.5050   29.7880 C.2     1  UNL1       -0.0125
      3 C         -23.9060   -3.1730   29.1460 C.2     1  UNL1       -0.0038
      4 C         -23.9890   -4.5490   28.8530 C.2     1  UNL1       -0.0003
      5 C         -25.1370   -5.2800   29.2050 C.2     1  UNL1       -0.0000
      6 C         -26.2320   -4.6110   29.7840 C.2     1  UNL1       -0.0003
      7 C         -26.1550   -3.2320   30.0650 C.2     1  UNL1       -0.0038
      8 C         -25.3870   -0.6790   31.5710 C.3     1  UNL1        0.0855
      9 C         -25.1890    0.7730   32.0280 C.3     1  UNL1        0.0197
     10 C         -25.3360    0.6840   33.5440 C.3     1  UNL1        0.0203
     11 C         -24.8290   -0.7150   33.9050 C.3     1  UNL1        0.0887
     12 N         -24.7580   -1.4810   32.6460 N.3     1  UNL1       -0.2186
     13 C         -25.6880    1.6140   26.4610 C.2     1  UNL1        0.0361
     14 C         -26.2500    2.9200   26.3950 C.2     1  UNL1        0.0742
     15 C         -25.6420    4.0930   27.1230 C.2     1  UNL1        0.2662
     16 N         -25.6140    5.2520   26.4490 N.am    1  UNL1       -0.1997
     17 C         -25.0260    6.4790   26.9630 C.3     1  UNL1        0.1388
     18 O         -25.1430    3.9660   28.2430 O.2     1  UNL1       -0.2683
     19 C         -27.4380    3.0910   25.6450 C.2     1  UNL1        0.1065
     20 N         -28.0750    2.0890   25.0030 N.2     1  UNL1       -0.2081
     21 C         -27.5430    0.8490   25.0790 C.2     1  UNL1        0.2530
     22 O         -28.1930   -0.2080   24.4770 O.2     1  UNL1       -0.4558
     23 C         -29.4600    0.0050   23.8660 C.3     1  UNL1        0.2426
     24 C         -30.0650   -1.3770   23.5730 C.3     1  UNL1        0.2292
     25 O         -30.7290   -1.8780   24.7210 O.3     1  UNL1       -0.2162
     26 C         -26.3540    0.5760   25.7770 C.2     1  UNL1        0.1907
     27 F         -25.8600   -0.6810   25.7950 F       1  UNL1       -0.1995
     28 O         -22.0184    2.2811   25.2277 O.co2   1  UNL1       -0.2455
     29 C         -24.6177    1.3191   27.3395 C.3     1  UNL1        0.1321
     30 F         -19.9354    2.1589   28.0668 F       1  UNL1       -0.2331
     31 C         -22.5581   -0.0870   29.7685 C.3     1  UNL1        0.2346
     32 O         -23.7852    1.0717   24.6853 O.co2   1  UNL1       -0.2455
     33 C         -22.3334    1.6364   27.9874 C.3     1  UNL1        0.1230
     34 O         -26.5625   -0.4463   28.5886 O.2     1  UNL1       -0.2729
     35 N         -22.6361    0.4769   28.8486 N.3     1  UNL1       -0.1864
     36 C         -20.9945    1.1651   27.7972 C.3     1  UNL1        0.2069
     37 C         -23.0634    1.6451   25.5819 C.2     1  UNL1        0.3678
     38 N         -24.8092    0.9392   28.6048 N.am    1  UNL1       -0.2017
     39 C         -23.4091    1.4963   26.9475 C.3     1  UNL1        0.1463
     40 C         -20.4521   -0.0482   28.4878 C.3     1  UNL1        0.1805
     41 O         -21.2568    0.0085   29.6781 O.3     1  UNL1       -0.3334
     42 C         -25.4847   -0.1517   29.0695 C.2     1  UNL1        0.2466
@<TRIPOS>BOND
     1     1    42    1
     2     2     7    1
     3     2     1    1
     4     3     2    2
     5     4     3    1
     6     4     5    2
     7     5     6    1
     8     6     7    2
     9     8     1    1
    10     8     9    1
    11     8    12    1
    12     9    10    1
    13    10    11    1
    14    12    11    1
    15    13    29    1
    16    14    13    1
    17    14    15    1
    18    15    18    2
    19    16    17    1
    20    16    15    1
    21    19    14    2
    22    20    21    2
    23    20    19    1
    24    21    26    1
    25    22    21    1
    26    23    22    1
    27    24    23    1
    28    24    25    1
    29    26    27    1
    30    26    13    2
    31    28    37   ar
    32    29    38    1
    33    32    37   ar
    34    33    39    1
    35    33    35    1
    36    34    42    2
    37    35    31    1
    38    36    33    1
    39    36    30    1
    40    36    40    1
    41    38    42    1
    42    39    37    1
    43    39    29    1
    44    40    41    1
    45    41    31    1
