@<TRIPOS>MOLECULE
outputs/IAG933/test6/raw/output_7108_IAG933_linker_design_.xyz
 38 42 0 0 0
SMALL
GASTEIGER

@<TRIPOS>ATOM
      1 C         -24.8550   -1.0120   30.1430 C.3     1  UNL1        0.1160
      2 C         -24.9730   -2.5050   29.7880 C.2     1  UNL1       -0.0048
      3 C         -23.9060   -3.1730   29.1460 C.2     1  UNL1       -0.0029
      4 C         -23.9890   -4.5490   28.8530 C.2     1  UNL1       -0.0003
      5 C         -25.1370   -5.2800   29.2050 C.2     1  UNL1       -0.0000
      6 C         -26.2320   -4.6110   29.7840 C.2     1  UNL1       -0.0003
      7 C         -26.1550   -3.2320   30.0650 C.2     1  UNL1       -0.0029
      8 C         -25.3870   -0.6790   31.5710 C.3     1  UNL1        0.0932
      9 C         -25.1890    0.7730   32.0280 C.3     1  UNL1        0.0206
     10 C         -25.3360    0.6840   33.5440 C.3     1  UNL1        0.0203
     11 C         -24.8290   -0.7150   33.9050 C.3     1  UNL1        0.0888
     12 N         -24.7580   -1.4810   32.6460 N.3     1  UNL1       -0.2177
     13 C         -25.6880    1.6140   26.4610 C.3     1  UNL1        0.1470
     14 C         -26.2500    2.9200   26.3950 C.2     1  UNL1        0.0732
     15 C         -25.6420    4.0930   27.1230 C.2     1  UNL1        0.2640
     16 N         -25.6140    5.2520   26.4490 N.am    1  UNL1       -0.1999
     17 C         -25.0260    6.4790   26.9630 C.3     1  UNL1        0.1388
     18 O         -25.1430    3.9660   28.2430 O.2     1  UNL1       -0.2686
     19 C         -27.4380    3.0910   25.6450 C.2     1  UNL1        0.1038
     20 N         -28.0750    2.0890   25.0030 N.2     1  UNL1       -0.2118
     21 C         -27.5430    0.8490   25.0790 C.2     1  UNL1        0.2358
     22 O         -28.1930   -0.2080   24.4770 O.2     1  UNL1       -0.4585
     23 C         -29.4600    0.0050   23.8660 C.3     1  UNL1        0.2423
     24 C         -30.0650   -1.3770   23.5730 C.3     1  UNL1        0.2292
     25 O         -30.7290   -1.8780   24.7210 O.3     1  UNL1       -0.2162
     26 C         -26.3540    0.5760   25.7770 C.3     1  UNL1        0.2581
     27 F         -25.8600   -0.6810   25.7950 F       1  UNL1       -0.2251
     28 N         -22.2746   -0.5908   30.0501 N.pl3   1  UNL1       -0.1623
     29 C         -21.2407   -0.1658   28.9436 C.2     1  UNL1        0.0965
     30 N         -23.5740   -0.4026   29.6290 N.3     1  UNL1       -0.1771
     31 N         -24.4576    1.4329   26.7909 N.am    1  UNL1       -0.2552
     32 C         -23.4319    0.2345   28.4125 C.3     1  UNL1        0.1365
     33 N         -22.0712    1.7139   27.1370 N.am    1  UNL1       -0.1638
     34 C         -24.3973    0.2027   27.4847 C.3     1  UNL1        0.1189
     35 C         -22.1983    0.7172   28.0824 C.2     1  UNL1        0.0867
     36 C         -23.1834    2.1225   26.4329 C.2     1  UNL1        0.3276
     37 O         -23.0957    3.0026   25.6393 O.2     1  UNL1       -0.2504
     38 C         -20.3400   -0.1015   28.4998 C.2     1  UNL1        0.0202
@<TRIPOS>BOND
     1     1     2    1
     2     2     7    1
     3     3     2    2
     4     4     3    1
     5     4     5    2
     6     5     6    1
     7     6     7    2
     8     8     1    1
     9     8     9    1
    10     8    12    1
    11     9    10    1
    12    10    11    1
    13    12    11    1
    14    13    31    1
    15    14    13    1
    16    14    15    1
    17    15    18    2
    18    16    17    1
    19    16    15    1
    20    19    14    2
    21    20    21    2
    22    20    19    1
    23    21    26    1
    24    22    21    1
    25    23    22    1
    26    24    23    1
    27    24    25    1
    28    26    27    1
    29    26    13    1
    30    29    28    1
    31    30    28    1
    32    30     1    1
    33    31    34    1
    34    32    34    1
    35    32    30    1
    36    33    35    2
    37    35    32    1
    38    35    29    1
    39    36    31   am
    40    36    33    1
    41    37    36    2
    42    38    29    2
