@<TRIPOS>MOLECULE
outputs/IAG933/test6/raw/output_7111_IAG933_linker_design_.xyz
 43 47 0 0 0
SMALL
GASTEIGER

@<TRIPOS>ATOM
      1 C         -24.8550   -1.0120   30.1430 C.3     1  UNL1        0.0619
      2 C         -24.9730   -2.5050   29.7880 C.2     1  UNL1       -0.0170
      3 C         -23.9060   -3.1730   29.1460 C.2     1  UNL1       -0.0039
      4 C         -23.9890   -4.5490   28.8530 C.2     1  UNL1       -0.0003
      5 C         -25.1370   -5.2800   29.2050 C.2     1  UNL1       -0.0000
      6 C         -26.2320   -4.6110   29.7840 C.2     1  UNL1       -0.0003
      7 C         -26.1550   -3.2320   30.0650 C.2     1  UNL1       -0.0039
      8 C         -25.3870   -0.6790   31.5710 C.3     1  UNL1        0.0809
      9 C         -25.1890    0.7730   32.0280 C.3     1  UNL1        0.0206
     10 C         -25.3360    0.6840   33.5440 C.3     1  UNL1        0.0203
     11 C         -24.8290   -0.7150   33.9050 C.3     1  UNL1        0.0887
     12 N         -24.7580   -1.4810   32.6460 N.3     1  UNL1       -0.2188
     13 C         -25.6880    1.6140   26.4610 C.2     1  UNL1        0.0945
     14 C         -26.2500    2.9200   26.3950 C.2     1  UNL1        0.0905
     15 C         -25.6420    4.0930   27.1230 C.2     1  UNL1        0.2677
     16 N         -25.6140    5.2520   26.4490 N.am    1  UNL1       -0.1997
     17 C         -25.0260    6.4790   26.9630 C.3     1  UNL1        0.1388
     18 O         -25.1430    3.9660   28.2430 O.2     1  UNL1       -0.2683
     19 C         -27.4380    3.0910   25.6450 C.2     1  UNL1        0.1080
     20 N         -28.0750    2.0890   25.0030 N.2     1  UNL1       -0.2080
     21 C         -27.5430    0.8490   25.0790 C.2     1  UNL1        0.2546
     22 O         -28.1930   -0.2080   24.4770 O.2     1  UNL1       -0.4558
     23 C         -29.4600    0.0050   23.8660 C.3     1  UNL1        0.2426
     24 C         -30.0650   -1.3770   23.5730 C.3     1  UNL1        0.2292
     25 O         -30.7290   -1.8780   24.7210 O.3     1  UNL1       -0.2162
     26 C         -26.3540    0.5760   25.7770 C.2     1  UNL1        0.2069
     27 F         -25.8600   -0.6810   25.7950 F       1  UNL1       -0.1979
     28 C         -21.9830    0.9751   28.4602 C.2     1  UNL1        0.1816
     29 C         -22.0471    1.5926   27.4844 C.2     1  UNL1        0.2042
     30 O         -26.0777    3.5221   35.2571 O.3     1  UNL1       -0.2203
     31 N         -24.5311    1.2438   27.1686 N.pl3   1  UNL1       -0.2510
     32 C         -24.8907    0.2581   28.2445 C.2     1  UNL1        0.0665
     33 C         -25.6920    3.4722   31.3828 C.3     1  UNL1        0.1422
     34 CL        -23.2175    2.4943   25.1889 Cl      1  UNL1       -0.0620
     35 C         -24.1405   -0.1652   29.2199 C.2     1  UNL1        0.0012
     36 C         -25.9629    1.9460   31.4277 C.3     1  UNL1        0.0335
     37 O         -24.6560    3.7682   32.2988 O.3     1  UNL1       -0.3537
     38 C         -26.7270    4.0319   34.0787 C.3     1  UNL1        0.1847
     39 C         -24.7841    5.0734   32.8005 C.3     1  UNL1        0.1449
     40 C         -25.9973    5.3027   33.6740 C.3     1  UNL1        0.0676
     41 C         -22.7417    0.0304   29.3909 C.2     1  UNL1        0.0381
     42 C         -23.3439    1.7605   26.6925 C.2     1  UNL1        0.1525
     43 O         -21.3124    1.4441   27.9186 O.2     1  UNL1       -0.4451
@<TRIPOS>BOND
     1     1    35    1
     2     2     7    1
     3     2     1    1
     4     3     2    2
     5     4     3    1
     6     4     5    2
     7     5     6    1
     8     6     7    2
     9     8     1    1
    10     8     9    1
    11     8    12    1
    12     9    36    1
    13     9    10    1
    14    10    11    1
    15    12    11    1
    16    13    31    1
    17    14    13    1
    18    14    15    1
    19    15    18    2
    20    16    17    1
    21    16    15    1
    22    19    14    2
    23    20    21    2
    24    20    19    1
    25    21    26    1
    26    22    21    1
    27    23    22    1
    28    24    23    1
    29    24    25    1
    30    26    27    1
    31    26    13    2
    32    28    41    2
    33    29    43    1
    34    29    28    1
    35    31    32    1
    36    32    35    2
    37    33    36    1
    38    33    37    1
    39    34    42    1
    40    35    41    1
    41    37    39    1
    42    38    30    1
    43    39    40    1
    44    40    38    1
    45    42    31    1
    46    42    29    2
    47    43    28    1
