@<TRIPOS>MOLECULE
outputs/IAG933/test6/raw/output_7112_IAG933_linker_design_.xyz
 40 43 0 0 0
SMALL
GASTEIGER

@<TRIPOS>ATOM
      1 C         -24.8550   -1.0120   30.1430 C.3     1  UNL1        0.0727
      2 C         -24.9730   -2.5050   29.7880 C.2     1  UNL1       -0.0183
      3 C         -23.9060   -3.1730   29.1460 C.2     1  UNL1       -0.0041
      4 C         -23.9890   -4.5490   28.8530 C.2     1  UNL1       -0.0003
      5 C         -25.1370   -5.2800   29.2050 C.2     1  UNL1       -0.0000
      6 C         -26.2320   -4.6110   29.7840 C.2     1  UNL1       -0.0003
      7 C         -26.1550   -3.2320   30.0650 C.2     1  UNL1       -0.0041
      8 C         -25.3870   -0.6790   31.5710 C.3     1  UNL1        0.0796
      9 C         -25.1890    0.7730   32.0280 C.3     1  UNL1        0.0193
     10 C         -25.3360    0.6840   33.5440 C.3     1  UNL1        0.0202
     11 C         -24.8290   -0.7150   33.9050 C.3     1  UNL1        0.0887
     12 N         -24.7580   -1.4810   32.6460 N.3     1  UNL1       -0.2190
     13 C         -25.6880    1.6140   26.4610 C.2     1  UNL1        0.0398
     14 C         -26.2500    2.9200   26.3950 C.2     1  UNL1        0.0766
     15 C         -25.6420    4.0930   27.1230 C.2     1  UNL1        0.2664
     16 N         -25.6140    5.2520   26.4490 N.am    1  UNL1       -0.1997
     17 C         -25.0260    6.4790   26.9630 C.3     1  UNL1        0.1388
     18 O         -25.1430    3.9660   28.2430 O.2     1  UNL1       -0.2683
     19 C         -27.4380    3.0910   25.6450 C.2     1  UNL1        0.1067
     20 N         -28.0750    2.0890   25.0030 N.2     1  UNL1       -0.2081
     21 C         -27.5430    0.8490   25.0790 C.2     1  UNL1        0.2533
     22 O         -28.1930   -0.2080   24.4770 O.2     1  UNL1       -0.4558
     23 C         -29.4600    0.0050   23.8660 C.3     1  UNL1        0.2426
     24 C         -30.0650   -1.3770   23.5730 C.3     1  UNL1        0.2292
     25 O         -30.7290   -1.8780   24.7210 O.3     1  UNL1       -0.2162
     26 C         -26.3540    0.5760   25.7770 C.2     1  UNL1        0.1931
     27 F         -25.8600   -0.6810   25.7950 F       1  UNL1       -0.1992
     28 C         -22.1932    1.4287   27.2916 C.2     1  UNL1        0.1557
     29 C         -23.1946    1.7871   26.5112 C.2     1  UNL1        0.1635
     30 C         -20.5352   -0.2843   28.8025 C.2     1  UNL1        0.2721
     31 C         -21.9938   -0.1689   29.2485 C.2     1  UNL1        0.2248
     32 C         -24.2917    0.5984   28.1613 C.2     1  UNL1        0.0017
     33 O         -22.2557   -0.3264   30.4803 O.2     1  UNL1       -0.2871
     34 C         -25.2407    0.0597   28.9889 C.3     1  UNL1        0.1765
     35 O         -19.6555    0.3889   28.8708 O.2     1  UNL1       -0.2799
     36 C         -24.4638    1.3545   27.0330 C.2     1  UNL1        0.0272
     37 F         -22.9800    2.3339   25.3276 F       1  UNL1       -0.2021
     38 F         -20.9014    1.8006   27.0911 F       1  UNL1       -0.2057
     39 C         -22.8829    0.5713   28.3387 C.3     1  UNL1        0.1383
     40 O         -26.5242    0.1619   28.8235 O.3     1  UNL1       -0.2182
@<TRIPOS>BOND
     1     1    34    1
     2     2     7    1
     3     2     1    1
     4     3     2    2
     5     4     3    1
     6     4     5    2
     7     5     6    1
     8     6     7    2
     9     8     1    1
    10     8     9    1
    11     8    12    1
    12     9    10    1
    13    10    11    1
    14    12    11    1
    15    13    36    1
    16    14    13    1
    17    14    15    1
    18    15    18    2
    19    16    17    1
    20    16    15    1
    21    19    14    2
    22    20    21    2
    23    20    19    1
    24    21    26    1
    25    22    21    1
    26    23    22    1
    27    24    23    1
    28    24    25    1
    29    26    27    1
    30    26    13    2
    31    28    39    1
    32    29    36    1
    33    29    28    2
    34    30    35    2
    35    30    31    1
    36    31    33    2
    37    32    39    1
    38    32    34    1
    39    34    40    1
    40    36    32    2
    41    37    29    1
    42    38    28    1
    43    39    31    1
