@<TRIPOS>MOLECULE
outputs/IAG933/test6/raw/output_7114_IAG933_linker_design_.xyz
 47 51 0 0 0
SMALL
GASTEIGER

@<TRIPOS>ATOM
      1 C         -24.8550   -1.0120   30.1430 C.3     1  UNL1        0.0426
      2 C         -24.9730   -2.5050   29.7880 C.2     1  UNL1       -0.0208
      3 C         -23.9060   -3.1730   29.1460 C.2     1  UNL1       -0.0042
      4 C         -23.9890   -4.5490   28.8530 C.2     1  UNL1       -0.0003
      5 C         -25.1370   -5.2800   29.2050 C.2     1  UNL1       -0.0000
      6 C         -26.2320   -4.6110   29.7840 C.2     1  UNL1       -0.0003
      7 C         -26.1550   -3.2320   30.0650 C.2     1  UNL1       -0.0042
      8 C         -25.3870   -0.6790   31.5710 C.3     1  UNL1        0.0771
      9 C         -25.1890    0.7730   32.0280 C.3     1  UNL1        0.0192
     10 C         -25.3360    0.6840   33.5440 C.3     1  UNL1        0.0202
     11 C         -24.8290   -0.7150   33.9050 C.3     1  UNL1        0.0887
     12 N         -24.7580   -1.4810   32.6460 N.3     1  UNL1       -0.2191
     13 C         -25.6880    1.6140   26.4610 C.2     1  UNL1        0.0202
     14 C         -26.2500    2.9200   26.3950 C.2     1  UNL1        0.0729
     15 C         -25.6420    4.0930   27.1230 C.2     1  UNL1        0.2661
     16 N         -25.6140    5.2520   26.4490 N.am    1  UNL1       -0.1997
     17 C         -25.0260    6.4790   26.9630 C.3     1  UNL1        0.1388
     18 O         -25.1430    3.9660   28.2430 O.2     1  UNL1       -0.2683
     19 C         -27.4380    3.0910   25.6450 C.2     1  UNL1        0.1064
     20 N         -28.0750    2.0890   25.0030 N.2     1  UNL1       -0.2081
     21 C         -27.5430    0.8490   25.0790 C.2     1  UNL1        0.2530
     22 O         -28.1930   -0.2080   24.4770 O.2     1  UNL1       -0.4558
     23 C         -29.4600    0.0050   23.8660 C.3     1  UNL1        0.2426
     24 C         -30.0650   -1.3770   23.5730 C.3     1  UNL1        0.2292
     25 O         -30.7290   -1.8780   24.7210 O.3     1  UNL1       -0.2162
     26 C         -26.3540    0.5760   25.7770 C.2     1  UNL1        0.1894
     27 F         -25.8600   -0.6810   25.7950 F       1  UNL1       -0.1996
     28 C         -21.8625    2.0067   27.0697 C.2     1  UNL1       -0.0238
     29 C         -26.0497    6.2287   31.1079 C.3     1  UNL1        0.2313
     30 C         -27.6536    1.7573   29.7907 C.3     1  UNL1        0.0051
     31 C         -21.2087    1.2607   28.0733 C.2     1  UNL1        0.0213
     32 C         -23.2661    1.8138   26.6754 C.3     1  UNL1        0.0305
     33 C         -25.9373    4.9072   31.5607 C.2     1  UNL1        0.0204
     34 O         -26.9261    6.6784   30.1258 O.2     1  UNL1       -0.4752
     35 C         -26.9617    0.6535   29.0215 C.3     1  UNL1        0.0054
     36 C         -26.8474    3.9794   31.0474 C.2     1  UNL1       -0.0025
     37 C         -28.2244    3.1190   29.2021 C.3     1  UNL1        0.0291
     38 C         -27.6216    4.2977   29.9140 C.2     1  UNL1        0.0074
     39 C         -27.6194    5.6991   29.4873 C.2     1  UNL1        0.1129
     40 C         -28.4022    6.1448   28.2832 C.3     1  UNL1        0.0715
     41 C         -23.1871    0.1677   28.7255 C.1     1  UNL1       -0.0922
     42 C         -24.4290    0.4258   28.2245 C.2     1  UNL1       -0.0045
     43 C         -24.4811    1.2259   27.1643 C.3     1  UNL1        0.0543
     44 C         -25.4967   -0.0091   29.1451 C.3     1  UNL1        0.0312
     45 N         -21.3814   -0.5583   29.6082 N.pl3   1  UNL1       -0.1197
     46 C         -21.9230    0.2661   28.8138 C.2     1  UNL1        0.1224
     47 C         -23.4297    2.1869   25.2499 C.3     1  UNL1        0.0054
@<TRIPOS>BOND
     1     1    44    1
     2     2     7    1
     3     2     1    1
     4     3     2    2
     5     4     3    1
     6     4     5    2
     7     5     6    1
     8     6     7    2
     9     8     1    1
    10     8     9    1
    11     8    12    1
    12     9    10    1
    13    10    11    1
    14    12    11    1
    15    14    13    1
    16    14    15    1
    17    15    18    2
    18    16    17    1
    19    16    15    1
    20    19    14    2
    21    20    21    2
    22    20    19    1
    23    21    26    1
    24    22    21    1
    25    23    22    1
    26    24    23    1
    27    24    25    1
    28    26    27    1
    29    26    13    2
    30    28    31    2
    31    29    33    1
    32    31    46    1
    33    32    47    1
    34    32    28    1
    35    32    43    1
    36    34    29    1
    37    35    30    1
    38    36    33    2
    39    37    30    1
    40    37    38    1
    41    38    36    1
    42    39    38    2
    43    39    34    1
    44    40    39    1
    45    41    46    2
    46    42    41    2
    47    42    44    1
    48    43    13    1
    49    43    42    1
    50    44    35    1
    51    46    45    1
