@<TRIPOS>MOLECULE
outputs/IAG933/test6/raw/output_7115_IAG933_linker_design_.xyz
 45 48 0 0 0
SMALL
GASTEIGER

@<TRIPOS>ATOM
      1 C         -24.8550   -1.0120   30.1430 C.3     1  UNL1        0.1161
      2 C         -24.9730   -2.5050   29.7880 C.2     1  UNL1       -0.0125
      3 C         -23.9060   -3.1730   29.1460 C.2     1  UNL1       -0.0038
      4 C         -23.9890   -4.5490   28.8530 C.2     1  UNL1       -0.0003
      5 C         -25.1370   -5.2800   29.2050 C.2     1  UNL1       -0.0000
      6 C         -26.2320   -4.6110   29.7840 C.2     1  UNL1       -0.0003
      7 C         -26.1550   -3.2320   30.0650 C.2     1  UNL1       -0.0038
      8 C         -25.3870   -0.6790   31.5710 C.3     1  UNL1        0.0974
      9 C         -25.1890    0.7730   32.0280 C.3     1  UNL1        0.0823
     10 C         -25.3360    0.6840   33.5440 C.3     1  UNL1        0.0332
     11 C         -24.8290   -0.7150   33.9050 C.3     1  UNL1        0.0898
     12 N         -24.7580   -1.4810   32.6460 N.3     1  UNL1       -0.2176
     13 C         -25.6880    1.6140   26.4610 C.2     1  UNL1        0.0544
     14 C         -26.2500    2.9200   26.3950 C.2     1  UNL1        0.0778
     15 C         -25.6420    4.0930   27.1230 C.2     1  UNL1        0.2665
     16 N         -25.6140    5.2520   26.4490 N.am    1  UNL1       -0.1997
     17 C         -25.0260    6.4790   26.9630 C.3     1  UNL1        0.1388
     18 O         -25.1430    3.9660   28.2430 O.2     1  UNL1       -0.2683
     19 C         -27.4380    3.0910   25.6450 C.2     1  UNL1        0.1068
     20 N         -28.0750    2.0890   25.0030 N.2     1  UNL1       -0.2081
     21 C         -27.5430    0.8490   25.0790 C.2     1  UNL1        0.2533
     22 O         -28.1930   -0.2080   24.4770 O.2     1  UNL1       -0.4558
     23 C         -29.4600    0.0050   23.8660 C.3     1  UNL1        0.2426
     24 C         -30.0650   -1.3770   23.5730 C.3     1  UNL1        0.2292
     25 O         -30.7290   -1.8780   24.7210 O.3     1  UNL1       -0.2162
     26 C         -26.3540    0.5760   25.7770 C.2     1  UNL1        0.1943
     27 F         -25.8600   -0.6810   25.7950 F       1  UNL1       -0.1992
     28 C         -24.5234    1.3831   27.1270 C.2     1  UNL1        0.0869
     29 C         -22.2051    1.7330   27.4196 C.3     1  UNL1        0.1100
     30 C         -27.7841    2.8514   33.6393 C.3     1  UNL1        0.1741
     31 C         -23.3432    1.8348   26.6209 C.2     1  UNL1        0.1355
     32 C         -22.4745    1.2132   28.6581 C.2     1  UNL1        0.0862
     33 O         -23.2997    2.4453   25.3810 O.2     1  UNL1       -0.4740
     34 C         -25.3944    3.5099   31.5481 C.1     1  UNL1       -0.0910
     35 C         -22.0331    2.6309   24.8253 C.3     1  UNL1        0.2520
     36 C         -25.8456    4.7929   31.5496 C.3     1  UNL1        0.0786
     37 C         -25.7286    5.5601   32.8149 C.3     1  UNL1        0.0460
     38 C         -25.3078   -0.1180   28.9152 C.2     1  UNL1        0.2347
     39 N         -21.7510    0.2864   29.2311 N.2     1  UNL1       -0.1551
     40 C         -25.9910    4.6273   34.0289 C.3     1  UNL1        0.1433
     41 O         -27.3891    4.1708   34.0090 O.3     1  UNL1       -0.3511
     42 C         -23.6771    1.4249   29.2155 C.3     1  UNL1        0.1417
     43 O         -26.3808   -0.3570   28.5025 O.2     1  UNL1       -0.2741
     44 C         -25.1935    2.2968   31.6516 C.1     1  UNL1       -0.0906
     45 N         -24.5591    0.8878   28.3875 N.am    1  UNL1       -0.2502
@<TRIPOS>BOND
     1     1    38    1
     2     2     7    1
     3     2     1    1
     4     3     2    2
     5     4     3    1
     6     4     5    2
     7     5     6    1
     8     6     7    2
     9     8     1    1
    10     8     9    1
    11     8    12    1
    12     9    44    1
    13     9    10    1
    14    10    11    1
    15    12    11    1
    16    13    28    1
    17    14    13    1
    18    14    15    1
    19    15    18    2
    20    16    17    1
    21    16    15    1
    22    19    14    2
    23    20    21    2
    24    20    19    1
    25    21    26    1
    26    22    21    1
    27    23    22    1
    28    24    23    1
    29    24    25    1
    30    26    27    1
    31    26    13    2
    32    28    45    1
    33    29    32    1
    34    30    41    1
    35    31    28    2
    36    31    29    1
    37    32    42    1
    38    32    39    2
    39    33    31    1
    40    34    36    1
    41    34    44    3
    42    35    33    1
    43    36    37    1
    44    37    40    1
    45    41    40    1
    46    43    38    2
    47    45    38   am
    48    45    42    1
