@<TRIPOS>MOLECULE
outputs/IAG933/test6/raw/output_7128_IAG933_linker_design_.xyz
 47 52 0 0 0
SMALL
GASTEIGER

@<TRIPOS>ATOM
      1 C         -24.8550   -1.0120   30.1430 C.3     1  UNL1        0.0674
      2 C         -24.9730   -2.5050   29.7880 C.2     1  UNL1       -0.0187
      3 C         -23.9060   -3.1730   29.1460 C.2     1  UNL1       -0.0042
      4 C         -23.9890   -4.5490   28.8530 C.2     1  UNL1       -0.0003
      5 C         -25.1370   -5.2800   29.2050 C.2     1  UNL1       -0.0000
      6 C         -26.2320   -4.6110   29.7840 C.2     1  UNL1       -0.0003
      7 C         -26.1550   -3.2320   30.0650 C.2     1  UNL1       -0.0042
      8 C         -25.3870   -0.6790   31.5710 C.3     1  UNL1        0.0818
      9 C         -25.1890    0.7730   32.0280 C.3     1  UNL1        0.0494
     10 C         -25.3360    0.6840   33.5440 C.3     1  UNL1        0.0230
     11 C         -24.8290   -0.7150   33.9050 C.3     1  UNL1        0.0888
     12 N         -24.7580   -1.4810   32.6460 N.3     1  UNL1       -0.2190
     13 C         -25.6880    1.6140   26.4610 C.3     1  UNL1        0.1302
     14 C         -26.2500    2.9200   26.3950 C.2     1  UNL1        0.0696
     15 C         -25.6420    4.0930   27.1230 C.2     1  UNL1        0.2637
     16 N         -25.6140    5.2520   26.4490 N.am    1  UNL1       -0.2000
     17 C         -25.0260    6.4790   26.9630 C.3     1  UNL1        0.1388
     18 O         -25.1430    3.9660   28.2430 O.2     1  UNL1       -0.2686
     19 C         -27.4380    3.0910   25.6450 C.2     1  UNL1        0.1035
     20 N         -28.0750    2.0890   25.0030 N.2     1  UNL1       -0.2118
     21 C         -27.5430    0.8490   25.0790 C.2     1  UNL1        0.2355
     22 O         -28.1930   -0.2080   24.4770 O.2     1  UNL1       -0.4585
     23 C         -29.4600    0.0050   23.8660 C.3     1  UNL1        0.2423
     24 C         -30.0650   -1.3770   23.5730 C.3     1  UNL1        0.2292
     25 O         -30.7290   -1.8780   24.7210 O.3     1  UNL1       -0.2162
     26 C         -26.3540    0.5760   25.7770 C.3     1  UNL1        0.2546
     27 F         -25.8600   -0.6810   25.7950 F       1  UNL1       -0.2254
     28 C         -22.4425    2.7780   25.3454 C.3     1  UNL1        0.1759
     29 C         -28.9931    1.9081   30.6728 C.3     1  UNL1        0.0308
     30 C         -28.9695    2.9470   32.9083 C.2     1  UNL1       -0.0043
     31 N         -24.8626    1.2251   27.4060 N.3     1  UNL1       -0.2406
     32 C         -25.8407    1.8247   31.1812 C.3     1  UNL1        0.1406
     33 C         -23.1475    0.4308   29.0443 C.3     1  UNL1        0.2233
     34 C         -28.1973    2.4828   31.8474 C.2     1  UNL1       -0.0214
     35 F         -24.9020    3.6137   33.0204 F       1  UNL1       -0.2044
     36 C         -25.5120    0.0841   28.1632 C.3     1  UNL1        0.1050
     37 F         -21.2350    1.2117   27.9634 F       1  UNL1       -0.2300
     38 C         -22.4316    1.0816   27.8969 C.3     1  UNL1        0.2381
     39 O         -23.3618    2.0267   25.8769 O.3     1  UNL1       -0.3354
     40 F         -22.2425   -0.2766   29.8066 F       1  UNL1       -0.2316
     41 C         -27.0351    4.0624   33.8694 C.2     1  UNL1        0.0294
     42 C         -24.6887    0.3367   29.4516 C.3     1  UNL1        0.1454
     43 C         -28.4079    3.7464   33.8960 C.2     1  UNL1        0.0020
     44 O         -25.2499    1.7687   29.8511 O.3     1  UNL1       -0.3520
     45 C         -23.4910    1.4880   27.1388 C.3     1  UNL1        0.2124
     46 C         -26.7324    2.6284   31.9430 C.2     1  UNL1        0.0281
     47 C         -26.1960    3.4771   32.9470 C.2     1  UNL1        0.1381
@<TRIPOS>BOND
     1     1     2    1
     2     1     8    1
     3     2     7    1
     4     3     2    2
     5     4     3    1
     6     4     5    2
     7     5     6    1
     8     6     7    2
     9     8     9    1
    10     8    12    1
    11     9    10    1
    12    10    11    1
    13    12    11    1
    14    13    14    1
    15    13    31    1
    16    14    15    1
    17    15    18    2
    18    16    17    1
    19    16    15    1
    20    19    14    2
    21    20    21    2
    22    20    19    1
    23    21    26    1
    24    22    21    1
    25    23    22    1
    26    24    23    1
    27    24    25    1
    28    26    27    1
    29    26    13    1
    30    28    39    1
    31    29    34    1
    32    30    43    1
    33    31    36    1
    34    32    46    1
    35    32     9    1
    36    33    42    1
    37    33    40    1
    38    34    46    1
    39    34    30    2
    40    38    37    1
    41    38    33    1
    42    41    43    2
    43    42    36    1
    44    42    44    1
    45    42     1    1
    46    44    32    1
    47    45    39    1
    48    45    31    1
    49    45    38    1
    50    46    47    2
    51    47    35    1
    52    47    41    1
