@<TRIPOS>MOLECULE
outputs/IAG933/test6/raw/output_7129_IAG933_linker_design_.xyz
 46 50 0 0 0
SMALL
GASTEIGER

@<TRIPOS>ATOM
      1 C         -24.8550   -1.0120   30.1430 C.3     1  UNL1        0.1133
      2 C         -24.9730   -2.5050   29.7880 C.2     1  UNL1       -0.0050
      3 C         -23.9060   -3.1730   29.1460 C.2     1  UNL1       -0.0029
      4 C         -23.9890   -4.5490   28.8530 C.2     1  UNL1       -0.0003
      5 C         -25.1370   -5.2800   29.2050 C.2     1  UNL1       -0.0000
      6 C         -26.2320   -4.6110   29.7840 C.2     1  UNL1       -0.0003
      7 C         -26.1550   -3.2320   30.0650 C.2     1  UNL1       -0.0029
      8 C         -25.3870   -0.6790   31.5710 C.3     1  UNL1        0.0929
      9 C         -25.1890    0.7730   32.0280 C.3     1  UNL1        0.0197
     10 C         -25.3360    0.6840   33.5440 C.3     1  UNL1        0.0203
     11 C         -24.8290   -0.7150   33.9050 C.3     1  UNL1        0.0888
     12 N         -24.7580   -1.4810   32.6460 N.3     1  UNL1       -0.2177
     13 C         -25.6880    1.6140   26.4610 C.2     1  UNL1        0.0407
     14 C         -26.2500    2.9200   26.3950 C.2     1  UNL1        0.0744
     15 C         -25.6420    4.0930   27.1230 C.2     1  UNL1        0.2219
     16 N         -25.6140    5.2520   26.4490 N.2     1  UNL1       -0.2357
     17 C         -25.0260    6.4790   26.9630 C.3     1  UNL1        0.1550
     18 O         -25.1430    3.9660   28.2430 O.2     1  UNL1       -0.4600
     19 C         -27.4380    3.0910   25.6450 C.2     1  UNL1        0.1068
     20 N         -28.0750    2.0890   25.0030 N.2     1  UNL1       -0.2081
     21 C         -27.5430    0.8490   25.0790 C.2     1  UNL1        0.2533
     22 O         -28.1930   -0.2080   24.4770 O.2     1  UNL1       -0.4558
     23 C         -29.4600    0.0050   23.8660 C.3     1  UNL1        0.2426
     24 C         -30.0650   -1.3770   23.5730 C.3     1  UNL1        0.2292
     25 O         -30.7290   -1.8780   24.7210 O.3     1  UNL1       -0.2162
     26 C         -26.3540    0.5760   25.7770 C.2     1  UNL1        0.1931
     27 F         -25.8600   -0.6810   25.7950 F       1  UNL1       -0.1992
     28 C         -22.3960    2.1430   27.2740 C.3     1  UNL1        0.0362
     29 N         -23.5393   -0.4093   29.9883 N.3     1  UNL1       -0.1875
     30 C         -25.2246    4.0502   32.0674 C.2     1  UNL1        0.0608
     31 O         -22.3455    5.9450   33.5904 O.2     1  UNL1       -0.4334
     32 C         -25.5911    3.3261   29.4450 C.3     1  UNL1        0.2129
     33 C         -23.6724    5.7920   33.2848 C.2     1  UNL1        0.2025
     34 C         -23.1274    0.3301   28.8389 C.3     1  UNL1        0.1895
     35 N         -24.0926    4.8317   32.3388 N.2     1  UNL1       -0.2201
     36 C         -23.4401    1.8307   28.3623 C.3     1  UNL1        0.0507
     37 C         -21.6264    7.0841   33.0535 C.3     1  UNL1        0.3922
     38 C         -26.4282    4.1306   32.8503 C.2     1  UNL1       -0.0112
     39 O         -22.3757    7.7427   32.0530 O.3     1  UNL1       -0.1670
     40 C         -26.6226    4.9840   33.9570 C.3     1  UNL1        0.0278
     41 O         -21.7107    0.5759   28.6464 O.3     1  UNL1       -0.3396
     42 C         -24.6646    6.5512   33.9226 C.3     1  UNL1        0.0853
     43 C         -24.3332    1.8342   31.4556 C.3     1  UNL1        0.0112
     44 C         -25.0813    3.1412   30.9272 C.3     1  UNL1        0.0838
     45 C         -21.3635    1.2793   27.5011 C.3     1  UNL1        0.1439
     46 C         -25.8900    6.1346   34.3213 C.3     1  UNL1        0.0144
@<TRIPOS>BOND
     1     1    29    1
     2     2     7    1
     3     2     1    1
     4     3     2    2
     5     4     3    1
     6     4     5    2
     7     5     6    1
     8     6     7    2
     9     8     1    1
    10     8     9    1
    11     8    12    1
    12     9    43    1
    13     9    10    1
    14    10    11    1
    15    12    11    1
    16    14    13    1
    17    14    15    1
    18    15    18    1
    19    16    17    1
    20    16    15    2
    21    18    32    1
    22    19    14    2
    23    20    21    2
    24    20    19    1
    25    21    26    1
    26    22    21    1
    27    23    22    1
    28    24    23    1
    29    24    25    1
    30    26    27    1
    31    26    13    2
    32    28    45    1
    33    28    36    1
    34    30    35    1
    35    30    38    2
    36    33    31    1
    37    33    42    1
    38    34    29    1
    39    35    33    2
    40    36    34    1
    41    37    31    1
    42    38    40    1
    43    39    37    1
    44    40    46    1
    45    41    34    1
    46    42    46    1
    47    44    32    1
    48    44    43    1
    49    44    30    1
    50    45    41    1
