@<TRIPOS>MOLECULE
outputs/IAG933/test6/raw/output_713_IAG933_linker_design_.xyz
 40 44 0 0 0
SMALL
GASTEIGER

@<TRIPOS>ATOM
      1 C         -24.8550   -1.0120   30.1430 C.3     1  UNL1        0.0965
      2 C         -24.9730   -2.5050   29.7880 C.2     1  UNL1       -0.0064
      3 C         -23.9060   -3.1730   29.1460 C.2     1  UNL1       -0.0029
      4 C         -23.9890   -4.5490   28.8530 C.2     1  UNL1       -0.0003
      5 C         -25.1370   -5.2800   29.2050 C.2     1  UNL1       -0.0000
      6 C         -26.2320   -4.6110   29.7840 C.2     1  UNL1       -0.0003
      7 C         -26.1550   -3.2320   30.0650 C.2     1  UNL1       -0.0029
      8 C         -25.3870   -0.6790   31.5710 C.3     1  UNL1        0.0916
      9 C         -25.1890    0.7730   32.0280 C.3     1  UNL1        0.0206
     10 C         -25.3360    0.6840   33.5440 C.3     1  UNL1        0.0203
     11 C         -24.8290   -0.7150   33.9050 C.3     1  UNL1        0.0888
     12 N         -24.7580   -1.4810   32.6460 N.3     1  UNL1       -0.2178
     13 C         -25.6880    1.6140   26.4610 C.2     1  UNL1        0.0354
     14 C         -26.2500    2.9200   26.3950 C.2     1  UNL1        0.0763
     15 C         -25.6420    4.0930   27.1230 C.2     1  UNL1        0.2664
     16 N         -25.6140    5.2520   26.4490 N.am    1  UNL1       -0.1997
     17 C         -25.0260    6.4790   26.9630 C.3     1  UNL1        0.1388
     18 O         -25.1430    3.9660   28.2430 O.2     1  UNL1       -0.2683
     19 C         -27.4380    3.0910   25.6450 C.2     1  UNL1        0.1067
     20 N         -28.0750    2.0890   25.0030 N.2     1  UNL1       -0.2081
     21 C         -27.5430    0.8490   25.0790 C.2     1  UNL1        0.2533
     22 O         -28.1930   -0.2080   24.4770 O.2     1  UNL1       -0.4558
     23 C         -29.4600    0.0050   23.8660 C.3     1  UNL1        0.2426
     24 C         -30.0650   -1.3770   23.5730 C.3     1  UNL1        0.2292
     25 O         -30.7290   -1.8780   24.7210 O.3     1  UNL1       -0.2162
     26 C         -26.3540    0.5760   25.7770 C.2     1  UNL1        0.1928
     27 F         -25.8600   -0.6810   25.7950 F       1  UNL1       -0.1992
     28 N         -22.1386   -0.3340   29.1326 N.3     1  UNL1       -0.2115
     29 C         -22.6427    0.4279   29.0218 C.3     1  UNL1        0.1119
     30 C         -23.2763    1.9669   26.4066 C.2     1  UNL1       -0.0031
     31 C         -21.8496    2.0650   26.6043 C.2     1  UNL1       -0.0034
     32 N         -25.3571   -0.1663   29.0174 N.3     1  UNL1       -0.2655
     33 C         -21.1242    1.2849   27.4736 C.2     1  UNL1       -0.0077
     34 O         -29.6582    0.4815   29.8981 O.3     1  UNL1       -0.2204
     35 C         -28.6307    1.3593   30.1807 C.3     1  UNL1        0.1835
     36 C         -27.4101    1.3496   29.2287 C.3     1  UNL1        0.0529
     37 C         -21.9486    0.4105   28.4926 C.3     1  UNL1        0.1123
     38 C         -24.2893    0.5552   28.3329 C.3     1  UNL1        0.0983
     39 C         -26.8657   -0.0738   28.8862 C.3     1  UNL1        0.0754
     40 C         -24.4184    1.3873   27.0438 C.2     1  UNL1       -0.0038
@<TRIPOS>BOND
     1     1    32    1
     2     2     7    1
     3     2     1    1
     4     3     2    2
     5     4     3    1
     6     4     5    2
     7     5     6    1
     8     6     7    2
     9     8     1    1
    10     8     9    1
    11     8    12    1
    12     9    10    1
    13    10    11    1
    14    12    11    1
    15    13    40    1
    16    14    13    1
    17    14    15    1
    18    15    18    2
    19    16    17    1
    20    16    15    1
    21    19    14    2
    22    20    21    2
    23    20    19    1
    24    21    26    1
    25    22    21    1
    26    23    22    1
    27    24    23    1
    28    24    25    1
    29    26    27    1
    30    26    13    2
    31    29    28    1
    32    30    31    1
    33    30    40    2
    34    31    33    2
    35    34    35    1
    36    36    35    1
    37    37    33    1
    38    37    29    1
    39    37    28    1
    40    38    32    1
    41    38    29    1
    42    39    32    1
    43    39    36    1
    44    40    38    1
