@<TRIPOS>MOLECULE
outputs/IAG933/test6/raw/output_7133_IAG933_linker_design_.xyz
 42 46 0 0 0
SMALL
GASTEIGER

@<TRIPOS>ATOM
      1 C         -24.8550   -1.0120   30.1430 C.3     1  UNL1        0.0434
      2 C         -24.9730   -2.5050   29.7880 C.2     1  UNL1       -0.0208
      3 C         -23.9060   -3.1730   29.1460 C.2     1  UNL1       -0.0042
      4 C         -23.9890   -4.5490   28.8530 C.2     1  UNL1       -0.0003
      5 C         -25.1370   -5.2800   29.2050 C.2     1  UNL1       -0.0000
      6 C         -26.2320   -4.6110   29.7840 C.2     1  UNL1       -0.0003
      7 C         -26.1550   -3.2320   30.0650 C.2     1  UNL1       -0.0042
      8 C         -25.3870   -0.6790   31.5710 C.3     1  UNL1        0.0772
      9 C         -25.1890    0.7730   32.0280 C.3     1  UNL1        0.0192
     10 C         -25.3360    0.6840   33.5440 C.3     1  UNL1        0.0202
     11 C         -24.8290   -0.7150   33.9050 C.3     1  UNL1        0.0887
     12 N         -24.7580   -1.4810   32.6460 N.3     1  UNL1       -0.2191
     13 C         -25.6880    1.6140   26.4610 C.2     1  UNL1        0.0355
     14 C         -26.2500    2.9200   26.3950 C.2     1  UNL1        0.0763
     15 C         -25.6420    4.0930   27.1230 C.2     1  UNL1        0.2664
     16 N         -25.6140    5.2520   26.4490 N.am    1  UNL1       -0.1997
     17 C         -25.0260    6.4790   26.9630 C.3     1  UNL1        0.1388
     18 O         -25.1430    3.9660   28.2430 O.2     1  UNL1       -0.2683
     19 C         -27.4380    3.0910   25.6450 C.2     1  UNL1        0.1067
     20 N         -28.0750    2.0890   25.0030 N.2     1  UNL1       -0.2081
     21 C         -27.5430    0.8490   25.0790 C.2     1  UNL1        0.2533
     22 O         -28.1930   -0.2080   24.4770 O.2     1  UNL1       -0.4558
     23 C         -29.4600    0.0050   23.8660 C.3     1  UNL1        0.2426
     24 C         -30.0650   -1.3770   23.5730 C.3     1  UNL1        0.2292
     25 O         -30.7290   -1.8780   24.7210 O.3     1  UNL1       -0.2162
     26 C         -26.3540    0.5760   25.7770 C.2     1  UNL1        0.1928
     27 F         -25.8600   -0.6810   25.7950 F       1  UNL1       -0.1992
     28 S         -21.8275    1.6000   27.5361 S.3     1  UNL1       -0.1160
     29 C         -24.4003    1.4333   27.0184 C.2     1  UNL1       -0.0019
     30 C         -24.2045    0.6877   28.2984 C.2     1  UNL1       -0.0340
     31 C         -23.1490    1.9536   26.4418 C.3     1  UNL1        0.1491
     32 C         -22.8709    0.8950   28.7509 C.3     1  UNL1        0.0808
     33 C         -26.4925    0.0774   28.5685 C.3     1  UNL1        0.0788
     34 C         -29.3669    1.4022   29.3758 C.3     1  UNL1        0.1771
     35 C         -28.4540    0.1984   29.5276 C.3     1  UNL1        0.2413
     36 N         -27.2172    0.8389   29.6022 N.3     1  UNL1       -0.2434
     37 C         -25.2396   -0.1350   28.9600 C.3     1  UNL1        0.0403
     38 C         -30.9796    2.8463   28.5109 C.3     1  UNL1        0.1742
     39 O         -29.9782    1.8193   28.1208 O.3     1  UNL1       -0.3481
     40 O         -28.6461   -0.9552   28.6762 O.3     1  UNL1       -0.2022
     41 CL        -22.8615    2.2233   24.7680 Cl      1  UNL1       -0.0981
     42 C         -28.0150    2.1518   29.4783 C.3     1  UNL1        0.1081
@<TRIPOS>BOND
     1     1    37    1
     2     2     7    1
     3     2     1    1
     4     3     2    2
     5     4     3    1
     6     4     5    2
     7     5     6    1
     8     6     7    2
     9     8     1    1
    10     8     9    1
    11     8    12    1
    12     9    10    1
    13    10    11    1
    14    12    11    1
    15    13    29    1
    16    14    13    1
    17    14    15    1
    18    15    18    2
    19    16    17    1
    20    16    15    1
    21    19    14    2
    22    20    21    2
    23    20    19    1
    24    21    26    1
    25    22    21    1
    26    23    22    1
    27    24    23    1
    28    24    25    1
    29    26    27    1
    30    26    13    2
    31    28    32    1
    32    29    30    2
    33    30    32    1
    34    30    37    1
    35    31    41    1
    36    31    29    1
    37    31    28    1
    38    33    36    1
    39    34    39    1
    40    34    42    1
    41    34    35    1
    42    35    40    1
    43    35    36    1
    44    37    33    1
    45    39    38    1
    46    42    36    1
