@<TRIPOS>MOLECULE
outputs/IAG933/test6/raw/output_7137_IAG933_linker_design_.xyz
 43 47 0 0 0
SMALL
GASTEIGER

@<TRIPOS>ATOM
      1 C         -24.8550   -1.0120   30.1430 C.3     1  UNL1        0.0585
      2 C         -24.9730   -2.5050   29.7880 C.2     1  UNL1       -0.0195
      3 C         -23.9060   -3.1730   29.1460 C.2     1  UNL1       -0.0042
      4 C         -23.9890   -4.5490   28.8530 C.2     1  UNL1       -0.0003
      5 C         -25.1370   -5.2800   29.2050 C.2     1  UNL1       -0.0000
      6 C         -26.2320   -4.6110   29.7840 C.2     1  UNL1       -0.0003
      7 C         -26.1550   -3.2320   30.0650 C.2     1  UNL1       -0.0042
      8 C         -25.3870   -0.6790   31.5710 C.3     1  UNL1        0.0785
      9 C         -25.1890    0.7730   32.0280 C.3     1  UNL1        0.0192
     10 C         -25.3360    0.6840   33.5440 C.3     1  UNL1        0.0202
     11 C         -24.8290   -0.7150   33.9050 C.3     1  UNL1        0.0887
     12 N         -24.7580   -1.4810   32.6460 N.3     1  UNL1       -0.2191
     13 C         -25.6880    1.6140   26.4610 C.2     1  UNL1        0.0386
     14 C         -26.2500    2.9200   26.3950 C.2     1  UNL1        0.0766
     15 C         -25.6420    4.0930   27.1230 C.2     1  UNL1        0.2664
     16 N         -25.6140    5.2520   26.4490 N.am    1  UNL1       -0.1997
     17 C         -25.0260    6.4790   26.9630 C.3     1  UNL1        0.1388
     18 O         -25.1430    3.9660   28.2430 O.2     1  UNL1       -0.2683
     19 C         -27.4380    3.0910   25.6450 C.2     1  UNL1        0.1067
     20 N         -28.0750    2.0890   25.0030 N.2     1  UNL1       -0.2081
     21 C         -27.5430    0.8490   25.0790 C.2     1  UNL1        0.2533
     22 O         -28.1930   -0.2080   24.4770 O.2     1  UNL1       -0.4558
     23 C         -29.4600    0.0050   23.8660 C.3     1  UNL1        0.2426
     24 C         -30.0650   -1.3770   23.5730 C.3     1  UNL1        0.2292
     25 O         -30.7290   -1.8780   24.7210 O.3     1  UNL1       -0.2162
     26 C         -26.3540    0.5760   25.7770 C.2     1  UNL1        0.1931
     27 F         -25.8600   -0.6810   25.7950 F       1  UNL1       -0.1992
     28 C         -29.5869    1.8762   29.7073 C.3     1  UNL1        0.0092
     29 N         -26.3452    0.5322   28.9024 N.3     1  UNL1       -0.2156
     30 C         -25.1646    0.0516   29.0928 C.3     1  UNL1        0.1002
     31 C         -28.0741    1.9120   29.5003 C.3     1  UNL1        0.0183
     32 C         -28.3963   -0.1252   27.8693 C.3     1  UNL1        0.0818
     33 CL        -23.0074    2.4817   24.7780 Cl      1  UNL1       -0.0823
     34 C         -22.6784    0.3168   28.7702 C.2     1  UNL1       -0.0029
     35 C         -21.6879    1.6210   26.9378 C.2     1  UNL1        0.0114
     36 C         -24.2288    1.2539   26.9863 C.2     1  UNL1        0.0104
     37 O         -30.8018   -0.7347   27.8888 O.2     1  UNL1       -0.2960
     38 C         -27.5321    0.7100   28.7781 C.3     1  UNL1        0.0804
     39 C         -29.8852    0.1547   27.9910 C.2     1  UNL1        0.1521
     40 C         -22.9839    1.7963   26.2720 C.2     1  UNL1        0.0575
     41 C         -30.2321    1.5303   28.3619 C.3     1  UNL1        0.0646
     42 C         -24.0626    0.4918   28.3075 C.2     1  UNL1       -0.0052
     43 C         -21.5645    0.9094   28.1798 C.2     1  UNL1        0.0006
@<TRIPOS>BOND
     1     1    30    1
     2     2     7    1
     3     2     1    1
     4     3     2    2
     5     4     3    1
     6     4     5    2
     7     5     6    1
     8     6     7    2
     9     8     1    1
    10     8     9    1
    11     8    12    1
    12     9    10    1
    13    10    11    1
    14    12    11    1
    15    13    36    1
    16    14    13    1
    17    14    15    1
    18    15    18    2
    19    16    17    1
    20    16    15    1
    21    19    14    2
    22    20    21    2
    23    20    19    1
    24    21    26    1
    25    22    21    1
    26    23    22    1
    27    24    23    1
    28    24    25    1
    29    26    27    1
    30    26    13    2
    31    30    29    1
    32    31    28    1
    33    32    39    1
    34    32    38    1
    35    33    40    1
    36    35    43    1
    37    36    42    2
    38    37    39    2
    39    38    29    1
    40    38    31    1
    41    39    41    1
    42    40    35    2
    43    40    36    1
    44    41    28    1
    45    42    34    1
    46    42    30    1
    47    43    34    2
