@<TRIPOS>MOLECULE
outputs/IAG933/test6/raw/output_7147_IAG933_linker_design_.xyz
 43 45 0 0 0
SMALL
GASTEIGER

@<TRIPOS>ATOM
      1 C         -24.8550   -1.0120   30.1430 C.3     1  UNL1        0.1158
      2 C         -24.9730   -2.5050   29.7880 C.2     1  UNL1       -0.0029
      3 C         -23.9060   -3.1730   29.1460 C.2     1  UNL1       -0.0026
      4 C         -23.9890   -4.5490   28.8530 C.2     1  UNL1       -0.0003
      5 C         -25.1370   -5.2800   29.2050 C.2     1  UNL1       -0.0000
      6 C         -26.2320   -4.6110   29.7840 C.2     1  UNL1       -0.0003
      7 C         -26.1550   -3.2320   30.0650 C.2     1  UNL1       -0.0026
      8 C         -25.3870   -0.6790   31.5710 C.3     1  UNL1        0.0952
      9 C         -25.1890    0.7730   32.0280 C.3     1  UNL1        0.0209
     10 C         -25.3360    0.6840   33.5440 C.3     1  UNL1        0.0203
     11 C         -24.8290   -0.7150   33.9050 C.3     1  UNL1        0.0888
     12 N         -24.7580   -1.4810   32.6460 N.3     1  UNL1       -0.2174
     13 C         -25.6880    1.6140   26.4610 C.2     1  UNL1        0.0181
     14 C         -26.2500    2.9200   26.3950 C.2     1  UNL1        0.0726
     15 C         -25.6420    4.0930   27.1230 C.2     1  UNL1        0.2661
     16 N         -25.6140    5.2520   26.4490 N.am    1  UNL1       -0.1997
     17 C         -25.0260    6.4790   26.9630 C.3     1  UNL1        0.1388
     18 O         -25.1430    3.9660   28.2430 O.2     1  UNL1       -0.2683
     19 C         -27.4380    3.0910   25.6450 C.2     1  UNL1        0.1064
     20 N         -28.0750    2.0890   25.0030 N.2     1  UNL1       -0.2081
     21 C         -27.5430    0.8490   25.0790 C.2     1  UNL1        0.2530
     22 O         -28.1930   -0.2080   24.4770 O.2     1  UNL1       -0.4558
     23 C         -29.4600    0.0050   23.8660 C.3     1  UNL1        0.2426
     24 C         -30.0650   -1.3770   23.5730 C.3     1  UNL1        0.2292
     25 O         -30.7290   -1.8780   24.7210 O.3     1  UNL1       -0.2162
     26 C         -26.3540    0.5760   25.7770 C.2     1  UNL1        0.1892
     27 F         -25.8600   -0.6810   25.7950 F       1  UNL1       -0.1996
     28 O         -27.6523    3.7805   30.4184 O.3     1  UNL1       -0.2200
     29 C         -24.3587    1.0655   27.0781 C.3     1  UNL1        0.0603
     30 C         -20.5905    1.0937   27.9545 C.3     1  UNL1        0.2557
     31 O         -22.1481    1.2680   27.7339 O.3     1  UNL1       -0.4433
     32 C         -31.2663    2.5247   29.8227 C.3     1  UNL1        0.0084
     33 O         -27.5790   -0.7143   28.6809 O.2     1  UNL1       -0.2504
     34 C         -29.7296    3.9850   28.4961 C.3     1  UNL1        0.0084
     35 C         -29.7818    2.8107   29.5233 C.3     1  UNL1        0.0649
     36 C         -22.9927    0.4948   28.7871 C.2     1  UNL1        0.3357
     37 C         -29.0250    1.5696   28.9434 C.2     1  UNL1        0.0656
     38 C         -26.8743    0.2524   29.0302 C.2     1  UNL1        0.3278
     39 O         -22.4374   -0.1198   29.5651 O.2     1  UNL1       -0.2482
     40 N         -25.4847   -0.0515   29.2026 N.am    1  UNL1       -0.2503
     41 C         -24.5540    0.7356   28.4754 C.3     1  UNL1        0.1805
     42 C         -28.9531    3.2636   30.7473 C.3     1  UNL1        0.1873
     43 N         -27.5197    1.5597   29.1466 N.am    1  UNL1       -0.1655
@<TRIPOS>BOND
     1     1    40    1
     2     2     7    1
     3     2     1    1
     4     3     2    2
     5     4     3    1
     6     4     5    2
     7     5     6    1
     8     6     7    2
     9     8     1    1
    10     8     9    1
    11     8    12    1
    12     9    10    1
    13    10    11    1
    14    12    11    1
    15    13    29    1
    16    14    13    1
    17    14    15    1
    18    15    18    2
    19    16    17    1
    20    16    15    1
    21    19    14    2
    22    20    21    2
    23    20    19    1
    24    21    26    1
    25    22    21    1
    26    23    22    1
    27    24    23    1
    28    24    25    1
    29    26    27    1
    30    26    13    2
    31    28    42    1
    32    31    30    1
    33    31    36    1
    34    33    38    2
    35    34    35    1
    36    35    32    1
    37    35    42    1
    38    36    39    2
    39    37    43    2
    40    37    35    1
    41    38    43    1
    42    38    40   am
    43    41    29    1
    44    41    36    1
    45    41    40    1
