@<TRIPOS>MOLECULE
No_715-gen_results/8p0m/2024-11-27-11-27-31/
 12 11 0 0 0
SMALL
GASTEIGER

@<TRIPOS>ATOM
      1 CL        -28.1493   -0.8198   28.9079 Cl      1  UNL1       -0.0452
      2 C         -28.5324   -0.0471   29.7727 C.3     1  UNL1        0.3497
      3 F         -27.6515    0.7172   30.3086 F       1  UNL1       -0.1848
      4 C         -29.6788    0.8470   29.3357 C.3     1  UNL1        0.1951
      5 F         -29.0606   -0.6842   30.9412 F       1  UNL1       -0.1848
      6 N         -29.9525    1.7977   29.8829 N.pl3   1  UNL1       -0.2291
      7 C         -29.7612    3.0286   29.4259 C.2     1  UNL1        0.0803
      8 C         -29.3351    3.2952   28.1966 C.2     1  UNL1        0.0174
      9 C         -28.6709    4.4270   27.7967 C.2     1  UNL1        0.0014
     10 C         -27.7741    4.3490   26.7546 C.2     1  UNL1        0.0000
     11 C         -27.6639    3.2060   25.9287 C.2     1  UNL1        0.0000
     12 C         -28.3201    2.1134   26.2927 C.2     1  UNL1        0.0000
@<TRIPOS>BOND
     1     1     2    1
     2     2     3    1
     3     2     4    1
     4     2     5    1
     5     4     6    1
     6     6     7    1
     7     7     8    2
     8     8     9    1
     9     9    10    2
    10    10    11    1
    11    11    12    2
