@<TRIPOS>MOLECULE
outputs/IAG933/test6/raw/output_7151_IAG933_linker_design_.xyz
 42 46 0 0 0
SMALL
GASTEIGER

@<TRIPOS>ATOM
      1 C         -24.8550   -1.0120   30.1430 C.3     1  UNL1        0.1141
      2 C         -24.9730   -2.5050   29.7880 C.2     1  UNL1       -0.0029
      3 C         -23.9060   -3.1730   29.1460 C.2     1  UNL1       -0.0026
      4 C         -23.9890   -4.5490   28.8530 C.2     1  UNL1       -0.0003
      5 C         -25.1370   -5.2800   29.2050 C.2     1  UNL1       -0.0000
      6 C         -26.2320   -4.6110   29.7840 C.2     1  UNL1       -0.0003
      7 C         -26.1550   -3.2320   30.0650 C.2     1  UNL1       -0.0026
      8 C         -25.3870   -0.6790   31.5710 C.3     1  UNL1        0.0951
      9 C         -25.1890    0.7730   32.0280 C.3     1  UNL1        0.0209
     10 C         -25.3360    0.6840   33.5440 C.3     1  UNL1        0.0203
     11 C         -24.8290   -0.7150   33.9050 C.3     1  UNL1        0.0888
     12 N         -24.7580   -1.4810   32.6460 N.3     1  UNL1       -0.2174
     13 C         -25.6880    1.6140   26.4610 C.2     1  UNL1        0.0353
     14 C         -26.2500    2.9200   26.3950 C.2     1  UNL1        0.0763
     15 C         -25.6420    4.0930   27.1230 C.2     1  UNL1        0.2664
     16 N         -25.6140    5.2520   26.4490 N.am    1  UNL1       -0.1997
     17 C         -25.0260    6.4790   26.9630 C.3     1  UNL1        0.1388
     18 O         -25.1430    3.9660   28.2430 O.2     1  UNL1       -0.2683
     19 C         -27.4380    3.0910   25.6450 C.2     1  UNL1        0.1067
     20 N         -28.0750    2.0890   25.0030 N.2     1  UNL1       -0.2081
     21 C         -27.5430    0.8490   25.0790 C.2     1  UNL1        0.2533
     22 O         -28.1930   -0.2080   24.4770 O.2     1  UNL1       -0.4558
     23 C         -29.4600    0.0050   23.8660 C.3     1  UNL1        0.2426
     24 C         -30.0650   -1.3770   23.5730 C.3     1  UNL1        0.2292
     25 O         -30.7290   -1.8780   24.7210 O.3     1  UNL1       -0.2162
     26 C         -26.3540    0.5760   25.7770 C.2     1  UNL1        0.1928
     27 F         -25.8600   -0.6810   25.7950 F       1  UNL1       -0.1992
     28 C         -20.7752    0.1028   28.7489 C.2     1  UNL1        0.1049
     29 C         -22.8999    0.1482   29.6588 C.2     1  UNL1        0.2319
     30 C         -22.1795    1.4777   27.6048 C.3     1  UNL1        0.0991
     31 F         -23.4536    1.1954   24.4221 F       1  UNL1       -0.1991
     32 C         -21.9731    1.0610   28.8745 C.3     1  UNL1        0.1288
     33 C         -23.2609    1.4668   26.7567 C.2     1  UNL1        0.0200
     34 O         -22.4448   -0.3631   30.6601 O.2     1  UNL1       -0.2744
     35 N         -20.9445   -1.0274   28.4595 N.2     1  UNL1       -0.1509
     36 N         -24.1570   -0.0743   29.2667 N.am    1  UNL1       -0.2716
     37 C         -22.7405    1.6227   25.4286 C.3     1  UNL1        0.2999
     38 C         -21.0180    2.0342   26.8535 C.3     1  UNL1        0.2852
     39 C         -24.6089    1.3342   27.2471 C.2     1  UNL1       -0.0026
     40 O         -21.3842    1.9302   25.4334 O.3     1  UNL1       -0.2946
     41 C         -24.8614    1.1301   28.7911 C.3     1  UNL1        0.1200
     42 F         -19.9191    2.1907   27.6702 F       1  UNL1       -0.2036
@<TRIPOS>BOND
     1     1     2    1
     2     2     7    1
     3     3     2    2
     4     4     3    1
     5     4     5    2
     6     5     6    1
     7     6     7    2
     8     8     1    1
     9     8     9    1
    10     8    12    1
    11     9    10    1
    12    10    11    1
    13    12    11    1
    14    13    39    1
    15    14    13    1
    16    14    15    1
    17    15    18    2
    18    16    17    1
    19    16    15    1
    20    19    14    2
    21    20    21    2
    22    20    19    1
    23    21    26    1
    24    22    21    1
    25    23    22    1
    26    24    23    1
    27    24    25    1
    28    26    27    1
    29    26    13    2
    30    29    34    2
    31    30    33    1
    32    30    32    1
    33    32    28    1
    34    32    29    1
    35    33    39    2
    36    35    28    2
    37    36    29   am
    38    36     1    1
    39    37    31    1
    40    37    40    1
    41    37    33    1
    42    38    30    1
    43    38    42    1
    44    39    41    1
    45    40    38    1
    46    41    36    1
