@<TRIPOS>MOLECULE
outputs/IAG933/test6/raw/output_7154_IAG933_linker_design_.xyz
 46 50 0 0 0
SMALL
GASTEIGER

@<TRIPOS>ATOM
      1 C         -24.8550   -1.0120   30.1430 C.3     1  UNL1        0.0964
      2 C         -24.9730   -2.5050   29.7880 C.2     1  UNL1       -0.0064
      3 C         -23.9060   -3.1730   29.1460 C.2     1  UNL1       -0.0029
      4 C         -23.9890   -4.5490   28.8530 C.2     1  UNL1       -0.0003
      5 C         -25.1370   -5.2800   29.2050 C.2     1  UNL1       -0.0000
      6 C         -26.2320   -4.6110   29.7840 C.2     1  UNL1       -0.0003
      7 C         -26.1550   -3.2320   30.0650 C.2     1  UNL1       -0.0029
      8 C         -25.3870   -0.6790   31.5710 C.3     1  UNL1        0.0916
      9 C         -25.1890    0.7730   32.0280 C.3     1  UNL1        0.0206
     10 C         -25.3360    0.6840   33.5440 C.3     1  UNL1        0.0203
     11 C         -24.8290   -0.7150   33.9050 C.3     1  UNL1        0.0888
     12 N         -24.7580   -1.4810   32.6460 N.3     1  UNL1       -0.2178
     13 C         -25.6880    1.6140   26.4610 C.2     1  UNL1        0.0240
     14 C         -26.2500    2.9200   26.3950 C.2     1  UNL1        0.0730
     15 C         -25.6420    4.0930   27.1230 C.2     1  UNL1        0.2661
     16 N         -25.6140    5.2520   26.4490 N.am    1  UNL1       -0.1997
     17 C         -25.0260    6.4790   26.9630 C.3     1  UNL1        0.1388
     18 O         -25.1430    3.9660   28.2430 O.2     1  UNL1       -0.2683
     19 C         -27.4380    3.0910   25.6450 C.2     1  UNL1        0.1064
     20 N         -28.0750    2.0890   25.0030 N.2     1  UNL1       -0.2081
     21 C         -27.5430    0.8490   25.0790 C.2     1  UNL1        0.2530
     22 O         -28.1930   -0.2080   24.4770 O.2     1  UNL1       -0.4558
     23 C         -29.4600    0.0050   23.8660 C.3     1  UNL1        0.2426
     24 C         -30.0650   -1.3770   23.5730 C.3     1  UNL1        0.2292
     25 O         -30.7290   -1.8780   24.7210 O.3     1  UNL1       -0.2162
     26 C         -26.3540    0.5760   25.7770 C.2     1  UNL1        0.1896
     27 F         -25.8600   -0.6810   25.7950 F       1  UNL1       -0.1996
     28 N         -27.6270    3.0087   30.4654 N.3     1  UNL1       -0.2273
     29 C         -23.1121    0.3354   28.5236 C.3     1  UNL1        0.2156
     30 N         -27.7832    5.3556   31.0491 N.am    1  UNL1       -0.1639
     31 C         -26.1354    7.0867   31.6233 C.3     1  UNL1        0.0965
     32 C         -27.2855    2.0074   29.0631 C.3     1  UNL1        0.0933
     33 C         -26.4516    5.6570   31.2311 C.2     1  UNL1        0.2449
     34 C         -23.5691    2.0577   27.0400 C.2     1  UNL1        0.1909
     35 C         -24.7563    1.3597   27.3562 C.3     1  UNL1        0.1026
     36 C         -28.7663    3.5448   29.8219 C.3     1  UNL1        0.1442
     37 F         -21.2895    1.8024   27.8782 F       1  UNL1       -0.2262
     38 C         -27.0445    0.4206   29.1043 C.3     1  UNL1        0.0901
     39 F         -22.6489    0.7561   29.7675 F       1  UNL1       -0.2324
     40 O         -23.3601    3.0883   26.4024 O.2     1  UNL1       -0.2927
     41 C         -24.6642    0.3901   28.1908 C.3     1  UNL1        0.1050
     42 C         -28.1331    3.9833   31.1577 C.3     1  UNL1        0.2695
     43 N         -25.5219   -0.1266   29.1724 N.3     1  UNL1       -0.2661
     44 C         -22.4392    1.1866   27.4583 C.3     1  UNL1        0.2514
     45 O         -28.3240    3.6792   32.4407 O.3     1  UNL1       -0.1842
     46 O         -25.5302    4.8504   31.1327 O.2     1  UNL1       -0.2732
@<TRIPOS>BOND
     1     1    43    1
     2     2     7    1
     3     2     1    1
     4     3     2    2
     5     4     3    1
     6     4     5    2
     7     5     6    1
     8     6     7    2
     9     8     1    1
    10     8     9    1
    11     8    12    1
    12     9    10    1
    13    10    11    1
    14    12    11    1
    15    14    13    1
    16    14    15    1
    17    15    18    2
    18    16    17    1
    19    16    15    1
    20    19    14    2
    21    20    21    2
    22    20    19    1
    23    21    26    1
    24    22    21    1
    25    23    22    1
    26    24    23    1
    27    24    25    1
    28    26    27    1
    29    26    13    2
    30    28    42    1
    31    29    39    1
    32    30    42    1
    33    30    33    1
    34    32    38    1
    35    32    28    1
    36    33    31    1
    37    34    35    1
    38    34    44    1
    39    35    13    1
    40    35    41    1
    41    36    28    1
    42    36    42    1
    43    38    43    1
    44    40    34    2
    45    41    29    1
    46    41    43    1
    47    42    45    1
    48    44    37    1
    49    44    29    1
    50    46    33    2
