@<TRIPOS>MOLECULE
outputs/IAG933/test6/raw/output_7155_IAG933_linker_design_.xyz
 46 51 0 0 0
SMALL
GASTEIGER

@<TRIPOS>ATOM
      1 C         -24.8550   -1.0120   30.1430 C.3     1  UNL1        0.2062
      2 C         -24.9730   -2.5050   29.7880 C.2     1  UNL1        0.0218
      3 C         -23.9060   -3.1730   29.1460 C.2     1  UNL1       -0.0004
      4 C         -23.9890   -4.5490   28.8530 C.2     1  UNL1       -0.0002
      5 C         -25.1370   -5.2800   29.2050 C.2     1  UNL1       -0.0000
      6 C         -26.2320   -4.6110   29.7840 C.2     1  UNL1       -0.0002
      7 C         -26.1550   -3.2320   30.0650 C.2     1  UNL1       -0.0004
      8 C         -25.3870   -0.6790   31.5710 C.3     1  UNL1        0.1202
      9 C         -25.1890    0.7730   32.0280 C.3     1  UNL1        0.0233
     10 C         -25.3360    0.6840   33.5440 C.3     1  UNL1        0.0204
     11 C         -24.8290   -0.7150   33.9050 C.3     1  UNL1        0.0889
     12 N         -24.7580   -1.4810   32.6460 N.3     1  UNL1       -0.2150
     13 C         -25.6880    1.6140   26.4610 C.2     1  UNL1        0.0309
     14 C         -26.2500    2.9200   26.3950 C.2     1  UNL1        0.0712
     15 C         -25.6420    4.0930   27.1230 C.2     1  UNL1        0.2216
     16 N         -25.6140    5.2520   26.4490 N.2     1  UNL1       -0.2357
     17 C         -25.0260    6.4790   26.9630 C.3     1  UNL1        0.1550
     18 O         -25.1430    3.9660   28.2430 O.2     1  UNL1       -0.4603
     19 C         -27.4380    3.0910   25.6450 C.2     1  UNL1        0.1065
     20 N         -28.0750    2.0890   25.0030 N.2     1  UNL1       -0.2081
     21 C         -27.5430    0.8490   25.0790 C.2     1  UNL1        0.2530
     22 O         -28.1930   -0.2080   24.4770 O.2     1  UNL1       -0.4558
     23 C         -29.4600    0.0050   23.8660 C.3     1  UNL1        0.2426
     24 C         -30.0650   -1.3770   23.5730 C.3     1  UNL1        0.2292
     25 O         -30.7290   -1.8780   24.7210 O.3     1  UNL1       -0.2162
     26 C         -26.3540    0.5760   25.7770 C.2     1  UNL1        0.1900
     27 F         -25.8600   -0.6810   25.7950 F       1  UNL1       -0.1996
     28 C         -23.0138    0.2933   28.9742 C.2     1  UNL1        0.4194
     29 C         -23.5088    1.6178   26.9501 C.2     1  UNL1        0.0599
     30 C         -25.2693    3.8893   29.6830 C.3     1  UNL1        0.2110
     31 C         -25.3218    0.5157   28.2555 C.2     1  UNL1        0.3217
     32 C         -26.3607    4.0726   30.7487 C.3     1  UNL1        0.0910
     33 C         -22.5138    1.1785   27.8640 C.2     1  UNL1        0.2602
     34 O         -26.6996    6.1801   29.9342 O.3     1  UNL1       -0.3545
     35 N         -24.4042    0.0164   29.1601 N.am    1  UNL1       -0.1326
     36 N         -22.0935   -0.1609   29.8165 N.2     1  UNL1        0.1973
     37 C         -24.7993    1.2148   27.2097 C.3     1  UNL1        0.1536
     38 C         -27.2513    5.7385   32.4243 C.3     1  UNL1        0.0322
     39 N         -21.4997    2.3682   26.2923 N.2     1  UNL1       -0.0753
     40 O         -26.4682    0.1833   28.4426 O.2     1  UNL1       -0.2460
     41 C         -27.6887    4.0864   30.0474 C.3     1  UNL1        0.1272
     42 O         -21.2860    1.6909   27.4540 O.2     1  UNL1       -0.3459
     43 N         -27.8556    2.8538   29.4851 N.3     1  UNL1       -0.1300
     44 C         -26.3530    5.5455   31.1780 C.3     1  UNL1        0.1204
     45 C         -27.6445    5.3470   29.2357 C.3     1  UNL1        0.1611
     46 C         -22.9178    2.2799   25.9210 C.2     1  UNL1        0.1406
@<TRIPOS>BOND
     1     1     2    1
     2     2     7    1
     3     3     2    2
     4     4     3    1
     5     4     5    2
     6     5     6    1
     7     6     7    2
     8     8     1    1
     9     8     9    1
    10     8    12    1
    11     9    10    1
    12    10    11    1
    13    12    11    1
    14    14    13    1
    15    14    15    1
    16    15    18    1
    17    16    17    1
    18    16    15    2
    19    18    30    1
    20    19    14    2
    21    20    21    2
    22    20    19    1
    23    21    26    1
    24    22    21    1
    25    23    22    1
    26    24    23    1
    27    24    25    1
    28    26    27    1
    29    26    13    2
    30    28    35    1
    31    28    36    2
    32    29    37    1
    33    29    33    2
    34    31    40    2
    35    31    35   am
    36    32    30    1
    37    32    44    1
    38    33    28    1
    39    34    44    1
    40    35     1    1
    41    37    13    1
    42    37    31    1
    43    39    42    1
    44    41    43    1
    45    41    32    1
    46    42    33    1
    47    44    38    1
    48    45    34    1
    49    45    41    1
    50    46    39    2
    51    46    29    1
