@<TRIPOS>MOLECULE
outputs/IAG933/test6/raw/output_7158_IAG933_linker_design_.xyz
 43 46 0 0 0
SMALL
GASTEIGER

@<TRIPOS>ATOM
      1 C         -24.8550   -1.0120   30.1430 C.3     1  UNL1        0.0820
      2 C         -24.9730   -2.5050   29.7880 C.2     1  UNL1       -0.0175
      3 C         -23.9060   -3.1730   29.1460 C.2     1  UNL1       -0.0041
      4 C         -23.9890   -4.5490   28.8530 C.2     1  UNL1       -0.0003
      5 C         -25.1370   -5.2800   29.2050 C.2     1  UNL1       -0.0000
      6 C         -26.2320   -4.6110   29.7840 C.2     1  UNL1       -0.0003
      7 C         -26.1550   -3.2320   30.0650 C.2     1  UNL1       -0.0041
      8 C         -25.3870   -0.6790   31.5710 C.3     1  UNL1        0.0804
      9 C         -25.1890    0.7730   32.0280 C.3     1  UNL1        0.0193
     10 C         -25.3360    0.6840   33.5440 C.3     1  UNL1        0.0202
     11 C         -24.8290   -0.7150   33.9050 C.3     1  UNL1        0.0887
     12 N         -24.7580   -1.4810   32.6460 N.3     1  UNL1       -0.2190
     13 C         -25.6880    1.6140   26.4610 C.3     1  UNL1        0.0702
     14 C         -26.2500    2.9200   26.3950 C.2     1  UNL1        0.0548
     15 C         -25.6420    4.0930   27.1230 C.2     1  UNL1        0.2624
     16 N         -25.6140    5.2520   26.4490 N.am    1  UNL1       -0.2000
     17 C         -25.0260    6.4790   26.9630 C.3     1  UNL1        0.1388
     18 O         -25.1430    3.9660   28.2430 O.2     1  UNL1       -0.2687
     19 C         -27.4380    3.0910   25.6450 C.2     1  UNL1        0.1021
     20 N         -28.0750    2.0890   25.0030 N.2     1  UNL1       -0.2119
     21 C         -27.5430    0.8490   25.0790 C.2     1  UNL1        0.2341
     22 O         -28.1930   -0.2080   24.4770 O.2     1  UNL1       -0.4586
     23 C         -29.4600    0.0050   23.8660 C.3     1  UNL1        0.2388
     24 C         -30.0650   -1.3770   23.5730 C.3     1  UNL1        0.1910
     25 O         -30.7290   -1.8780   24.7210 O.3     1  UNL1       -0.3343
     26 C         -26.3540    0.5760   25.7770 C.3     1  UNL1        0.2400
     27 F         -25.8600   -0.6810   25.7950 F       1  UNL1       -0.2269
     28 C         -30.6717   -0.1768   28.0497 C.3     1  UNL1        0.1100
     29 N         -32.6266   -0.4659   25.1917 N.3     1  UNL1       -0.1001
     30 C         -31.1322    1.1672   28.6539 C.3     1  UNL1        0.0250
     31 N         -29.3459   -0.5708   28.1911 N.2     1  UNL1       -0.2436
     32 C         -21.3188    1.7708   27.4980 C.3     1  UNL1        0.0692
     33 C         -31.5469   -1.0938   27.2323 C.3     1  UNL1        0.0739
     34 C         -25.3378    0.9556   27.8319 C.3     1  UNL1        0.0087
     35 C         -25.8450   -0.1379   29.3235 C.3     1  UNL1        0.2124
     36 S         -22.6058    2.0251   26.4984 S.3     1  UNL1       -0.1393
     37 C         -28.4351    0.0821   28.9057 C.2     1  UNL1        0.1956
     38 C         -29.0366    1.1682   29.8996 C.3     1  UNL1        0.0845
     39 C         -29.9368    2.0455   29.0341 C.3     1  UNL1        0.0117
     40 C         -31.3074   -0.8680   25.7190 C.3     1  UNL1        0.2082
     41 C         -23.6340    1.2313   27.4425 C.3     1  UNL1        0.0576
     42 C         -24.0551    0.4853   28.2535 C.3     1  UNL1        0.0121
     43 O         -27.3051   -0.2157   29.2344 O.2     1  UNL1       -0.4632
@<TRIPOS>BOND
     1     1    35    1
     2     2     7    1
     3     2     1    1
     4     3     2    2
     5     4     3    1
     6     4     5    2
     7     5     6    1
     8     6     7    2
     9     8     1    1
    10     8     9    1
    11     8    12    1
    12     9    10    1
    13    10    11    1
    14    12    11    1
    15    13    34    1
    16    14    13    1
    17    14    15    1
    18    15    18    2
    19    16    17    1
    20    16    15    1
    21    19    14    2
    22    20    21    2
    23    20    19    1
    24    21    26    1
    25    22    21    1
    26    23    22    1
    27    24    23    1
    28    24    25    1
    29    25    40    1
    30    26    27    1
    31    26    13    1
    32    28    33    1
    33    28    31    1
    34    28    30    1
    35    30    39    1
    36    31    37    2
    37    34    42    1
    38    36    41    1
    39    36    32    1
    40    37    43    1
    41    37    38    1
    42    39    38    1
    43    40    29    1
    44    40    33    1
    45    41    42    1
    46    43    35    1
