@<TRIPOS>MOLECULE
No_716-gen_results/8p0m/2024-11-27-11-27-31/
 13 14 0 0 0
SMALL
GASTEIGER

@<TRIPOS>ATOM
      1 C         -28.0162   -0.8135   28.8779 C.ar    1  UNL1        0.0296
      2 C         -27.0636   -0.1189   28.6079 C.ar    1  UNL1        0.0023
      3 C         -25.7647   -0.3897   29.0360 C.ar    1  UNL1        0.0001
      4 C         -25.5296   -1.5302   29.9014 C.ar    1  UNL1        0.0023
      5 C         -26.4408   -2.2130   30.0940 C.ar    1  UNL1        0.0296
      6 C         -27.7549   -1.9968   29.7465 C.ar    1  UNL1        0.1401
      7 C         -24.5585    0.5005   28.7224 C.ar    1  UNL1        0.0000
      8 C         -24.5229    1.2715   27.7066 C.ar    1  UNL1        0.0000
      9 C         -23.3433    2.0138   27.3659 C.ar    1  UNL1        0.0000
     10 C         -22.1536    1.8332   28.0055 C.ar    1  UNL1        0.0000
     11 C         -23.2962    0.2543   29.4319 C.ar    1  UNL1        0.0000
     12 C         -22.1178    0.9314   29.0570 C.ar    1  UNL1        0.0000
     13 F         -28.7708   -2.7948   30.0909 F       1  UNL1       -0.2042
@<TRIPOS>BOND
     1     3     7    1
     2     6    13    1
     3     7     8   ar
     4     8     9   ar
     5     9    10   ar
     6    10    12   ar
     7    12    11   ar
     8    11     7   ar
     9     1     2   ar
    10     2     3   ar
    11     3     4   ar
    12     4     5   ar
    13     5     6   ar
    14     6     1   ar
