@<TRIPOS>MOLECULE
outputs/IAG933/test6/raw/output_7163_IAG933_linker_design_.xyz
 46 50 0 0 0
SMALL
GASTEIGER

@<TRIPOS>ATOM
      1 C         -24.8550   -1.0120   30.1430 C.3     1  UNL1        0.1156
      2 C         -24.9730   -2.5050   29.7880 C.2     1  UNL1       -0.0029
      3 C         -23.9060   -3.1730   29.1460 C.2     1  UNL1       -0.0026
      4 C         -23.9890   -4.5490   28.8530 C.2     1  UNL1       -0.0003
      5 C         -25.1370   -5.2800   29.2050 C.2     1  UNL1       -0.0000
      6 C         -26.2320   -4.6110   29.7840 C.2     1  UNL1       -0.0003
      7 C         -26.1550   -3.2320   30.0650 C.2     1  UNL1       -0.0026
      8 C         -25.3870   -0.6790   31.5710 C.3     1  UNL1        0.0952
      9 C         -25.1890    0.7730   32.0280 C.3     1  UNL1        0.0209
     10 C         -25.3360    0.6840   33.5440 C.3     1  UNL1        0.0203
     11 C         -24.8290   -0.7150   33.9050 C.3     1  UNL1        0.0888
     12 N         -24.7580   -1.4810   32.6460 N.3     1  UNL1       -0.2174
     13 C         -25.6880    1.6140   26.4610 C.3     1  UNL1        0.0943
     14 C         -26.2500    2.9200   26.3950 C.2     1  UNL1        0.0589
     15 C         -25.6420    4.0930   27.1230 C.2     1  UNL1        0.2628
     16 N         -25.6140    5.2520   26.4490 N.am    1  UNL1       -0.2000
     17 C         -25.0260    6.4790   26.9630 C.3     1  UNL1        0.1388
     18 O         -25.1430    3.9660   28.2430 O.2     1  UNL1       -0.2686
     19 C         -27.4380    3.0910   25.6450 C.2     1  UNL1        0.1025
     20 N         -28.0750    2.0890   25.0030 N.2     1  UNL1       -0.2118
     21 C         -27.5430    0.8490   25.0790 C.2     1  UNL1        0.2344
     22 O         -28.1930   -0.2080   24.4770 O.2     1  UNL1       -0.4585
     23 C         -29.4600    0.0050   23.8660 C.3     1  UNL1        0.2423
     24 C         -30.0650   -1.3770   23.5730 C.3     1  UNL1        0.2292
     25 O         -30.7290   -1.8780   24.7210 O.3     1  UNL1       -0.2162
     26 C         -26.3540    0.5760   25.7770 C.3     1  UNL1        0.2441
     27 F         -25.8600   -0.6810   25.7950 F       1  UNL1       -0.2265
     28 C         -21.8894    2.0235   26.4683 C.2     1  UNL1        0.0293
     29 C         -28.6764    3.1338   28.6872 C.3     1  UNL1        0.0068
     30 C         -29.9396    4.9174   29.6190 C.2     1  UNL1       -0.0307
     31 C         -29.8537    2.8084   30.8181 C.3     1  UNL1        0.0275
     32 C         -27.0530   -0.0492   29.0148 C.2     1  UNL1        0.3237
     33 C         -29.2358    0.9455   29.6280 C.3     1  UNL1        0.1171
     34 C         -23.9301    1.1450   28.1961 C.2     1  UNL1       -0.0037
     35 C         -24.9867    1.1722   29.1982 C.3     1  UNL1        0.1218
     36 F         -23.5511    2.9832   25.1443 F       1  UNL1       -0.2045
     37 C         -22.5877    0.9609   28.5419 C.2     1  UNL1       -0.0028
     38 C         -28.8875    4.5256   28.7414 C.3     1  UNL1        0.0258
     39 C         -21.5613    1.3701   27.6885 C.2     1  UNL1        0.0020
     40 N         -25.7219   -0.0411   29.2297 N.am    1  UNL1       -0.2553
     41 C         -23.2369    2.1816   26.1497 C.2     1  UNL1        0.1363
     42 C         -30.2952    4.0912   30.7053 C.2     1  UNL1       -0.0306
     43 N         -27.7529    0.9064   29.5409 N.am    1  UNL1       -0.1884
     44 C         -24.3038    1.6051   26.9275 C.2     1  UNL1        0.0101
     45 C         -29.5186    2.3293   29.5063 C.3     1  UNL1        0.0264
     46 O         -27.6281   -0.8490   28.2763 O.2     1  UNL1       -0.2508
@<TRIPOS>BOND
     1     1    40    1
     2     2     7    1
     3     2     1    1
     4     3     2    2
     5     4     3    1
     6     4     5    2
     7     5     6    1
     8     6     7    2
     9     8     1    1
    10     8     9    1
    11     8    12    1
    12     9    10    1
    13    10    11    1
    14    12    11    1
    15    13    44    1
    16    14    13    1
    17    14    15    1
    18    15    18    2
    19    16    17    1
    20    16    15    1
    21    19    14    2
    22    20    21    2
    23    20    19    1
    24    21    26    1
    25    22    21    1
    26    23    22    1
    27    24    23    1
    28    24    25    1
    29    26    27    1
    30    26    13    1
    31    28    39    1
    32    29    38    1
    33    29    45    1
    34    30    42    2
    35    32    40   am
    36    32    43    1
    37    34    37    1
    38    34    35    1
    39    35    40    1
    40    36    41    1
    41    38    30    1
    42    39    37    2
    43    41    28    2
    44    41    44    1
    45    42    31    1
    46    43    33    1
    47    44    34    2
    48    45    33    1
    49    45    31    1
    50    46    32    2
