@<TRIPOS>MOLECULE
outputs/IAG933/test6/raw/output_7165_IAG933_linker_design_.xyz
 43 46 0 0 0
SMALL
GASTEIGER

@<TRIPOS>ATOM
      1 C         -24.8550   -1.0120   30.1430 C.3     1  UNL1        0.0733
      2 C         -24.9730   -2.5050   29.7880 C.2     1  UNL1       -0.0183
      3 C         -23.9060   -3.1730   29.1460 C.2     1  UNL1       -0.0041
      4 C         -23.9890   -4.5490   28.8530 C.2     1  UNL1       -0.0003
      5 C         -25.1370   -5.2800   29.2050 C.2     1  UNL1       -0.0000
      6 C         -26.2320   -4.6110   29.7840 C.2     1  UNL1       -0.0003
      7 C         -26.1550   -3.2320   30.0650 C.2     1  UNL1       -0.0041
      8 C         -25.3870   -0.6790   31.5710 C.3     1  UNL1        0.0796
      9 C         -25.1890    0.7730   32.0280 C.3     1  UNL1        0.0193
     10 C         -25.3360    0.6840   33.5440 C.3     1  UNL1        0.0202
     11 C         -24.8290   -0.7150   33.9050 C.3     1  UNL1        0.0887
     12 N         -24.7580   -1.4810   32.6460 N.3     1  UNL1       -0.2190
     13 C         -25.6880    1.6140   26.4610 C.2     1  UNL1        0.0417
     14 C         -26.2500    2.9200   26.3950 C.2     1  UNL1        0.0767
     15 C         -25.6420    4.0930   27.1230 C.2     1  UNL1        0.2664
     16 N         -25.6140    5.2520   26.4490 N.am    1  UNL1       -0.1997
     17 C         -25.0260    6.4790   26.9630 C.3     1  UNL1        0.1388
     18 O         -25.1430    3.9660   28.2430 O.2     1  UNL1       -0.2683
     19 C         -27.4380    3.0910   25.6450 C.2     1  UNL1        0.1067
     20 N         -28.0750    2.0890   25.0030 N.2     1  UNL1       -0.2081
     21 C         -27.5430    0.8490   25.0790 C.2     1  UNL1        0.2533
     22 O         -28.1930   -0.2080   24.4770 O.2     1  UNL1       -0.4558
     23 C         -29.4600    0.0050   23.8660 C.3     1  UNL1        0.2426
     24 C         -30.0650   -1.3770   23.5730 C.3     1  UNL1        0.2292
     25 O         -30.7290   -1.8780   24.7210 O.3     1  UNL1       -0.2162
     26 C         -26.3540    0.5760   25.7770 C.2     1  UNL1        0.1932
     27 F         -25.8600   -0.6810   25.7950 F       1  UNL1       -0.1992
     28 O         -22.9849    0.6924   28.8575 O.2     1  UNL1       -0.4513
     29 C         -27.5428    2.1026   28.7499 C.3     1  UNL1        0.0048
     30 C         -25.5438   -0.1307   29.0731 C.3     1  UNL1        0.1816
     31 C         -28.1264    3.1813   29.4821 C.3     1  UNL1        0.0235
     32 N         -26.4615    4.4233   30.6719 N.am    1  UNL1       -0.2054
     33 C         -22.2251    1.5127   27.8521 C.2     1  UNL1        0.1905
     34 C         -26.7338    0.8964   29.3569 C.3     1  UNL1        0.0383
     35 C         -23.1575    1.8287   26.9116 C.2     1  UNL1        0.0979
     36 O         -24.4942    4.1253   31.7992 O.2     1  UNL1       -0.2733
     37 CL        -22.7729    2.3774   25.2939 Cl      1  UNL1       -0.0789
     38 C         -25.5681    4.7215   31.6479 C.2     1  UNL1        0.2419
     39 O         -26.5378   -0.8534   28.2334 O.3     1  UNL1       -0.2176
     40 C         -24.4487    1.3349   27.2199 C.2     1  UNL1        0.0489
     41 C         -24.3471    0.5915   28.3786 C.2     1  UNL1        0.1515
     42 C         -26.0146    5.8320   32.5977 C.3     1  UNL1        0.0964
     43 C         -27.4708    3.3178   30.8507 C.3     1  UNL1        0.1151
@<TRIPOS>BOND
     1     1    30    1
     2     2     7    1
     3     2     1    1
     4     3     2    2
     5     4     3    1
     6     4     5    2
     7     5     6    1
     8     6     7    2
     9     8     1    1
    10     8     9    1
    11     8    12    1
    12     9    10    1
    13    10    11    1
    14    12    11    1
    15    13    40    1
    16    14    13    1
    17    14    15    1
    18    15    18    2
    19    16    17    1
    20    16    15    1
    21    19    14    2
    22    20    21    2
    23    20    19    1
    24    21    26    1
    25    22    21    1
    26    23    22    1
    27    24    23    1
    28    24    25    1
    29    26    27    1
    30    26    13    2
    31    29    34    1
    32    29    31    1
    33    30    39    1
    34    30    34    1
    35    31    43    1
    36    32    43    1
    37    32    38    1
    38    33    28    1
    39    35    40    1
    40    35    33    2
    41    37    35    1
    42    38    36    2
    43    38    42    1
    44    40    41    2
    45    41    28    1
    46    41    30    1
