@<TRIPOS>MOLECULE
outputs/IAG933/test6/raw/output_7166_IAG933_linker_design_.xyz
 41 44 0 0 0
SMALL
GASTEIGER

@<TRIPOS>ATOM
      1 C         -24.8550   -1.0120   30.1430 C.3     1  UNL1        0.1117
      2 C         -24.9730   -2.5050   29.7880 C.2     1  UNL1       -0.0030
      3 C         -23.9060   -3.1730   29.1460 C.2     1  UNL1       -0.0026
      4 C         -23.9890   -4.5490   28.8530 C.2     1  UNL1       -0.0003
      5 C         -25.1370   -5.2800   29.2050 C.2     1  UNL1       -0.0000
      6 C         -26.2320   -4.6110   29.7840 C.2     1  UNL1       -0.0003
      7 C         -26.1550   -3.2320   30.0650 C.2     1  UNL1       -0.0026
      8 C         -25.3870   -0.6790   31.5710 C.3     1  UNL1        0.0950
      9 C         -25.1890    0.7730   32.0280 C.3     1  UNL1        0.0209
     10 C         -25.3360    0.6840   33.5440 C.3     1  UNL1        0.0203
     11 C         -24.8290   -0.7150   33.9050 C.3     1  UNL1        0.0888
     12 N         -24.7580   -1.4810   32.6460 N.3     1  UNL1       -0.2174
     13 C         -25.6880    1.6140   26.4610 C.2     1  UNL1        0.0423
     14 C         -26.2500    2.9200   26.3950 C.2     1  UNL1        0.0767
     15 C         -25.6420    4.0930   27.1230 C.2     1  UNL1        0.2664
     16 N         -25.6140    5.2520   26.4490 N.am    1  UNL1       -0.1997
     17 C         -25.0260    6.4790   26.9630 C.3     1  UNL1        0.1388
     18 O         -25.1430    3.9660   28.2430 O.2     1  UNL1       -0.2683
     19 C         -27.4380    3.0910   25.6450 C.2     1  UNL1        0.1067
     20 N         -28.0750    2.0890   25.0030 N.2     1  UNL1       -0.2081
     21 C         -27.5430    0.8490   25.0790 C.2     1  UNL1        0.2533
     22 O         -28.1930   -0.2080   24.4770 O.2     1  UNL1       -0.4558
     23 C         -29.4600    0.0050   23.8660 C.3     1  UNL1        0.2426
     24 C         -30.0650   -1.3770   23.5730 C.3     1  UNL1        0.2292
     25 O         -30.7290   -1.8780   24.7210 O.3     1  UNL1       -0.2162
     26 C         -26.3540    0.5760   25.7770 C.2     1  UNL1        0.1932
     27 F         -25.8600   -0.6810   25.7950 F       1  UNL1       -0.1992
     28 N         -24.8974    0.0451   29.1772 N.pl3   1  UNL1       -0.2964
     29 C         -21.0354    1.6524   27.5540 C.2     1  UNL1       -0.0181
     30 N         -27.8189    1.6540   29.2613 N.am    1  UNL1       -0.0863
     31 C         -21.3728    0.8441   28.6196 C.3     1  UNL1        0.0534
     32 O         -23.2546    1.5605   24.9405 O.2     1  UNL1       -0.2919
     33 C         -22.6569    0.2980   28.8862 C.2     1  UNL1       -0.0068
     34 O         -27.6021   -0.5588   28.6418 O.2     1  UNL1       -0.2698
     35 C         -21.9472    1.9582   26.5804 C.2     1  UNL1        0.0371
     36 F         -22.4338    2.4718   24.4736 F       1  UNL1        0.0138
     37 C         -24.3087    1.1882   27.0399 C.2     1  UNL1        0.0537
     38 C         -23.9618    0.4627   28.3332 C.2     1  UNL1        0.0475
     39 C         -25.9050    1.0066   28.9408 C.3     1  UNL1        0.1808
     40 C         -23.2373    1.5720   26.2911 C.2     1  UNL1        0.1898
     41 C         -27.2216    0.5309   29.0299 C.2     1  UNL1        0.2809
@<TRIPOS>BOND
     1     1    28    1
     2     2     7    1
     3     2     1    1
     4     3     2    2
     5     4     3    1
     6     4     5    2
     7     5     6    1
     8     6     7    2
     9     8     1    1
    10     8     9    1
    11     8    12    1
    12     9    10    1
    13    10    11    1
    14    12    11    1
    15    13    37    1
    16    14    13    1
    17    14    15    1
    18    15    18    2
    19    16    17    1
    20    16    15    1
    21    19    14    2
    22    20    21    2
    23    20    19    1
    24    21    26    1
    25    22    21    1
    26    23    22    1
    27    24    23    1
    28    24    25    1
    29    26    27    1
    30    26    13    2
    31    29    31    1
    32    31    33    1
    33    32    40    1
    34    34    41    2
    35    35    29    2
    36    36    32    1
    37    37    38    1
    38    38    33    2
    39    38    28    1
    40    39    41    1
    41    39    28    1
    42    40    35    1
    43    40    37    2
    44    41    30    1
