@<TRIPOS>MOLECULE
outputs/IAG933/test6/raw/output_7173_IAG933_linker_design_.xyz
 48 52 0 0 0
SMALL
GASTEIGER

@<TRIPOS>ATOM
      1 C         -24.8550   -1.0120   30.1430 C.3     1  UNL1        0.0985
      2 C         -24.9730   -2.5050   29.7880 C.2     1  UNL1       -0.0064
      3 C         -23.9060   -3.1730   29.1460 C.2     1  UNL1       -0.0029
      4 C         -23.9890   -4.5490   28.8530 C.2     1  UNL1       -0.0003
      5 C         -25.1370   -5.2800   29.2050 C.2     1  UNL1       -0.0000
      6 C         -26.2320   -4.6110   29.7840 C.2     1  UNL1       -0.0003
      7 C         -26.1550   -3.2320   30.0650 C.2     1  UNL1       -0.0029
      8 C         -25.3870   -0.6790   31.5710 C.3     1  UNL1        0.0916
      9 C         -25.1890    0.7730   32.0280 C.3     1  UNL1        0.0206
     10 C         -25.3360    0.6840   33.5440 C.3     1  UNL1        0.0203
     11 C         -24.8290   -0.7150   33.9050 C.3     1  UNL1        0.0888
     12 N         -24.7580   -1.4810   32.6460 N.3     1  UNL1       -0.2178
     13 C         -25.6880    1.6140   26.4610 C.3     1  UNL1        0.0992
     14 C         -26.2500    2.9200   26.3950 C.2     1  UNL1        0.0572
     15 C         -25.6420    4.0930   27.1230 C.2     1  UNL1        0.2625
     16 N         -25.6140    5.2520   26.4490 N.am    1  UNL1       -0.2000
     17 C         -25.0260    6.4790   26.9630 C.3     1  UNL1        0.1388
     18 O         -25.1430    3.9660   28.2430 O.2     1  UNL1       -0.2687
     19 C         -27.4380    3.0910   25.6450 C.2     1  UNL1        0.1022
     20 N         -28.0750    2.0890   25.0030 N.2     1  UNL1       -0.2119
     21 C         -27.5430    0.8490   25.0790 C.2     1  UNL1        0.2342
     22 O         -28.1930   -0.2080   24.4770 O.2     1  UNL1       -0.4585
     23 C         -29.4600    0.0050   23.8660 C.3     1  UNL1        0.2423
     24 C         -30.0650   -1.3770   23.5730 C.3     1  UNL1        0.2292
     25 O         -30.7290   -1.8780   24.7210 O.3     1  UNL1       -0.2162
     26 C         -26.3540    0.5760   25.7770 C.3     1  UNL1        0.2424
     27 F         -25.8600   -0.6810   25.7950 F       1  UNL1       -0.2268
     28 C         -27.3370    0.5681   28.8053 C.2     1  UNL1        0.2431
     29 C         -32.2063    1.7595   25.7468 C.3     1  UNL1        0.0225
     30 O         -23.6613    0.6774   27.4176 O.3     1  UNL1       -0.3410
     31 C         -31.2907    4.0594   25.4609 C.3     1  UNL1        0.0857
     32 C         -31.9150    1.9050   27.2497 C.3     1  UNL1        0.1009
     33 O         -30.1749    5.2898   27.0943 O.2     1  UNL1       -0.2745
     34 O         -30.7897    2.8773   29.8659 O.2     1  UNL1       -0.2726
     35 C         -28.0332    2.1777   30.5745 C.3     1  UNL1        0.1154
     36 N         -24.4504    0.0989   29.4805 N.3     1  UNL1       -0.2385
     37 C         -21.4167    1.6922   27.3649 C.3     1  UNL1        0.0041
     38 C         -30.7633    4.1698   26.8053 C.2     1  UNL1        0.2314
     39 C         -23.1644    0.2276   28.6777 C.3     1  UNL1        0.1768
     40 C         -30.3676    2.6802   28.7888 C.2     1  UNL1        0.2516
     41 N         -28.1525    1.6616   29.1048 N.am    1  UNL1       -0.2684
     42 C         -25.6463    0.7832   28.7621 C.3     1  UNL1        0.1648
     43 N         -31.0063    3.0650   27.6859 N.am    1  UNL1       -0.2285
     44 O         -27.8014   -0.5455   28.6984 O.2     1  UNL1       -0.2733
     45 C         -31.5915    2.8399   24.8930 C.3     1  UNL1        0.0113
     46 C         -29.1629    2.0300   28.4008 C.3     1  UNL1        0.1798
     47 C         -21.7251    0.9160   28.6461 C.3     1  UNL1        0.0468
     48 C         -24.7846    1.2489   27.6142 C.3     1  UNL1        0.1475
@<TRIPOS>BOND
     1     1     2    1
     2     2     7    1
     3     3     2    2
     4     4     3    1
     5     4     5    2
     6     5     6    1
     7     6     7    2
     8     8     1    1
     9     8     9    1
    10     8    12    1
    11     9    10    1
    12    10    11    1
    13    12    11    1
    14    13    14    1
    15    13    48    1
    16    14    15    1
    17    15    18    2
    18    16    17    1
    19    16    15    1
    20    19    14    2
    21    20    21    2
    22    20    19    1
    23    21    26    1
    24    22    21    1
    25    23    22    1
    26    24    23    1
    27    24    25    1
    28    26    27    1
    29    26    13    1
    30    28    41   am
    31    29    32    1
    32    30    39    1
    33    31    38    1
    34    32    43    1
    35    36     1    1
    36    37    47    1
    37    38    33    2
    38    38    43   am
    39    39    47    1
    40    39    36    1
    41    40    34    2
    42    41    35    1
    43    42    28    1
    44    42    36    1
    45    43    40   am
    46    44    28    2
    47    45    31    1
    48    45    29    1
    49    46    40    1
    50    46    41    1
    51    48    30    1
    52    48    42    1
