@<TRIPOS>MOLECULE
outputs/IAG933/test6/raw/output_7174_IAG933_linker_design_.xyz
 40 43 0 0 0
SMALL
GASTEIGER

@<TRIPOS>ATOM
      1 C         -24.8550   -1.0120   30.1430 C.3     1  UNL1        0.2430
      2 C         -24.9730   -2.5050   29.7880 C.2     1  UNL1        0.0254
      3 C         -23.9060   -3.1730   29.1460 C.2     1  UNL1       -0.0003
      4 C         -23.9890   -4.5490   28.8530 C.2     1  UNL1       -0.0002
      5 C         -25.1370   -5.2800   29.2050 C.2     1  UNL1       -0.0000
      6 C         -26.2320   -4.6110   29.7840 C.2     1  UNL1       -0.0002
      7 C         -26.1550   -3.2320   30.0650 C.2     1  UNL1       -0.0003
      8 C         -25.3870   -0.6790   31.5710 C.3     1  UNL1        0.1239
      9 C         -25.1890    0.7730   32.0280 C.3     1  UNL1        0.0235
     10 C         -25.3360    0.6840   33.5440 C.3     1  UNL1        0.0204
     11 C         -24.8290   -0.7150   33.9050 C.3     1  UNL1        0.0889
     12 N         -24.7580   -1.4810   32.6460 N.3     1  UNL1       -0.2149
     13 C         -25.6880    1.6140   26.4610 C.2     1  UNL1        0.0670
     14 C         -26.2500    2.9200   26.3950 C.2     1  UNL1        0.0767
     15 C         -25.6420    4.0930   27.1230 C.2     1  UNL1        0.2663
     16 N         -25.6140    5.2520   26.4490 N.am    1  UNL1       -0.1997
     17 C         -25.0260    6.4790   26.9630 C.3     1  UNL1        0.1388
     18 O         -25.1430    3.9660   28.2430 O.2     1  UNL1       -0.2683
     19 C         -27.4380    3.0910   25.6450 C.2     1  UNL1        0.1065
     20 N         -28.0750    2.0890   25.0030 N.2     1  UNL1       -0.2081
     21 C         -27.5430    0.8490   25.0790 C.2     1  UNL1        0.2531
     22 O         -28.1930   -0.2080   24.4770 O.2     1  UNL1       -0.4558
     23 C         -29.4600    0.0050   23.8660 C.3     1  UNL1        0.2426
     24 C         -30.0650   -1.3770   23.5730 C.3     1  UNL1        0.2292
     25 O         -30.7290   -1.8780   24.7210 O.3     1  UNL1       -0.2162
     26 C         -26.3540    0.5760   25.7770 C.2     1  UNL1        0.1932
     27 F         -25.8600   -0.6810   25.7950 F       1  UNL1       -0.1994
     28 C         -24.3171    1.5065   26.9840 C.3     1  UNL1        0.2748
     29 C         -23.1277    1.9235   26.3180 C.3     1  UNL1        0.2488
     30 N         -24.1518    1.1187   28.1732 N.2     1  UNL1       -0.0564
     31 C         -21.8210    1.6172   26.7573 C.3     1  UNL1        0.2306
     32 C         -23.6255    0.3406   28.9276 C.2     1  UNL1        0.3919
     33 O         -22.2799   -0.2927   30.7090 O.2     1  UNL1       -0.2832
     34 F         -20.9271    2.0575   25.9434 F       1  UNL1       -0.2312
     35 F         -23.1576    2.6749   25.2010 F       1  UNL1       -0.2292
     36 N         -24.5477   -0.1133   29.1539 N.pl3   1  UNL1       -0.0274
     37 C         -22.2770   -0.0881   29.5254 C.2     1  UNL1        0.2604
     38 C         -20.9437   -0.1860   28.6599 C.3     1  UNL1        0.1154
     39 F         -20.1622    0.9993   28.2608 F       1  UNL1       -0.2338
     40 C         -21.0883    0.7917   27.6053 C.3     1  UNL1        0.2041
@<TRIPOS>BOND
     1     1    36    1
     2     2     7    1
     3     2     1    1
     4     3     2    2
     5     4     3    1
     6     4     5    2
     7     5     6    1
     8     6     7    2
     9     8     1    1
    10     8     9    1
    11     8    12    1
    12     9    10    1
    13    10    11    1
    14    12    11    1
    15    14    13    1
    16    14    15    1
    17    15    18    2
    18    16    17    1
    19    16    15    1
    20    19    14    2
    21    20    21    2
    22    20    19    1
    23    21    26    1
    24    22    21    1
    25    23    22    1
    26    24    23    1
    27    24    25    1
    28    26    27    1
    29    26    13    2
    30    28    13    1
    31    28    30    1
    32    29    35    1
    33    29    31    1
    34    29    28    1
    35    30    32    2
    36    31    34    1
    37    31    40    1
    38    32    36    1
    39    32    37    1
    40    37    33    2
    41    38    37    1
    42    40    39    1
    43    40    38    1
