@<TRIPOS>MOLECULE
outputs/IAG933/test6/raw/output_7176_IAG933_linker_design_.xyz
 45 49 0 0 0
SMALL
GASTEIGER

@<TRIPOS>ATOM
      1 C         -24.8550   -1.0120   30.1430 C.3     1  UNL1        0.0438
      2 C         -24.9730   -2.5050   29.7880 C.2     1  UNL1       -0.0208
      3 C         -23.9060   -3.1730   29.1460 C.2     1  UNL1       -0.0042
      4 C         -23.9890   -4.5490   28.8530 C.2     1  UNL1       -0.0003
      5 C         -25.1370   -5.2800   29.2050 C.2     1  UNL1       -0.0000
      6 C         -26.2320   -4.6110   29.7840 C.2     1  UNL1       -0.0003
      7 C         -26.1550   -3.2320   30.0650 C.2     1  UNL1       -0.0042
      8 C         -25.3870   -0.6790   31.5710 C.3     1  UNL1        0.0811
      9 C         -25.1890    0.7730   32.0280 C.3     1  UNL1        0.0650
     10 C         -25.3360    0.6840   33.5440 C.3     1  UNL1        0.0243
     11 C         -24.8290   -0.7150   33.9050 C.3     1  UNL1        0.0888
     12 N         -24.7580   -1.4810   32.6460 N.3     1  UNL1       -0.2190
     13 C         -25.6880    1.6140   26.4610 C.2     1  UNL1        0.1776
     14 C         -26.2500    2.9200   26.3950 C.2     1  UNL1        0.1105
     15 C         -25.6420    4.0930   27.1230 C.2     1  UNL1        0.2694
     16 N         -25.6140    5.2520   26.4490 N.am    1  UNL1       -0.1996
     17 C         -25.0260    6.4790   26.9630 C.3     1  UNL1        0.1388
     18 O         -25.1430    3.9660   28.2430 O.2     1  UNL1       -0.2682
     19 C         -27.4380    3.0910   25.6450 C.2     1  UNL1        0.1098
     20 N         -28.0750    2.0890   25.0030 N.2     1  UNL1       -0.2079
     21 C         -27.5430    0.8490   25.0790 C.2     1  UNL1        0.2564
     22 O         -28.1930   -0.2080   24.4770 O.2     1  UNL1       -0.4558
     23 C         -29.4600    0.0050   23.8660 C.3     1  UNL1        0.2426
     24 C         -30.0650   -1.3770   23.5730 C.3     1  UNL1        0.2292
     25 O         -30.7290   -1.8780   24.7210 O.3     1  UNL1       -0.2162
     26 C         -26.3540    0.5760   25.7770 C.2     1  UNL1        0.2267
     27 F         -25.8600   -0.6810   25.7950 F       1  UNL1       -0.1960
     28 C         -28.7660    3.7473   36.5968 C.3     1  UNL1        0.2525
     29 O         -27.6985    3.2054   35.8475 O.2     1  UNL1       -0.4714
     30 C         -21.6194    1.2612   27.7419 C.3     1  UNL1        0.3308
     31 O         -24.7071    1.1173   27.2808 O.2     1  UNL1       -0.4574
     32 C         -26.4726    3.1879   33.8170 C.2     1  UNL1        0.0328
     33 C         -28.3294    4.7063   34.0189 C.2     1  UNL1        0.0369
     34 C         -23.6596    1.5350   27.6048 C.3     1  UNL1        0.3348
     35 C         -26.8156    4.9172   32.1680 C.2     1  UNL1       -0.0039
     36 O         -22.5894    2.3072   25.7231 O.2     1  UNL1       -0.2869
     37 C         -27.5693    3.6779   34.5609 C.2     1  UNL1        0.1384
     38 C         -23.5346    1.3384   29.1369 C.2     1  UNL1        0.3804
     39 N         -24.3110    1.8411   30.0569 N.pl3   1  UNL1       -0.0361
     40 C         -22.5848    1.8070   26.8864 C.2     1  UNL1        0.2560
     41 C         -25.3592    1.9676   31.0421 C.3     1  UNL1        0.2104
     42 C         -25.0404    3.2526   31.7904 C.3     1  UNL1        0.0773
     43 C         -27.9586    5.3157   32.8204 C.2     1  UNL1        0.0028
     44 N         -22.3394    0.9720   29.1141 N.2     1  UNL1       -0.0540
     45 C         -26.1375    3.8087   32.6554 C.2     1  UNL1       -0.0150
@<TRIPOS>BOND
     1     2     7    1
     2     2     1    1
     3     3     2    2
     4     4     3    1
     5     4     5    2
     6     5     6    1
     7     6     7    2
     8     8     1    1
     9     8     9    1
    10     8    12    1
    11     9    41    1
    12     9    10    1
    13    10    11    1
    14    12    11    1
    15    13    31    1
    16    14    13    1
    17    14    15    1
    18    15    18    2
    19    16    17    1
    20    16    15    1
    21    19    14    2
    22    20    21    2
    23    20    19    1
    24    21    26    1
    25    22    21    1
    26    23    22    1
    27    24    23    1
    28    24    25    1
    29    26    27    1
    30    26    13    2
    31    29    28    1
    32    30    44    1
    33    32    37    1
    34    33    37    2
    35    34    31    1
    36    34    38    1
    37    35    45    1
    38    35    43    2
    39    36    40    2
    40    37    29    1
    41    38    39    1
    42    39    41    1
    43    40    34    1
    44    40    30    1
    45    41    42    1
    46    42    45    1
    47    43    33    1
    48    44    38    2
    49    45    32    2
