@<TRIPOS>MOLECULE
outputs/IAG933/test6/raw/output_7178_IAG933_linker_design_.xyz
 41 44 0 0 0
SMALL
GASTEIGER

@<TRIPOS>ATOM
      1 C         -24.8550   -1.0120   30.1430 C.3     1  UNL1        0.1177
      2 C         -24.9730   -2.5050   29.7880 C.2     1  UNL1       -0.0028
      3 C         -23.9060   -3.1730   29.1460 C.2     1  UNL1       -0.0026
      4 C         -23.9890   -4.5490   28.8530 C.2     1  UNL1       -0.0003
      5 C         -25.1370   -5.2800   29.2050 C.2     1  UNL1       -0.0000
      6 C         -26.2320   -4.6110   29.7840 C.2     1  UNL1       -0.0003
      7 C         -26.1550   -3.2320   30.0650 C.2     1  UNL1       -0.0026
      8 C         -25.3870   -0.6790   31.5710 C.3     1  UNL1        0.0953
      9 C         -25.1890    0.7730   32.0280 C.3     1  UNL1        0.0209
     10 C         -25.3360    0.6840   33.5440 C.3     1  UNL1        0.0203
     11 C         -24.8290   -0.7150   33.9050 C.3     1  UNL1        0.0888
     12 N         -24.7580   -1.4810   32.6460 N.3     1  UNL1       -0.2174
     13 C         -25.6880    1.6140   26.4610 C.2     1  UNL1        0.0361
     14 C         -26.2500    2.9200   26.3950 C.2     1  UNL1        0.0763
     15 C         -25.6420    4.0930   27.1230 C.2     1  UNL1        0.2664
     16 N         -25.6140    5.2520   26.4490 N.am    1  UNL1       -0.1997
     17 C         -25.0260    6.4790   26.9630 C.3     1  UNL1        0.1388
     18 O         -25.1430    3.9660   28.2430 O.2     1  UNL1       -0.2683
     19 C         -27.4380    3.0910   25.6450 C.2     1  UNL1        0.1067
     20 N         -28.0750    2.0890   25.0030 N.2     1  UNL1       -0.2081
     21 C         -27.5430    0.8490   25.0790 C.2     1  UNL1        0.2533
     22 O         -28.1930   -0.2080   24.4770 O.2     1  UNL1       -0.4558
     23 C         -29.4600    0.0050   23.8660 C.3     1  UNL1        0.2426
     24 C         -30.0650   -1.3770   23.5730 C.3     1  UNL1        0.2292
     25 O         -30.7290   -1.8780   24.7210 O.3     1  UNL1       -0.2162
     26 C         -26.3540    0.5760   25.7770 C.2     1  UNL1        0.1928
     27 F         -25.8600   -0.6810   25.7950 F       1  UNL1       -0.1992
     28 N         -25.5105   -0.1365   29.1232 N.am    1  UNL1       -0.2303
     29 C         -24.5754    1.2218   27.1662 C.2     1  UNL1        0.0102
     30 O         -27.3450    1.1436   29.7660 O.co2   1  UNL1       -0.2223
     31 C         -26.9492    0.0680   29.2273 C.2     1  UNL1        0.4480
     32 C         -24.4862    0.4877   28.3652 C.3     1  UNL1        0.1665
     33 C         -23.2070    1.5116   26.8797 C.2     1  UNL1        0.0813
     34 C         -22.8419    2.1385   25.7265 C.3     1  UNL1        0.3351
     35 O         -21.0447    1.8809   28.0582 O.2     1  UNL1       -0.2836
     36 O         -27.7313   -0.8000   28.8394 O.co2   1  UNL1       -0.2223
     37 F         -21.6419    2.0368   25.2343 F       1  UNL1       -0.1958
     38 O         -23.6117    2.9740   25.0992 O.3     1  UNL1       -0.1790
     39 C         -23.0502    0.6043   28.7856 C.2     1  UNL1        0.2336
     40 O         -22.4442    0.0351   29.8735 O.2     1  UNL1       -0.2858
     41 C         -22.2603    1.2481   27.8428 C.2     1  UNL1        0.2328
@<TRIPOS>BOND
     1     1    28    1
     2     2     7    1
     3     2     1    1
     4     3     2    2
     5     4     3    1
     6     4     5    2
     7     5     6    1
     8     6     7    2
     9     8     1    1
    10     8     9    1
    11     8    12    1
    12     9    10    1
    13    10    11    1
    14    12    11    1
    15    13    29    1
    16    14    13    1
    17    14    15    1
    18    15    18    2
    19    16    17    1
    20    16    15    1
    21    19    14    2
    22    20    21    2
    23    20    19    1
    24    21    26    1
    25    22    21    1
    26    23    22    1
    27    24    23    1
    28    24    25    1
    29    26    27    1
    30    26    13    2
    31    28    31   am
    32    29    32    1
    33    31    30   ar
    34    32    39    1
    35    32    28    1
    36    33    29    2
    37    33    41    1
    38    34    38    1
    39    34    33    1
    40    36    31   ar
    41    37    34    1
    42    39    40    1
    43    41    35    1
    44    41    39    2
