@<TRIPOS>MOLECULE
outputs/IAG933/test6/raw/output_718_IAG933_linker_design_.xyz
 45 48 0 0 0
SMALL
GASTEIGER

@<TRIPOS>ATOM
      1 C         -24.8550   -1.0120   30.1430 C.3     1  UNL1        0.0965
      2 C         -24.9730   -2.5050   29.7880 C.2     1  UNL1       -0.0064
      3 C         -23.9060   -3.1730   29.1460 C.2     1  UNL1       -0.0029
      4 C         -23.9890   -4.5490   28.8530 C.2     1  UNL1       -0.0003
      5 C         -25.1370   -5.2800   29.2050 C.2     1  UNL1       -0.0000
      6 C         -26.2320   -4.6110   29.7840 C.2     1  UNL1       -0.0003
      7 C         -26.1550   -3.2320   30.0650 C.2     1  UNL1       -0.0029
      8 C         -25.3870   -0.6790   31.5710 C.3     1  UNL1        0.0916
      9 C         -25.1890    0.7730   32.0280 C.3     1  UNL1        0.0206
     10 C         -25.3360    0.6840   33.5440 C.3     1  UNL1        0.0203
     11 C         -24.8290   -0.7150   33.9050 C.3     1  UNL1        0.0888
     12 N         -24.7580   -1.4810   32.6460 N.3     1  UNL1       -0.2178
     13 C         -25.6880    1.6140   26.4610 C.3     1  UNL1        0.0719
     14 C         -26.2500    2.9200   26.3950 C.2     1  UNL1        0.0549
     15 C         -25.6420    4.0930   27.1230 C.2     1  UNL1        0.2624
     16 N         -25.6140    5.2520   26.4490 N.am    1  UNL1       -0.2000
     17 C         -25.0260    6.4790   26.9630 C.3     1  UNL1        0.1388
     18 O         -25.1430    3.9660   28.2430 O.2     1  UNL1       -0.2687
     19 C         -27.4380    3.0910   25.6450 C.2     1  UNL1        0.1021
     20 N         -28.0750    2.0890   25.0030 N.2     1  UNL1       -0.2119
     21 C         -27.5430    0.8490   25.0790 C.2     1  UNL1        0.2341
     22 O         -28.1930   -0.2080   24.4770 O.2     1  UNL1       -0.4585
     23 C         -29.4600    0.0050   23.8660 C.3     1  UNL1        0.2423
     24 C         -30.0650   -1.3770   23.5730 C.3     1  UNL1        0.2292
     25 O         -30.7290   -1.8780   24.7210 O.3     1  UNL1       -0.2162
     26 C         -26.3540    0.5760   25.7770 C.3     1  UNL1        0.2400
     27 F         -25.8600   -0.6810   25.7950 F       1  UNL1       -0.2269
     28 O         -32.6720    1.9237   28.2277 O.2     1  UNL1       -0.2397
     29 C         -29.3219   -1.0957   28.9356 C.3     1  UNL1        0.0973
     30 C         -23.1628    0.7523   29.0095 C.2     1  UNL1        0.1650
     31 O         -22.6295    0.1151   29.8620 O.2     1  UNL1       -0.2947
     32 N         -25.3653   -0.1882   29.0673 N.3     1  UNL1       -0.2643
     33 C         -24.2930    1.4941   26.7399 C.3     1  UNL1        0.0313
     34 C         -28.9891   -1.3475   30.4352 C.3     1  UNL1        0.0248
     35 C         -28.0439   -0.6455   29.4054 C.3     1  UNL1        0.0377
     36 C         -32.0765    0.9265   27.5692 C.2     1  UNL1        0.3973
     37 C         -31.4348   -0.2384   28.0756 C.2     1  UNL1        0.3408
     38 C         -22.3323    1.8412   28.2290 C.3     1  UNL1        0.0659
     39 C         -26.7392   -0.3681   28.5358 C.3     1  UNL1        0.0744
     40 C         -24.4444    0.7873   28.3238 C.3     1  UNL1        0.1163
     41 C         -31.3628    2.7711   26.1529 C.3     1  UNL1        0.2561
     42 C         -20.9453    1.4085   27.7338 C.3     1  UNL1        0.0082
     43 O         -31.7477   -1.4892   27.7722 O.2     1  UNL1       -0.2612
     44 N         -30.3951   -0.0347   28.8830 N.am    1  UNL1       -0.1979
     45 O         -31.4840    1.3572   26.3234 O.3     1  UNL1       -0.4382
@<TRIPOS>BOND
     1     1    32    1
     2     2     7    1
     3     2     1    1
     4     3     2    2
     5     4     3    1
     6     4     5    2
     7     5     6    1
     8     6     7    2
     9     8     1    1
    10     8     9    1
    11     8    12    1
    12     9    10    1
    13    10    11    1
    14    12    11    1
    15    13    33    1
    16    14    13    1
    17    14    15    1
    18    15    18    2
    19    16    17    1
    20    16    15    1
    21    19    14    2
    22    20    21    2
    23    20    19    1
    24    21    26    1
    25    22    21    1
    26    23    22    1
    27    24    23    1
    28    24    25    1
    29    26    27    1
    30    26    13    1
    31    29    44    1
    32    29    35    1
    33    29    34    1
    34    30    31    2
    35    35    39    1
    36    35    34    1
    37    36    37    1
    38    36    28    2
    39    37    44    1
    40    38    30    1
    41    39    32    1
    42    40    33    1
    43    40    30    1
    44    40    32    1
    45    41    45    1
    46    42    38    1
    47    43    37    2
    48    45    36    1
