@<TRIPOS>MOLECULE
outputs/IAG933/test6/raw/output_7189_IAG933_linker_design_.xyz
 42 45 0 0 0
SMALL
GASTEIGER

@<TRIPOS>ATOM
      1 C         -24.8550   -1.0120   30.1430 C.3     1  UNL1        0.1196
      2 C         -24.9730   -2.5050   29.7880 C.2     1  UNL1       -0.0025
      3 C         -23.9060   -3.1730   29.1460 C.2     1  UNL1       -0.0026
      4 C         -23.9890   -4.5490   28.8530 C.2     1  UNL1       -0.0003
      5 C         -25.1370   -5.2800   29.2050 C.2     1  UNL1       -0.0000
      6 C         -26.2320   -4.6110   29.7840 C.2     1  UNL1       -0.0003
      7 C         -26.1550   -3.2320   30.0650 C.2     1  UNL1       -0.0026
      8 C         -25.3870   -0.6790   31.5710 C.3     1  UNL1        0.0955
      9 C         -25.1890    0.7730   32.0280 C.3     1  UNL1        0.0209
     10 C         -25.3360    0.6840   33.5440 C.3     1  UNL1        0.0203
     11 C         -24.8290   -0.7150   33.9050 C.3     1  UNL1        0.0888
     12 N         -24.7580   -1.4810   32.6460 N.3     1  UNL1       -0.2174
     13 C         -25.6880    1.6140   26.4610 C.2     1  UNL1        0.0415
     14 C         -26.2500    2.9200   26.3950 C.2     1  UNL1        0.0767
     15 C         -25.6420    4.0930   27.1230 C.2     1  UNL1        0.2664
     16 N         -25.6140    5.2520   26.4490 N.am    1  UNL1       -0.1997
     17 C         -25.0260    6.4790   26.9630 C.3     1  UNL1        0.1388
     18 O         -25.1430    3.9660   28.2430 O.2     1  UNL1       -0.2683
     19 C         -27.4380    3.0910   25.6450 C.2     1  UNL1        0.1067
     20 N         -28.0750    2.0890   25.0030 N.2     1  UNL1       -0.2081
     21 C         -27.5430    0.8490   25.0790 C.2     1  UNL1        0.2533
     22 O         -28.1930   -0.2080   24.4770 O.2     1  UNL1       -0.4558
     23 C         -29.4600    0.0050   23.8660 C.3     1  UNL1        0.2426
     24 C         -30.0650   -1.3770   23.5730 C.3     1  UNL1        0.2292
     25 O         -30.7290   -1.8780   24.7210 O.3     1  UNL1       -0.2162
     26 C         -26.3540    0.5760   25.7770 C.2     1  UNL1        0.1932
     27 F         -25.8600   -0.6810   25.7950 F       1  UNL1       -0.1992
     28 F         -23.3637    2.1901   25.1085 F       1  UNL1       -0.2017
     29 C         -27.5272    2.7155   30.2390 C.3     1  UNL1        0.2991
     30 N         -25.3169   -0.0305   29.1721 N.am    1  UNL1       -0.2381
     31 F         -20.9712    1.9882   25.9174 F       1  UNL1       -0.1994
     32 N         -26.8925    1.8675   29.1964 N.am    1  UNL1       -0.1535
     33 C         -22.8968    0.7490   28.8817 C.2     1  UNL1        0.0471
     34 C         -24.4219    1.3113   27.1038 C.2     1  UNL1        0.0461
     35 C         -24.2749    0.6833   28.4049 C.2     1  UNL1        0.0602
     36 F         -20.5617    0.8966   28.2948 F       1  UNL1       -0.2017
     37 C         -22.0294    1.6043   26.7351 C.2     1  UNL1        0.1947
     38 O         -28.7020    2.9706   31.2249 O.3     1  UNL1       -0.1941
     39 C         -21.8650    1.0793   28.0334 C.2     1  UNL1        0.1709
     40 C         -26.7044    0.4887   29.1068 C.2     1  UNL1        0.3295
     41 C         -23.2685    1.6546   26.3590 C.2     1  UNL1        0.1708
     42 O         -27.6051   -0.3102   28.9872 O.2     1  UNL1       -0.2503
@<TRIPOS>BOND
     1     1    30    1
     2     2     7    1
     3     2     1    1
     4     3     2    2
     5     4     3    1
     6     4     5    2
     7     5     6    1
     8     6     7    2
     9     8     1    1
    10     8     9    1
    11     8    12    1
    12     9    10    1
    13    10    11    1
    14    12    11    1
    15    13    34    1
    16    14    13    1
    17    14    15    1
    18    15    18    2
    19    16    17    1
    20    16    15    1
    21    19    14    2
    22    20    21    2
    23    20    19    1
    24    21    26    1
    25    22    21    1
    26    23    22    1
    27    24    23    1
    28    24    25    1
    29    26    27    1
    30    26    13    2
    31    28    41    1
    32    29    38    1
    33    31    37    1
    34    32    29    1
    35    34    35    2
    36    35    33    1
    37    35    30    1
    38    37    39    1
    39    39    36    1
    40    39    33    2
    41    40    30   am
    42    40    32    1
    43    41    37    2
    44    41    34    1
    45    42    40    2
