@<TRIPOS>MOLECULE
outputs/IAG933/test6/raw/output_7201_IAG933_linker_design_.xyz
 47 51 0 0 0
SMALL
GASTEIGER

@<TRIPOS>ATOM
      1 C         -24.8550   -1.0120   30.1430 C.3     1  UNL1        0.0571
      2 C         -24.9730   -2.5050   29.7880 C.2     1  UNL1       -0.0195
      3 C         -23.9060   -3.1730   29.1460 C.2     1  UNL1       -0.0042
      4 C         -23.9890   -4.5490   28.8530 C.2     1  UNL1       -0.0003
      5 C         -25.1370   -5.2800   29.2050 C.2     1  UNL1       -0.0000
      6 C         -26.2320   -4.6110   29.7840 C.2     1  UNL1       -0.0003
      7 C         -26.1550   -3.2320   30.0650 C.2     1  UNL1       -0.0042
      8 C         -25.3870   -0.6790   31.5710 C.3     1  UNL1        0.0784
      9 C         -25.1890    0.7730   32.0280 C.3     1  UNL1        0.0192
     10 C         -25.3360    0.6840   33.5440 C.3     1  UNL1        0.0202
     11 C         -24.8290   -0.7150   33.9050 C.3     1  UNL1        0.0887
     12 N         -24.7580   -1.4810   32.6460 N.3     1  UNL1       -0.2191
     13 C         -25.6880    1.6140   26.4610 C.2     1  UNL1        0.0304
     14 C         -26.2500    2.9200   26.3950 C.2     1  UNL1        0.0738
     15 C         -25.6420    4.0930   27.1230 C.2     1  UNL1        0.2662
     16 N         -25.6140    5.2520   26.4490 N.am    1  UNL1       -0.1997
     17 C         -25.0260    6.4790   26.9630 C.3     1  UNL1        0.1388
     18 O         -25.1430    3.9660   28.2430 O.2     1  UNL1       -0.2683
     19 C         -27.4380    3.0910   25.6450 C.2     1  UNL1        0.1065
     20 N         -28.0750    2.0890   25.0030 N.2     1  UNL1       -0.2081
     21 C         -27.5430    0.8490   25.0790 C.2     1  UNL1        0.2530
     22 O         -28.1930   -0.2080   24.4770 O.2     1  UNL1       -0.4558
     23 C         -29.4600    0.0050   23.8660 C.3     1  UNL1        0.2426
     24 C         -30.0650   -1.3770   23.5730 C.3     1  UNL1        0.2292
     25 O         -30.7290   -1.8780   24.7210 O.3     1  UNL1       -0.2162
     26 C         -26.3540    0.5760   25.7770 C.2     1  UNL1        0.1904
     27 F         -25.8600   -0.6810   25.7950 F       1  UNL1       -0.1995
     28 C         -24.4552    1.3357   27.2638 C.3     1  UNL1        0.0857
     29 C         -22.6836    0.4128   28.6561 C.3     1  UNL1        0.1082
     30 C         -26.5249    0.9093   29.3099 C.2     1  UNL1       -0.0172
     31 C         -29.2486    1.2241   29.5171 C.3     1  UNL1        0.1371
     32 O         -30.5933    3.3822   29.3548 O.3     1  UNL1       -0.3492
     33 F         -20.8394    1.7717   27.5145 F       1  UNL1       -0.2357
     34 O         -30.0627   -0.5334   26.9697 O.3     1  UNL1       -0.2068
     35 N         -30.4255    0.5552   29.0086 N.3     1  UNL1       -0.1030
     36 C         -28.0018    0.4414   29.4762 C.2     1  UNL1       -0.0279
     37 C         -28.1051   -1.0978   29.4785 C.3     1  UNL1        0.0272
     38 O         -31.6890    0.7882   29.4940 O.3     1  UNL1       -0.1154
     39 C         -30.3965    4.7089   29.8226 C.3     1  UNL1        0.1742
     40 C         -30.3990   -0.7489   28.3118 C.3     1  UNL1        0.1983
     41 C         -31.7060   -1.7596   28.2410 C.3     1  UNL1        0.0523
     42 C         -23.2016    1.8219   26.6585 C.3     1  UNL1        0.0573
     43 C         -25.3743   -0.1161   29.0096 C.3     1  UNL1        0.0849
     44 C         -29.2823   -1.5306   28.9674 C.3     1  UNL1        0.0526
     45 C         -22.2629    1.4375   27.7366 C.3     1  UNL1        0.1785
     46 N         -24.0973    0.5140   28.4354 N.3     1  UNL1       -0.2651
     47 C         -29.5220    2.6291   29.9318 C.3     1  UNL1        0.1648
@<TRIPOS>BOND
     1     1    43    1
     2     2     7    1
     3     2     1    1
     4     3     2    2
     5     4     3    1
     6     4     5    2
     7     5     6    1
     8     6     7    2
     9     8     1    1
    10     8     9    1
    11     8    12    1
    12     9    10    1
    13    10    11    1
    14    12    11    1
    15    14    13    1
    16    14    15    1
    17    15    18    2
    18    16    17    1
    19    16    15    1
    20    19    14    2
    21    20    21    2
    22    20    19    1
    23    21    26    1
    24    22    21    1
    25    23    22    1
    26    24    23    1
    27    24    25    1
    28    26    27    1
    29    26    13    2
    30    28    13    1
    31    28    46    1
    32    30    36    2
    33    31    47    1
    34    32    39    1
    35    32    47    1
    36    34    40    1
    37    35    38    1
    38    35    31    1
    39    36    37    1
    40    36    31    1
    41    40    41    1
    42    40    44    1
    43    40    35    1
    44    42    28    1
    45    42    45    1
    46    43    30    1
    47    44    37    1
    48    45    33    1
    49    45    29    1
    50    46    29    1
    51    46    43    1
