@<TRIPOS>MOLECULE
outputs/IAG933/test6/raw/output_7203_IAG933_linker_design_.xyz
 45 49 0 0 0
SMALL
GASTEIGER

@<TRIPOS>ATOM
      1 C         -24.8550   -1.0120   30.1430 C.3     1  UNL1        0.1124
      2 C         -24.9730   -2.5050   29.7880 C.2     1  UNL1       -0.0051
      3 C         -23.9060   -3.1730   29.1460 C.2     1  UNL1       -0.0029
      4 C         -23.9890   -4.5490   28.8530 C.2     1  UNL1       -0.0003
      5 C         -25.1370   -5.2800   29.2050 C.2     1  UNL1       -0.0000
      6 C         -26.2320   -4.6110   29.7840 C.2     1  UNL1       -0.0003
      7 C         -26.1550   -3.2320   30.0650 C.2     1  UNL1       -0.0029
      8 C         -25.3870   -0.6790   31.5710 C.3     1  UNL1        0.0929
      9 C         -25.1890    0.7730   32.0280 C.3     1  UNL1        0.0206
     10 C         -25.3360    0.6840   33.5440 C.3     1  UNL1        0.0203
     11 C         -24.8290   -0.7150   33.9050 C.3     1  UNL1        0.0888
     12 N         -24.7580   -1.4810   32.6460 N.3     1  UNL1       -0.2177
     13 C         -25.6880    1.6140   26.4610 C.2     1  UNL1        0.0407
     14 C         -26.2500    2.9200   26.3950 C.2     1  UNL1        0.0745
     15 C         -25.6420    4.0930   27.1230 C.2     1  UNL1        0.2235
     16 N         -25.6140    5.2520   26.4490 N.2     1  UNL1       -0.2356
     17 C         -25.0260    6.4790   26.9630 C.3     1  UNL1        0.1550
     18 O         -25.1430    3.9660   28.2430 O.2     1  UNL1       -0.4410
     19 C         -27.4380    3.0910   25.6450 C.2     1  UNL1        0.1068
     20 N         -28.0750    2.0890   25.0030 N.2     1  UNL1       -0.2081
     21 C         -27.5430    0.8490   25.0790 C.2     1  UNL1        0.2533
     22 O         -28.1930   -0.2080   24.4770 O.2     1  UNL1       -0.4558
     23 C         -29.4600    0.0050   23.8660 C.3     1  UNL1        0.2426
     24 C         -30.0650   -1.3770   23.5730 C.3     1  UNL1        0.2292
     25 O         -30.7290   -1.8780   24.7210 O.3     1  UNL1       -0.2162
     26 C         -26.3540    0.5760   25.7770 C.2     1  UNL1        0.1931
     27 F         -25.8600   -0.6810   25.7950 F       1  UNL1       -0.1992
     28 C         -22.4739    1.2991   28.1576 C.3     1  UNL1        0.2393
     29 C         -25.4329    2.9754   29.2886 C.3     1  UNL1        0.2854
     30 N         -27.5788    2.1001   29.5778 N.2     1  UNL1       -0.2430
     31 C         -23.5283    0.9574   29.0425 C.3     1  UNL1        0.1951
     32 C         -28.4719    1.5719   30.5347 C.2     1  UNL1        0.1001
     33 C         -29.1076    1.3741   34.4320 C.2     1  UNL1        0.0207
     34 C         -27.6793    2.9249   32.4411 C.2     1  UNL1        0.0841
     35 N         -27.7081    3.2015   33.8650 N.2     1  UNL1       -0.2437
     36 N         -24.6481    1.8609   29.3413 N.3     1  UNL1       -0.1546
     37 C         -29.2720    1.0819   33.0326 C.2     1  UNL1        0.0046
     38 C         -22.4361    2.3509   25.9625 C.3     1  UNL1        0.1760
     39 N         -21.1518    0.8669   27.9867 N.3     1  UNL1       -0.0970
     40 C         -26.9227    3.7170   31.3544 C.2     1  UNL1        0.0389
     41 C         -28.4453    1.8368   31.9984 C.2     1  UNL1        0.0368
     42 C         -28.1959    2.4096   34.7948 C.2     1  UNL1        0.0988
     43 N         -23.6860   -0.3673   29.6481 N.3     1  UNL1       -0.1942
     44 O         -22.6614    2.5504   27.3556 O.3     1  UNL1       -0.3335
     45 C         -26.7277    3.1904   29.9365 C.2     1  UNL1        0.1177
@<TRIPOS>BOND
     1     1    43    1
     2     2     7    1
     3     2     1    1
     4     3     2    2
     5     4     3    1
     6     4     5    2
     7     5     6    1
     8     6     7    2
     9     8     1    1
    10     8     9    1
    11     8    12    1
    12     9    10    1
    13    10    11    1
    14    12    11    1
    15    14    13    1
    16    14    15    1
    17    15    18    1
    18    16    17    1
    19    16    15    2
    20    19    14    2
    21    20    21    2
    22    20    19    1
    23    21    26    1
    24    22    21    1
    25    23    22    1
    26    24    23    1
    27    24    25    1
    28    26    27    1
    29    26    13    2
    30    28    39    1
    31    28    31    1
    32    29    18    1
    33    29    36    1
    34    29    45    1
    35    30    45    2
    36    30    32    1
    37    31    36    1
    38    31    43    1
    39    32    41    2
    40    33    42    1
    41    34    35    1
    42    35    42    2
    43    37    33    2
    44    38    44    1
    45    40    34    2
    46    41    34    1
    47    41    37    1
    48    44    28    1
    49    45    40    1
