@<TRIPOS>MOLECULE
outputs/IAG933/test6/raw/output_7209_IAG933_linker_design_.xyz
 40 45 0 0 0
SMALL
GASTEIGER

@<TRIPOS>ATOM
      1 C         -24.8550   -1.0120   30.1430 C.3     1  UNL1        0.1524
      2 C         -24.9730   -2.5050   29.7880 C.2     1  UNL1        0.0005
      3 C         -23.9060   -3.1730   29.1460 C.2     1  UNL1       -0.0025
      4 C         -23.9890   -4.5490   28.8530 C.2     1  UNL1       -0.0003
      5 C         -25.1370   -5.2800   29.2050 C.2     1  UNL1       -0.0000
      6 C         -26.2320   -4.6110   29.7840 C.2     1  UNL1       -0.0003
      7 C         -26.1550   -3.2320   30.0650 C.2     1  UNL1       -0.0025
      8 C         -25.3870   -0.6790   31.5710 C.3     1  UNL1        0.0986
      9 C         -25.1890    0.7730   32.0280 C.3     1  UNL1        0.0210
     10 C         -25.3360    0.6840   33.5440 C.3     1  UNL1        0.0203
     11 C         -24.8290   -0.7150   33.9050 C.3     1  UNL1        0.0888
     12 N         -24.7580   -1.4810   32.6460 N.3     1  UNL1       -0.2173
     13 C         -25.6880    1.6140   26.4610 C.3     1  UNL1        0.2830
     14 C         -26.2500    2.9200   26.3950 C.2     1  UNL1        0.1032
     15 C         -25.6420    4.0930   27.1230 C.2     1  UNL1        0.2665
     16 N         -25.6140    5.2520   26.4490 N.am    1  UNL1       -0.1999
     17 C         -25.0260    6.4790   26.9630 C.3     1  UNL1        0.1388
     18 O         -25.1430    3.9660   28.2430 O.2     1  UNL1       -0.2685
     19 C         -27.4380    3.0910   25.6450 C.2     1  UNL1        0.1063
     20 N         -28.0750    2.0890   25.0030 N.2     1  UNL1       -0.2116
     21 C         -27.5430    0.8490   25.0790 C.2     1  UNL1        0.2387
     22 O         -28.1930   -0.2080   24.4770 O.2     1  UNL1       -0.4584
     23 C         -29.4600    0.0050   23.8660 C.3     1  UNL1        0.2423
     24 C         -30.0650   -1.3770   23.5730 C.3     1  UNL1        0.2292
     25 O         -30.7290   -1.8780   24.7210 O.3     1  UNL1       -0.2162
     26 C         -26.3540    0.5760   25.7770 C.3     1  UNL1        0.2883
     27 F         -25.8600   -0.6810   25.7950 F       1  UNL1       -0.2221
     28 O         -20.6578    1.4202   26.9372 O.2     1  UNL1       -0.4715
     29 C         -22.7626   -0.3009   29.8611 C.3     1  UNL1        0.1585
     30 C         -22.6857    0.8979   27.7820 C.2     1  UNL1        0.1208
     31 C         -22.3706    2.2605   25.7108 C.2     1  UNL1        0.2737
     32 C         -20.8231   -0.1812   28.5794 C.3     1  UNL1        0.0715
     33 N         -24.1352   -0.1720   29.4589 N.pl3   1  UNL1       -0.1330
     34 N         -24.7090    0.3456   28.4249 N.2     1  UNL1        0.0505
     35 C         -21.8426    1.5588   26.8171 C.2     1  UNL1        0.1878
     36 N         -24.3552    1.4762   26.4697 N.3     1  UNL1       -0.0435
     37 C         -23.9610    0.9146   27.5401 C.2     1  UNL1        0.3933
     38 O         -23.5968    1.9809   25.4217 O.2     1  UNL1       -0.2897
     39 C         -19.9216    0.1432   28.0269 C.3     1  UNL1        0.2099
     40 C         -22.1123    0.1592   28.7997 C.2     1  UNL1       -0.0067
@<TRIPOS>BOND
     1     1     2    1
     2     2     7    1
     3     3     2    2
     4     4     3    1
     5     4     5    2
     6     5     6    1
     7     6     7    2
     8     8     1    1
     9     8     9    1
    10     8    12    1
    11     9    10    1
    12    10    11    1
    13    12    11    1
    14    13    36    1
    15    14    13    1
    16    14    15    1
    17    15    18    2
    18    16    17    1
    19    16    15    1
    20    19    14    2
    21    20    21    2
    22    20    19    1
    23    21    26    1
    24    22    21    1
    25    23    22    1
    26    24    23    1
    27    24    25    1
    28    26    27    1
    29    26    13    1
    30    28    39    1
    31    30    40    2
    32    31    35    2
    33    32    40    1
    34    33    29    1
    35    33     1    1
    36    34    33    1
    37    35    28    1
    38    35    30    1
    39    36    37    1
    40    37    30    1
    41    37    34    2
    42    38    31    1
    43    38    36    1
    44    39    32    1
    45    40    29    1
