@<TRIPOS>MOLECULE
outputs/IAG933/test6/raw/output_7210_IAG933_linker_design_.xyz
 44 48 0 0 0
SMALL
GASTEIGER

@<TRIPOS>ATOM
      1 C         -24.8550   -1.0120   30.1430 C.3     1  UNL1        0.1153
      2 C         -24.9730   -2.5050   29.7880 C.2     1  UNL1       -0.0027
      3 C         -23.9060   -3.1730   29.1460 C.2     1  UNL1       -0.0026
      4 C         -23.9890   -4.5490   28.8530 C.2     1  UNL1       -0.0003
      5 C         -25.1370   -5.2800   29.2050 C.2     1  UNL1       -0.0000
      6 C         -26.2320   -4.6110   29.7840 C.2     1  UNL1       -0.0003
      7 C         -26.1550   -3.2320   30.0650 C.2     1  UNL1       -0.0026
      8 C         -25.3870   -0.6790   31.5710 C.3     1  UNL1        0.0954
      9 C         -25.1890    0.7730   32.0280 C.3     1  UNL1        0.0209
     10 C         -25.3360    0.6840   33.5440 C.3     1  UNL1        0.0203
     11 C         -24.8290   -0.7150   33.9050 C.3     1  UNL1        0.0888
     12 N         -24.7580   -1.4810   32.6460 N.3     1  UNL1       -0.2174
     13 C         -25.6880    1.6140   26.4610 C.2     1  UNL1        0.0527
     14 C         -26.2500    2.9200   26.3950 C.2     1  UNL1        0.0778
     15 C         -25.6420    4.0930   27.1230 C.2     1  UNL1        0.2665
     16 N         -25.6140    5.2520   26.4490 N.am    1  UNL1       -0.1997
     17 C         -25.0260    6.4790   26.9630 C.3     1  UNL1        0.1388
     18 O         -25.1430    3.9660   28.2430 O.2     1  UNL1       -0.2683
     19 C         -27.4380    3.0910   25.6450 C.2     1  UNL1        0.1068
     20 N         -28.0750    2.0890   25.0030 N.2     1  UNL1       -0.2081
     21 C         -27.5430    0.8490   25.0790 C.2     1  UNL1        0.2533
     22 O         -28.1930   -0.2080   24.4770 O.2     1  UNL1       -0.4558
     23 C         -29.4600    0.0050   23.8660 C.3     1  UNL1        0.2426
     24 C         -30.0650   -1.3770   23.5730 C.3     1  UNL1        0.2292
     25 O         -30.7290   -1.8780   24.7210 O.3     1  UNL1       -0.2162
     26 C         -26.3540    0.5760   25.7770 C.2     1  UNL1        0.1943
     27 F         -25.8600   -0.6810   25.7950 F       1  UNL1       -0.1992
     28 O         -28.4337    3.9225   32.2996 O.3     1  UNL1       -0.3534
     29 C         -28.4585    5.0979   31.4270 C.3     1  UNL1        0.1422
     30 C         -27.5548    2.5680   30.5719 C.3     1  UNL1        0.0530
     31 C         -27.4823    1.2751   29.7082 C.2     1  UNL1       -0.0079
     32 N         -22.2898   -0.0022   29.5525 N.3     1  UNL1       -0.1168
     33 C         -27.4410    4.9891   30.2890 C.3     1  UNL1        0.0325
     34 C         -23.0192    0.6732   28.5392 C.3     1  UNL1        0.2049
     35 C         -24.3808    0.6776   28.3294 C.2     1  UNL1        0.0693
     36 C         -22.3059    1.4400   27.5350 C.2     1  UNL1        0.2524
     37 C         -24.5591    1.3838   27.1457 C.2     1  UNL1        0.0678
     38 C         -28.6888    2.6488   31.6604 C.3     1  UNL1        0.1464
     39 N         -25.3565   -0.0905   29.1078 N.pl3   1  UNL1       -0.2832
     40 O         -21.1049    1.7566   27.5039 O.2     1  UNL1       -0.2726
     41 C         -27.6683    3.6817   29.5913 C.3     1  UNL1        0.0095
     42 C         -26.7888    0.1148   29.0572 C.2     1  UNL1        0.0609
     43 C         -22.8606    2.6226   25.5042 C.3     1  UNL1        0.1201
     44 N         -23.2520    1.8624   26.6815 N.am    1  UNL1       -0.2544
@<TRIPOS>BOND
     1     1    39    1
     2     2     7    1
     3     2     1    1
     4     3     2    2
     5     4     3    1
     6     4     5    2
     7     5     6    1
     8     6     7    2
     9     8     1    1
    10     8     9    1
    11     8    12    1
    12     9    10    1
    13    10    11    1
    14    12    11    1
    15    13    37    1
    16    14    13    1
    17    14    15    1
    18    15    18    2
    19    16    17    1
    20    16    15    1
    21    19    14    2
    22    20    21    2
    23    20    19    1
    24    21    26    1
    25    22    21    1
    26    23    22    1
    27    24    23    1
    28    24    25    1
    29    26    27    1
    30    26    13    2
    31    29    28    1
    32    30    31    1
    33    30    38    1
    34    33    29    1
    35    34    32    1
    36    35    34    1
    37    35    39    1
    38    36    34    1
    39    37    35    2
    40    38    28    1
    41    40    36    2
    42    41    33    1
    43    41    30    1
    44    42    39    1
    45    42    31    2
    46    43    44    1
    47    44    37    1
    48    44    36   am
