@<TRIPOS>MOLECULE
outputs/IAG933/test6/raw/output_7211_IAG933_linker_design_.xyz
 41 45 0 0 0
SMALL
GASTEIGER

@<TRIPOS>ATOM
      1 C         -24.8550   -1.0120   30.1430 C.3     1  UNL1        0.0974
      2 C         -24.9730   -2.5050   29.7880 C.2     1  UNL1       -0.0141
      3 C         -23.9060   -3.1730   29.1460 C.2     1  UNL1       -0.0038
      4 C         -23.9890   -4.5490   28.8530 C.2     1  UNL1       -0.0003
      5 C         -25.1370   -5.2800   29.2050 C.2     1  UNL1       -0.0000
      6 C         -26.2320   -4.6110   29.7840 C.2     1  UNL1       -0.0003
      7 C         -26.1550   -3.2320   30.0650 C.2     1  UNL1       -0.0038
      8 C         -25.3870   -0.6790   31.5710 C.3     1  UNL1        0.0838
      9 C         -25.1890    0.7730   32.0280 C.3     1  UNL1        0.0196
     10 C         -25.3360    0.6840   33.5440 C.3     1  UNL1        0.0203
     11 C         -24.8290   -0.7150   33.9050 C.3     1  UNL1        0.0887
     12 N         -24.7580   -1.4810   32.6460 N.3     1  UNL1       -0.2187
     13 C         -25.6880    1.6140   26.4610 C.2     1  UNL1        0.0867
     14 C         -26.2500    2.9200   26.3950 C.2     1  UNL1        0.0899
     15 C         -25.6420    4.0930   27.1230 C.2     1  UNL1        0.2676
     16 N         -25.6140    5.2520   26.4490 N.am    1  UNL1       -0.1997
     17 C         -25.0260    6.4790   26.9630 C.3     1  UNL1        0.1388
     18 O         -25.1430    3.9660   28.2430 O.2     1  UNL1       -0.2683
     19 C         -27.4380    3.0910   25.6450 C.2     1  UNL1        0.1080
     20 N         -28.0750    2.0890   25.0030 N.2     1  UNL1       -0.2080
     21 C         -27.5430    0.8490   25.0790 C.2     1  UNL1        0.2546
     22 O         -28.1930   -0.2080   24.4770 O.2     1  UNL1       -0.4558
     23 C         -29.4600    0.0050   23.8660 C.3     1  UNL1        0.2426
     24 C         -30.0650   -1.3770   23.5730 C.3     1  UNL1        0.2292
     25 O         -30.7290   -1.8780   24.7210 O.3     1  UNL1       -0.2162
     26 C         -26.3540    0.5760   25.7770 C.2     1  UNL1        0.2063
     27 F         -25.8600   -0.6810   25.7950 F       1  UNL1       -0.1979
     28 C         -22.8091    1.7297   29.2868 C.3     1  UNL1        0.1826
     29 O         -20.7960    1.4552   27.8772 O.3     1  UNL1       -0.3519
     30 C         -22.1830    2.1302   27.9177 C.3     1  UNL1        0.1660
     31 C         -23.1209    0.3582   28.7452 C.3     1  UNL1        0.0607
     32 C         -23.4838    2.2402   26.9867 C.3     1  UNL1        0.1360
     33 C         -20.7009    0.0774   28.4723 C.3     1  UNL1        0.1424
     34 C         -21.9363   -0.3683   29.0493 C.3     1  UNL1        0.0368
     35 O         -26.5133   -0.4050   28.5333 O.2     1  UNL1       -0.2939
     36 C         -25.4242   -0.2574   28.9576 C.2     1  UNL1        0.1735
     37 N         -24.6027    1.2763   27.0989 N.pl3   1  UNL1       -0.2976
     38 O         -21.8010    2.0068   25.4115 O.3     1  UNL1       -0.2185
     39 C         -23.1090    2.3402   25.4944 C.3     1  UNL1        0.2042
     40 O         -23.8634    2.2588   29.8293 O.3     1  UNL1       -0.2204
     41 C         -24.2789    0.2627   28.1097 C.3     1  UNL1        0.1337
@<TRIPOS>BOND
     1     1    36    1
     2     2     7    1
     3     2     1    1
     4     3     2    2
     5     4     3    1
     6     4     5    2
     7     5     6    1
     8     6     7    2
     9     8     1    1
    10     8     9    1
    11     8    12    1
    12     9    10    1
    13    10    11    1
    14    12    11    1
    15    13    37    1
    16    14    13    1
    17    14    15    1
    18    15    18    2
    19    16    17    1
    20    16    15    1
    21    19    14    2
    22    20    21    2
    23    20    19    1
    24    21    26    1
    25    22    21    1
    26    23    22    1
    27    24    23    1
    28    24    25    1
    29    26    27    1
    30    26    13    2
    31    28    40    1
    32    29    33    1
    33    30    29    1
    34    30    28    1
    35    31    34    1
    36    31    28    1
    37    32    39    1
    38    32    37    1
    39    32    30    1
    40    33    34    1
    41    35    36    2
    42    37    41    1
    43    38    39    1
    44    41    31    1
    45    41    36    1
