@<TRIPOS>MOLECULE
outputs/IAG933/test6/raw/output_7215_IAG933_linker_design_.xyz
 40 43 0 0 0
SMALL
GASTEIGER

@<TRIPOS>ATOM
      1 C         -24.8550   -1.0120   30.1430 C.3     1  UNL1        0.0761
      2 C         -24.9730   -2.5050   29.7880 C.2     1  UNL1       -0.0158
      3 C         -23.9060   -3.1730   29.1460 C.2     1  UNL1       -0.0039
      4 C         -23.9890   -4.5490   28.8530 C.2     1  UNL1       -0.0003
      5 C         -25.1370   -5.2800   29.2050 C.2     1  UNL1       -0.0000
      6 C         -26.2320   -4.6110   29.7840 C.2     1  UNL1       -0.0003
      7 C         -26.1550   -3.2320   30.0650 C.2     1  UNL1       -0.0039
      8 C         -25.3870   -0.6790   31.5710 C.3     1  UNL1        0.0821
      9 C         -25.1890    0.7730   32.0280 C.3     1  UNL1        0.0196
     10 C         -25.3360    0.6840   33.5440 C.3     1  UNL1        0.0203
     11 C         -24.8290   -0.7150   33.9050 C.3     1  UNL1        0.0887
     12 N         -24.7580   -1.4810   32.6460 N.3     1  UNL1       -0.2188
     13 C         -25.6880    1.6140   26.4610 C.2     1  UNL1        0.0172
     14 C         -26.2500    2.9200   26.3950 C.2     1  UNL1        0.0726
     15 C         -25.6420    4.0930   27.1230 C.2     1  UNL1        0.2661
     16 N         -25.6140    5.2520   26.4490 N.am    1  UNL1       -0.1997
     17 C         -25.0260    6.4790   26.9630 C.3     1  UNL1        0.1388
     18 O         -25.1430    3.9660   28.2430 O.2     1  UNL1       -0.2683
     19 C         -27.4380    3.0910   25.6450 C.2     1  UNL1        0.1064
     20 N         -28.0750    2.0890   25.0030 N.2     1  UNL1       -0.2081
     21 C         -27.5430    0.8490   25.0790 C.2     1  UNL1        0.2530
     22 O         -28.1930   -0.2080   24.4770 O.2     1  UNL1       -0.4558
     23 C         -29.4600    0.0050   23.8660 C.3     1  UNL1        0.2426
     24 C         -30.0650   -1.3770   23.5730 C.3     1  UNL1        0.2292
     25 O         -30.7290   -1.8780   24.7210 O.3     1  UNL1       -0.2162
     26 C         -26.3540    0.5760   25.7770 C.2     1  UNL1        0.1892
     27 F         -25.8600   -0.6810   25.7950 F       1  UNL1       -0.1996
     28 C         -22.6575    0.7916   29.0964 C.3     1  UNL1        0.1932
     29 C         -25.9518   -0.3309   28.7398 C.2     1  UNL1        0.0638
     30 O         -23.0594    2.7580   31.0093 O.2     1  UNL1       -0.2882
     31 C         -23.9743    1.1951   29.5995 C.3     1  UNL1        0.1036
     32 O         -21.9633   -0.0382   29.7990 O.3     1  UNL1       -0.2197
     33 C         -24.6628    1.3692   27.2366 C.3     1  UNL1        0.0485
     34 C         -24.8537    0.7932   28.4674 C.3     1  UNL1        0.0536
     35 C         -23.9555    2.3914   30.1871 C.2     1  UNL1        0.2100
     36 CL        -22.9824    2.4349   25.4495 Cl      1  UNL1       -0.1117
     37 C         -22.3430    1.1854   27.6764 C.3     1  UNL1        0.2067
     38 N         -27.1894   -0.7449   28.9850 N.2     1  UNL1       -0.1570
     39 F         -21.0754    1.9150   27.6213 F       1  UNL1       -0.2332
     40 C         -23.4707    1.7469   26.9491 C.3     1  UNL1        0.1194
@<TRIPOS>BOND
     1     1    29    1
     2     2     7    1
     3     2     1    1
     4     3     2    2
     5     4     3    1
     6     4     5    2
     7     5     6    1
     8     6     7    2
     9     8     1    1
    10     8     9    1
    11     8    12    1
    12     9    10    1
    13    10    11    1
    14    12    11    1
    15    14    13    1
    16    14    15    1
    17    15    18    2
    18    16    17    1
    19    16    15    1
    20    19    14    2
    21    20    21    2
    22    20    19    1
    23    21    26    1
    24    22    21    1
    25    23    22    1
    26    24    23    1
    27    24    25    1
    28    26    27    1
    29    26    13    2
    30    28    31    1
    31    28    32    1
    32    29    38    2
    33    31    35    1
    34    33    13    1
    35    33    34    1
    36    34    29    1
    37    34    31    1
    38    35    30    2
    39    37    39    1
    40    37    28    1
    41    40    36    1
    42    40    33    1
    43    40    37    1
