@<TRIPOS>MOLECULE
outputs/IAG933/test6/raw/output_7217_IAG933_linker_design_.xyz
 49 53 0 0 0
SMALL
GASTEIGER

@<TRIPOS>ATOM
      1 C         -24.8550   -1.0120   30.1430 C.3     1  UNL1        0.0383
      2 C         -24.9730   -2.5050   29.7880 C.2     1  UNL1       -0.0212
      3 C         -23.9060   -3.1730   29.1460 C.2     1  UNL1       -0.0042
      4 C         -23.9890   -4.5490   28.8530 C.2     1  UNL1       -0.0003
      5 C         -25.1370   -5.2800   29.2050 C.2     1  UNL1       -0.0000
      6 C         -26.2320   -4.6110   29.7840 C.2     1  UNL1       -0.0003
      7 C         -26.1550   -3.2320   30.0650 C.2     1  UNL1       -0.0042
      8 C         -25.3870   -0.6790   31.5710 C.3     1  UNL1        0.0768
      9 C         -25.1890    0.7730   32.0280 C.3     1  UNL1        0.0192
     10 C         -25.3360    0.6840   33.5440 C.3     1  UNL1        0.0202
     11 C         -24.8290   -0.7150   33.9050 C.3     1  UNL1        0.0887
     12 N         -24.7580   -1.4810   32.6460 N.3     1  UNL1       -0.2191
     13 C         -25.6880    1.6140   26.4610 C.3     1  UNL1        0.0702
     14 C         -26.2500    2.9200   26.3950 C.2     1  UNL1        0.0548
     15 C         -25.6420    4.0930   27.1230 C.2     1  UNL1        0.2624
     16 N         -25.6140    5.2520   26.4490 N.am    1  UNL1       -0.2000
     17 C         -25.0260    6.4790   26.9630 C.3     1  UNL1        0.1388
     18 O         -25.1430    3.9660   28.2430 O.2     1  UNL1       -0.2687
     19 C         -27.4380    3.0910   25.6450 C.2     1  UNL1        0.1021
     20 N         -28.0750    2.0890   25.0030 N.2     1  UNL1       -0.2119
     21 C         -27.5430    0.8490   25.0790 C.2     1  UNL1        0.2341
     22 O         -28.1930   -0.2080   24.4770 O.2     1  UNL1       -0.4585
     23 C         -29.4600    0.0050   23.8660 C.3     1  UNL1        0.2423
     24 C         -30.0650   -1.3770   23.5730 C.3     1  UNL1        0.2292
     25 O         -30.7290   -1.8780   24.7210 O.3     1  UNL1       -0.2162
     26 C         -26.3540    0.5760   25.7770 C.3     1  UNL1        0.2400
     27 F         -25.8600   -0.6810   25.7950 F       1  UNL1       -0.2269
     28 C         -23.7187    1.0147   27.9416 C.3     1  UNL1        0.0057
     29 C         -30.1474    2.4497   28.7307 C.3     1  UNL1        0.1376
     30 C         -31.0680    5.8625   28.5348 C.3     1  UNL1        0.0173
     31 C         -30.1509    1.1685   28.2272 C.2     1  UNL1        0.1667
     32 C         -22.5860    1.5614   27.7463 C.3     1  UNL1        0.0646
     33 C         -29.2645    5.8925   26.5332 C.3     1  UNL1        0.0015
     34 C         -29.7530    4.6736   25.7185 C.3     1  UNL1        0.0173
     35 C         -21.9813    2.0725   26.3471 C.3     1  UNL1        0.0056
     36 C         -28.0502   -0.2675   28.2659 C.3     1  UNL1        0.0078
     37 C         -30.4835    4.6668   28.8982 C.3     1  UNL1        0.0725
     38 C         -21.6406    0.5990   28.4149 C.3     1  UNL1        0.3095
     39 N         -30.4950    3.5577   28.0561 N.3     1  UNL1       -0.2665
     40 C         -24.8801    1.2020   27.5660 C.3     1  UNL1        0.0076
     41 C         -30.3622    6.3512   27.4327 C.3     1  UNL1        0.0015
     42 F         -20.3835    0.7763   28.0458 F       1  UNL1       -0.2011
     43 C         -25.7602   -0.1949   29.1923 C.3     1  UNL1        0.0054
     44 C         -27.1852    0.2669   29.2007 C.3     1  UNL1        0.0008
     45 O         -31.1914    0.5164   28.3269 O.2     1  UNL1       -0.2946
     46 C         -24.9399    1.0330   28.7729 C.3     1  UNL1        0.0010
     47 C         -30.4573    3.6152   26.6486 C.3     1  UNL1        0.0725
     48 O         -21.9978   -0.2313   29.3356 O.3     1  UNL1       -0.1843
     49 C         -29.1020    0.4287   27.6185 C.3     1  UNL1        0.0660
@<TRIPOS>BOND
     1     1    43    1
     2     2     7    1
     3     2     1    1
     4     3     2    2
     5     4     3    1
     6     4     5    2
     7     5     6    1
     8     6     7    2
     9     8     1    1
    10     8     9    1
    11     8    12    1
    12     9    10    1
    13    10    11    1
    14    12    11    1
    15    13    14    1
    16    14    15    1
    17    15    18    2
    18    16    17    1
    19    16    15    1
    20    19    14    2
    21    20    21    2
    22    20    19    1
    23    21    26    1
    24    22    21    1
    25    23    22    1
    26    24    23    1
    27    24    25    1
    28    26    27    1
    29    26    13    1
    30    28    32    1
    31    28    46    1
    32    30    37    1
    33    31    45    2
    34    31    29    1
    35    32    35    1
    36    32    38    1
    37    33    41    1
    38    34    33    1
    39    34    47    1
    40    36    44    1
    41    38    42    1
    42    38    48    1
    43    39    29    1
    44    39    37    1
    45    40    13    1
    46    40    28    1
    47    40    46    1
    48    41    30    1
    49    43    44    1
    50    46    43    1
    51    47    39    1
    52    49    31    1
    53    49    36    1
