@<TRIPOS>MOLECULE
outputs/IAG933/test6/raw/output_7219_IAG933_linker_design_.xyz
 40 43 0 0 0
SMALL
GASTEIGER

@<TRIPOS>ATOM
      1 C         -24.8550   -1.0120   30.1430 C.3     1  UNL1        0.0589
      2 C         -24.9730   -2.5050   29.7880 C.2     1  UNL1       -0.0195
      3 C         -23.9060   -3.1730   29.1460 C.2     1  UNL1       -0.0042
      4 C         -23.9890   -4.5490   28.8530 C.2     1  UNL1       -0.0003
      5 C         -25.1370   -5.2800   29.2050 C.2     1  UNL1       -0.0000
      6 C         -26.2320   -4.6110   29.7840 C.2     1  UNL1       -0.0003
      7 C         -26.1550   -3.2320   30.0650 C.2     1  UNL1       -0.0042
      8 C         -25.3870   -0.6790   31.5710 C.3     1  UNL1        0.0785
      9 C         -25.1890    0.7730   32.0280 C.3     1  UNL1        0.0192
     10 C         -25.3360    0.6840   33.5440 C.3     1  UNL1        0.0202
     11 C         -24.8290   -0.7150   33.9050 C.3     1  UNL1        0.0887
     12 N         -24.7580   -1.4810   32.6460 N.3     1  UNL1       -0.2191
     13 C         -25.6880    1.6140   26.4610 C.2     1  UNL1        0.0354
     14 C         -26.2500    2.9200   26.3950 C.2     1  UNL1        0.0763
     15 C         -25.6420    4.0930   27.1230 C.2     1  UNL1        0.2664
     16 N         -25.6140    5.2520   26.4490 N.am    1  UNL1       -0.1997
     17 C         -25.0260    6.4790   26.9630 C.3     1  UNL1        0.1388
     18 O         -25.1430    3.9660   28.2430 O.2     1  UNL1       -0.2683
     19 C         -27.4380    3.0910   25.6450 C.2     1  UNL1        0.1067
     20 N         -28.0750    2.0890   25.0030 N.2     1  UNL1       -0.2081
     21 C         -27.5430    0.8490   25.0790 C.2     1  UNL1        0.2533
     22 O         -28.1930   -0.2080   24.4770 O.2     1  UNL1       -0.4558
     23 C         -29.4600    0.0050   23.8660 C.3     1  UNL1        0.2426
     24 C         -30.0650   -1.3770   23.5730 C.3     1  UNL1        0.2292
     25 O         -30.7290   -1.8780   24.7210 O.3     1  UNL1       -0.2162
     26 C         -26.3540    0.5760   25.7770 C.2     1  UNL1        0.1928
     27 F         -25.8600   -0.6810   25.7950 F       1  UNL1       -0.1992
     28 N         -26.7115    0.8824   29.2931 N.am    1  UNL1       -0.2039
     29 C         -24.4878    1.2125   27.1223 C.2     1  UNL1       -0.0014
     30 C         -25.6140   -0.0613   29.1487 C.3     1  UNL1        0.1088
     31 C         -23.1316    0.6573   28.8827 C.2     1  UNL1        0.0102
     32 C         -28.8635    1.8120   29.2848 C.3     1  UNL1        0.2680
     33 C         -23.1891    1.6555   26.8088 C.2     1  UNL1        0.0812
     34 F         -21.0428    1.8219   27.9292 F       1  UNL1       -0.2036
     35 O         -28.3536   -0.3328   28.2924 O.2     1  UNL1       -0.2705
     36 C         -24.4777    0.5904   28.3553 C.3     1  UNL1        0.0678
     37 C         -22.3572    1.3897   27.8809 C.2     1  UNL1        0.1464
     38 O         -28.1580    2.9651   29.6996 O.3     1  UNL1       -0.2098
     39 CL        -22.6312    2.3888   25.3687 Cl      1  UNL1       -0.0802
     40 C         -27.9272    0.6220   28.8681 C.2     1  UNL1        0.2750
@<TRIPOS>BOND
     1     1    30    1
     2     2     7    1
     3     2     1    1
     4     3     2    2
     5     4     3    1
     6     4     5    2
     7     5     6    1
     8     6     7    2
     9     8     1    1
    10     8     9    1
    11     8    12    1
    12     9    10    1
    13    10    11    1
    14    12    11    1
    15    13    29    1
    16    14    13    1
    17    14    15    1
    18    15    18    2
    19    16    17    1
    20    16    15    1
    21    19    14    2
    22    20    21    2
    23    20    19    1
    24    21    26    1
    25    22    21    1
    26    23    22    1
    27    24    23    1
    28    24    25    1
    29    26    27    1
    30    26    13    2
    31    29    36    1
    32    30    28    1
    33    32    38    1
    34    33    29    2
    35    33    37    1
    36    35    40    2
    37    36    31    1
    38    36    30    1
    39    37    34    1
    40    37    31    2
    41    39    33    1
    42    40    32    1
    43    40    28    1
