@<TRIPOS>MOLECULE
No_722-gen_results/8p0m/2024-11-27-11-27-31/
 35 38 0 0 0
SMALL
GASTEIGER

@<TRIPOS>ATOM
      1 C         -28.0162   -0.8135   28.8779 C.3     1  UNL1        0.1156
      2 C         -27.0636   -0.1189   28.6079 C.ar    1  UNL1       -0.0074
      3 C         -27.0010    0.6913   27.4910 C.ar    1  UNL1       -0.0029
      4 C         -25.8548    1.4825   27.0830 C.ar    1  UNL1        0.0036
      5 C         -24.6901    1.4526   27.8807 C.ar    1  UNL1        0.0711
      6 C         -24.7379    0.6010   29.0416 C.ar    1  UNL1        0.0007
      7 C         -25.8234   -0.1688   29.3887 C.ar    1  UNL1       -0.0088
      8 N         -29.2075   -0.1514   29.0660 N.3     1  UNL1       -0.2012
      9 C         -30.2318   -0.7607   29.6957 C.3     1  UNL1        0.1722
     10 C         -23.5223    2.2141   27.5499 C.3     1  UNL1        0.4186
     11 F         -23.5993    2.9491   26.6311 F       1  UNL1       -0.1659
     12 F         -22.4382    1.3399   27.2164 F       1  UNL1       -0.1659
     13 F         -23.0925    2.9246   28.6211 F       1  UNL1       -0.1659
     14 C         -31.5259   -0.5140   29.3153 C.ar    1  UNL1        0.0066
     15 C         -30.0068   -1.6738   30.8131 C.2     1  UNL1        0.2517
     16 O         -28.8468   -1.8567   31.2594 O.2     1  UNL1       -0.2726
     17 N         -31.0454   -1.9774   31.5699 N.am    1  UNL1       -0.2232
     18 C         -31.7519    0.3070   28.2057 C.ar    1  UNL1       -0.0023
     19 C         -32.8875    0.5111   27.6626 C.ar    1  UNL1       -0.0003
     20 C         -33.9565   -0.1795   28.1905 C.ar    1  UNL1        0.0001
     21 C         -33.8193   -1.0594   29.2556 C.ar    1  UNL1        0.0043
     22 C         -32.5817   -1.2446   29.7848 C.ar    1  UNL1        0.0518
     23 C         -30.7589   -2.7733   32.6921 C.3     1  UNL1        0.1232
     24 C         -32.3363   -1.8633   30.9918 C.2     1  UNL1        0.2546
     25 O         -33.3201   -2.4359   31.5951 O.2     1  UNL1       -0.2695
     26 C         -25.7284   -0.9624   30.5905 C.3     1  UNL1        0.0989
     27 N         -24.5371   -1.1457   31.0802 N.3     1  UNL1       -0.2665
     28 C         -24.0071   -0.6579   32.2761 C.3     1  UNL1        0.0899
     29 C         -23.6309   -1.8705   30.4406 C.3     1  UNL1        0.0899
     30 C         -28.1107    0.7988   26.5239 C.ar    1  UNL1       -0.0003
     31 C         -28.0117    1.0686   25.2847 C.ar    1  UNL1       -0.0000
     32 C         -29.0593    1.0300   24.3517 C.ar    1  UNL1       -0.0000
     33 C         -30.2288    1.3577   24.8252 C.ar    1  UNL1       -0.0000
     34 C         -30.4582    1.3016   26.2607 C.ar    1  UNL1       -0.0000
     35 C         -29.3693    1.1744   27.1279 C.ar    1  UNL1       -0.0000
@<TRIPOS>BOND
     1     1     2    1
     2     1     8    1
     3     8     9    1
     4     5    10    1
     5    10    11    1
     6    10    12    1
     7    10    13    1
     8     9    15    1
     9    15    16    2
    10    15    17   am
    11    17    23    1
    12    17    24   am
    13    22    24    1
    14    24    25    2
    15     7    26    1
    16    26    27    1
    17    27    28    1
    18    27    29    1
    19     3    30    1
    20     9    14    1
    21     2     3   ar
    22     3     4   ar
    23     4     5   ar
    24     5     6   ar
    25     6     7   ar
    26     7     2   ar
    27    30    31   ar
    28    31    32   ar
    29    32    33   ar
    30    33    34   ar
    31    34    35   ar
    32    35    30   ar
    33    14    18   ar
    34    18    19   ar
    35    19    20   ar
    36    20    21   ar
    37    21    22   ar
    38    22    14   ar
