@<TRIPOS>MOLECULE
outputs/IAG933/test6/raw/output_7220_IAG933_linker_design_.xyz
 42 46 0 0 0
SMALL
GASTEIGER

@<TRIPOS>ATOM
      1 C         -24.8550   -1.0120   30.1430 C.3     1  UNL1        0.0587
      2 C         -24.9730   -2.5050   29.7880 C.2     1  UNL1       -0.0195
      3 C         -23.9060   -3.1730   29.1460 C.2     1  UNL1       -0.0042
      4 C         -23.9890   -4.5490   28.8530 C.2     1  UNL1       -0.0003
      5 C         -25.1370   -5.2800   29.2050 C.2     1  UNL1       -0.0000
      6 C         -26.2320   -4.6110   29.7840 C.2     1  UNL1       -0.0003
      7 C         -26.1550   -3.2320   30.0650 C.2     1  UNL1       -0.0042
      8 C         -25.3870   -0.6790   31.5710 C.3     1  UNL1        0.0785
      9 C         -25.1890    0.7730   32.0280 C.3     1  UNL1        0.0192
     10 C         -25.3360    0.6840   33.5440 C.3     1  UNL1        0.0202
     11 C         -24.8290   -0.7150   33.9050 C.3     1  UNL1        0.0887
     12 N         -24.7580   -1.4810   32.6460 N.3     1  UNL1       -0.2191
     13 C         -25.6880    1.6140   26.4610 C.2     1  UNL1        0.0373
     14 C         -26.2500    2.9200   26.3950 C.2     1  UNL1        0.0763
     15 C         -25.6420    4.0930   27.1230 C.2     1  UNL1        0.2664
     16 N         -25.6140    5.2520   26.4490 N.am    1  UNL1       -0.1997
     17 C         -25.0260    6.4790   26.9630 C.3     1  UNL1        0.1388
     18 O         -25.1430    3.9660   28.2430 O.2     1  UNL1       -0.2683
     19 C         -27.4380    3.0910   25.6450 C.2     1  UNL1        0.1067
     20 N         -28.0750    2.0890   25.0030 N.2     1  UNL1       -0.2081
     21 C         -27.5430    0.8490   25.0790 C.2     1  UNL1        0.2533
     22 O         -28.1930   -0.2080   24.4770 O.2     1  UNL1       -0.4558
     23 C         -29.4600    0.0050   23.8660 C.3     1  UNL1        0.2426
     24 C         -30.0650   -1.3770   23.5730 C.3     1  UNL1        0.2292
     25 O         -30.7290   -1.8780   24.7210 O.3     1  UNL1       -0.2162
     26 C         -26.3540    0.5760   25.7770 C.2     1  UNL1        0.1928
     27 F         -25.8600   -0.6810   25.7950 F       1  UNL1       -0.1992
     28 C         -21.5976    1.9662   25.6946 C.3     1  UNL1        0.5304
     29 F         -20.8940    1.9712   24.5651 F       1  UNL1       -0.1471
     30 O         -21.0067    1.6653   26.9138 O.2     1  UNL1       -0.3972
     31 C         -28.7436    0.6151   30.2877 C.3     1  UNL1        0.0964
     32 C         -24.5082    1.3263   27.3043 C.2     1  UNL1        0.0225
     33 C         -23.2533    1.6288   26.8894 C.2     1  UNL1        0.1939
     34 N         -22.1432    1.0397   29.0556 N.2     1  UNL1       -0.2347
     35 O         -22.8972    1.9519   25.5616 O.2     1  UNL1       -0.4124
     36 N         -26.9648   -0.0232   28.7683 N.am    1  UNL1       -0.2064
     37 C         -28.2562   -0.1171   29.0405 C.2     1  UNL1        0.2418
     38 C         -24.5370    0.6674   28.6000 C.3     1  UNL1        0.0703
     39 O         -29.0239   -0.6601   28.3099 O.2     1  UNL1       -0.2733
     40 C         -23.4036    0.7411   29.4152 C.3     1  UNL1        0.1349
     41 C         -22.0924    1.4543   27.7088 C.2     1  UNL1        0.2603
     42 C         -25.6503   -0.1971   29.1217 C.3     1  UNL1        0.1066
@<TRIPOS>BOND
     1     1    42    1
     2     2     7    1
     3     2     1    1
     4     3     2    2
     5     4     3    1
     6     4     5    2
     7     5     6    1
     8     6     7    2
     9     8     1    1
    10     8     9    1
    11     8    12    1
    12     9    10    1
    13    10    11    1
    14    12    11    1
    15    13    32    1
    16    14    13    1
    17    14    15    1
    18    15    18    2
    19    16    17    1
    20    16    15    1
    21    19    14    2
    22    20    21    2
    23    20    19    1
    24    21    26    1
    25    22    21    1
    26    23    22    1
    27    24    23    1
    28    24    25    1
    29    26    27    1
    30    26    13    2
    31    28    29    1
    32    28    30    1
    33    30    41    1
    34    32    38    1
    35    33    32    2
    36    33    41    1
    37    34    40    1
    38    35    28    1
    39    35    33    1
    40    36    37    1
    41    37    31    1
    42    38    42    1
    43    38    40    1
    44    39    37    2
    45    41    34    2
    46    42    36    1
