@<TRIPOS>MOLECULE
outputs/IAG933/test6/raw/output_7221_IAG933_linker_design_.xyz
 45 47 0 0 0
SMALL
GASTEIGER

@<TRIPOS>ATOM
      1 C         -24.8550   -1.0120   30.1430 C.3     1  UNL1        0.0981
      2 C         -24.9730   -2.5050   29.7880 C.2     1  UNL1       -0.0064
      3 C         -23.9060   -3.1730   29.1460 C.2     1  UNL1       -0.0029
      4 C         -23.9890   -4.5490   28.8530 C.2     1  UNL1       -0.0003
      5 C         -25.1370   -5.2800   29.2050 C.2     1  UNL1       -0.0000
      6 C         -26.2320   -4.6110   29.7840 C.2     1  UNL1       -0.0003
      7 C         -26.1550   -3.2320   30.0650 C.2     1  UNL1       -0.0029
      8 C         -25.3870   -0.6790   31.5710 C.3     1  UNL1        0.0916
      9 C         -25.1890    0.7730   32.0280 C.3     1  UNL1        0.0206
     10 C         -25.3360    0.6840   33.5440 C.3     1  UNL1        0.0203
     11 C         -24.8290   -0.7150   33.9050 C.3     1  UNL1        0.0888
     12 N         -24.7580   -1.4810   32.6460 N.3     1  UNL1       -0.2178
     13 C         -25.6880    1.6140   26.4610 C.2     1  UNL1        0.0170
     14 C         -26.2500    2.9200   26.3950 C.2     1  UNL1        0.0726
     15 C         -25.6420    4.0930   27.1230 C.2     1  UNL1        0.2661
     16 N         -25.6140    5.2520   26.4490 N.am    1  UNL1       -0.1997
     17 C         -25.0260    6.4790   26.9630 C.3     1  UNL1        0.1388
     18 O         -25.1430    3.9660   28.2430 O.2     1  UNL1       -0.2683
     19 C         -27.4380    3.0910   25.6450 C.2     1  UNL1        0.1064
     20 N         -28.0750    2.0890   25.0030 N.2     1  UNL1       -0.2081
     21 C         -27.5430    0.8490   25.0790 C.2     1  UNL1        0.2530
     22 O         -28.1930   -0.2080   24.4770 O.2     1  UNL1       -0.4558
     23 C         -29.4600    0.0050   23.8660 C.3     1  UNL1        0.2426
     24 C         -30.0650   -1.3770   23.5730 C.3     1  UNL1        0.2292
     25 O         -30.7290   -1.8780   24.7210 O.3     1  UNL1       -0.2162
     26 C         -26.3540    0.5760   25.7770 C.2     1  UNL1        0.1891
     27 F         -25.8600   -0.6810   25.7950 F       1  UNL1       -0.1996
     28 C         -22.3339    0.3787   29.1303 C.3     1  UNL1        0.0321
     29 N         -27.5932    5.4570   31.9615 N.am    1  UNL1       -0.2777
     30 N         -25.6126   -0.1081   29.2149 N.3     1  UNL1       -0.2435
     31 C         -28.0456    2.1008   30.7729 C.3     1  UNL1        0.1457
     32 C         -20.3470    1.2585   27.9674 C.3     1  UNL1        0.1740
     33 C         -26.2113    5.8186   32.0797 C.2     1  UNL1        0.2262
     34 C         -28.7350    6.0050   32.7216 C.3     1  UNL1        0.1148
     35 C         -27.9818    4.7104   30.8025 C.3     1  UNL1        0.0960
     36 O         -25.4853    5.5325   32.9925 O.2     1  UNL1       -0.2749
     37 O         -21.2808    2.2820   27.7921 O.3     1  UNL1       -0.3536
     38 C         -23.3929    1.8525   27.0295 C.3     1  UNL1        0.0354
     39 C         -25.7157    6.6424   30.9077 C.3     1  UNL1        0.0948
     40 C         -24.6848    1.3012   27.2621 C.3     1  UNL1        0.0434
     41 C         -27.0950    0.2529   29.1694 C.3     1  UNL1        0.2202
     42 O         -27.6161    1.5047   29.5653 O.3     1  UNL1       -0.3373
     43 C         -27.2414    3.4028   31.0589 C.3     1  UNL1        0.0536
     44 C         -22.4706    1.6686   28.2436 C.3     1  UNL1        0.1158
     45 C         -24.9028    0.4097   28.2831 C.3     1  UNL1        0.0791
@<TRIPOS>BOND
     1     1    30    1
     2     2     7    1
     3     2     1    1
     4     3     2    2
     5     4     3    1
     6     4     5    2
     7     5     6    1
     8     6     7    2
     9     8     1    1
    10     8     9    1
    11     8    12    1
    12     9    10    1
    13    10    11    1
    14    12    11    1
    15    13    40    1
    16    14    13    1
    17    14    15    1
    18    15    18    2
    19    16    17    1
    20    16    15    1
    21    19    14    2
    22    20    21    2
    23    20    19    1
    24    21    26    1
    25    22    21    1
    26    23    22    1
    27    24    23    1
    28    24    25    1
    29    26    27    1
    30    26    13    2
    31    29    33   am
    32    29    34    1
    33    31    43    1
    34    33    36    2
    35    35    43    1
    36    35    29    1
    37    37    32    1
    38    37    44    1
    39    38    44    1
    40    39    33    1
    41    40    38    1
    42    40    45    1
    43    41    30    1
    44    41    42    1
    45    42    31    1
    46    44    28    1
    47    45    30    1
