@<TRIPOS>MOLECULE
outputs/IAG933/test6/raw/output_723_IAG933_linker_design_.xyz
 44 48 0 0 0
SMALL
GASTEIGER

@<TRIPOS>ATOM
      1 C         -24.8550   -1.0120   30.1430 C.3     1  UNL1        0.0451
      2 C         -24.9730   -2.5050   29.7880 C.2     1  UNL1       -0.0207
      3 C         -23.9060   -3.1730   29.1460 C.2     1  UNL1       -0.0042
      4 C         -23.9890   -4.5490   28.8530 C.2     1  UNL1       -0.0003
      5 C         -25.1370   -5.2800   29.2050 C.2     1  UNL1       -0.0000
      6 C         -26.2320   -4.6110   29.7840 C.2     1  UNL1       -0.0003
      7 C         -26.1550   -3.2320   30.0650 C.2     1  UNL1       -0.0042
      8 C         -25.3870   -0.6790   31.5710 C.3     1  UNL1        0.0917
      9 C         -25.1890    0.7730   32.0280 C.3     1  UNL1        0.0758
     10 C         -25.3360    0.6840   33.5440 C.3     1  UNL1        0.0362
     11 C         -24.8290   -0.7150   33.9050 C.3     1  UNL1        0.0901
     12 N         -24.7580   -1.4810   32.6460 N.3     1  UNL1       -0.2177
     13 C         -25.6880    1.6140   26.4610 C.2     1  UNL1        0.0400
     14 C         -26.2500    2.9200   26.3950 C.2     1  UNL1        0.0764
     15 C         -25.6420    4.0930   27.1230 C.2     1  UNL1        0.2664
     16 N         -25.6140    5.2520   26.4490 N.am    1  UNL1       -0.1997
     17 C         -25.0260    6.4790   26.9630 C.3     1  UNL1        0.1388
     18 O         -25.1430    3.9660   28.2430 O.2     1  UNL1       -0.2683
     19 C         -27.4380    3.0910   25.6450 C.2     1  UNL1        0.1067
     20 N         -28.0750    2.0890   25.0030 N.2     1  UNL1       -0.2081
     21 C         -27.5430    0.8490   25.0790 C.2     1  UNL1        0.2533
     22 O         -28.1930   -0.2080   24.4770 O.2     1  UNL1       -0.4558
     23 C         -29.4600    0.0050   23.8660 C.3     1  UNL1        0.2426
     24 C         -30.0650   -1.3770   23.5730 C.3     1  UNL1        0.2292
     25 O         -30.7290   -1.8780   24.7210 O.3     1  UNL1       -0.2162
     26 C         -26.3540    0.5760   25.7770 C.2     1  UNL1        0.1929
     27 F         -25.8600   -0.6810   25.7950 F       1  UNL1       -0.1992
     28 F         -22.4486   -0.1445   29.8470 F       1  UNL1       -0.2012
     29 C         -27.5328    1.0811   29.0340 C.3     1  UNL1        0.1982
     30 N         -25.8423    1.5564   30.9961 N.3     1  UNL1       -0.2618
     31 C         -25.2085   -0.0249   28.9705 C.3     1  UNL1        0.0472
     32 C         -26.1206    1.0619   29.6207 C.3     1  UNL1        0.0955
     33 C         -24.0729    0.6702   28.2294 C.2     1  UNL1        0.0121
     34 O         -21.7053    1.8040   26.8632 O.2     1  UNL1       -0.4405
     35 C         -25.5913    3.9104   32.0570 C.2     1  UNL1        0.3809
     36 C         -26.5067    2.8319   31.4662 C.3     1  UNL1        0.1878
     37 O         -28.1521    0.0865   29.8474 O.3     1  UNL1       -0.2189
     38 C         -22.9361    1.8939   26.3221 C.3     1  UNL1        0.3511
     39 O         -25.2634    4.9217   31.3605 O.co2   1  UNL1       -0.2441
     40 C         -21.6266    1.1412   28.0526 C.2     1  UNL1        0.2048
     41 F         -22.7702    2.3710   25.0439 F       1  UNL1       -0.1833
     42 C         -22.7225    0.5305   28.7247 C.2     1  UNL1        0.1730
     43 O         -25.1168    3.7218   33.1807 O.co2   1  UNL1       -0.2441
     44 C         -24.2247    1.4533   26.9832 C.2     1  UNL1        0.0528
@<TRIPOS>BOND
     1     1     2    1
     2     1     8    1
     3     2     7    1
     4     3     2    2
     5     4     3    1
     6     4     5    2
     7     5     6    1
     8     6     7    2
     9     8     9    1
    10     8    12    1
    11     9    10    1
    12    10    11    1
    13    12    11    1
    14    13    44    1
    15    14    13    1
    16    14    15    1
    17    15    18    2
    18    16    17    1
    19    16    15    1
    20    19    14    2
    21    20    21    2
    22    20    19    1
    23    21    26    1
    24    22    21    1
    25    23    22    1
    26    24    23    1
    27    24    25    1
    28    26    27    1
    29    26    13    2
    30    29    37    1
    31    30    36    1
    32    30     9    1
    33    31    33    1
    34    31    32    1
    35    31     1    1
    36    32    29    1
    37    32    30    1
    38    33    42    1
    39    34    40    1
    40    35    43   ar
    41    36    35    1
    42    38    41    1
    43    38    34    1
    44    38    44    1
    45    39    35   ar
    46    40    42    2
    47    42    28    1
    48    44    33    2
