@<TRIPOS>MOLECULE
outputs/IAG933/test6/raw/output_7230_IAG933_linker_design_.xyz
 46 50 0 0 0
SMALL
GASTEIGER

@<TRIPOS>ATOM
      1 C         -24.8550   -1.0120   30.1430 C.3     1  UNL1        0.0793
      2 C         -24.9730   -2.5050   29.7880 C.2     1  UNL1       -0.0155
      3 C         -23.9060   -3.1730   29.1460 C.2     1  UNL1       -0.0039
      4 C         -23.9890   -4.5490   28.8530 C.2     1  UNL1       -0.0003
      5 C         -25.1370   -5.2800   29.2050 C.2     1  UNL1       -0.0000
      6 C         -26.2320   -4.6110   29.7840 C.2     1  UNL1       -0.0003
      7 C         -26.1550   -3.2320   30.0650 C.2     1  UNL1       -0.0039
      8 C         -25.3870   -0.6790   31.5710 C.3     1  UNL1        0.0824
      9 C         -25.1890    0.7730   32.0280 C.3     1  UNL1        0.0196
     10 C         -25.3360    0.6840   33.5440 C.3     1  UNL1        0.0203
     11 C         -24.8290   -0.7150   33.9050 C.3     1  UNL1        0.0887
     12 N         -24.7580   -1.4810   32.6460 N.3     1  UNL1       -0.2187
     13 C         -25.6880    1.6140   26.4610 C.2     1  UNL1        0.0904
     14 C         -26.2500    2.9200   26.3950 C.2     1  UNL1        0.0902
     15 C         -25.6420    4.0930   27.1230 C.2     1  UNL1        0.2676
     16 N         -25.6140    5.2520   26.4490 N.am    1  UNL1       -0.1997
     17 C         -25.0260    6.4790   26.9630 C.3     1  UNL1        0.1388
     18 O         -25.1430    3.9660   28.2430 O.2     1  UNL1       -0.2683
     19 C         -27.4380    3.0910   25.6450 C.2     1  UNL1        0.1080
     20 N         -28.0750    2.0890   25.0030 N.2     1  UNL1       -0.2080
     21 C         -27.5430    0.8490   25.0790 C.2     1  UNL1        0.2546
     22 O         -28.1930   -0.2080   24.4770 O.2     1  UNL1       -0.4558
     23 C         -29.4600    0.0050   23.8660 C.3     1  UNL1        0.2426
     24 C         -30.0650   -1.3770   23.5730 C.3     1  UNL1        0.2292
     25 O         -30.7290   -1.8780   24.7210 O.3     1  UNL1       -0.2162
     26 C         -26.3540    0.5760   25.7770 C.2     1  UNL1        0.2066
     27 F         -25.8600   -0.6810   25.7950 F       1  UNL1       -0.1979
     28 N         -24.4100    1.3856   27.0575 N.pl3   1  UNL1       -0.2774
     29 O         -32.9551    0.8260   30.5015 O.2     1  UNL1       -0.1560
     30 C         -21.7919    0.9739   28.3036 C.2     1  UNL1        0.0282
     31 C         -28.4188   -0.0876   30.0161 C.3     1  UNL1        0.0761
     32 C         -22.8447    0.4849   29.0758 C.2     1  UNL1        0.0181
     33 O         -31.3863    2.5835   31.0670 O.2     1  UNL1       -0.1560
     34 C         -23.2305    1.7658   26.3934 C.3     1  UNL1        0.1522
     35 C         -24.2395    0.7322   28.4354 C.2     1  UNL1        0.0657
     36 F         -21.1031    2.1370   26.3752 F       1  UNL1       -0.2071
     37 N         -26.7232    0.3027   28.2952 N.2     1  UNL1       -0.2459
     38 C         -25.4066   -0.0039   29.0219 C.2     1  UNL1        0.0749
     39 N         -30.5940    0.2971   31.0964 N.3     1  UNL1       -0.0818
     40 C         -29.8810    0.7665   28.0328 C.3     1  UNL1        0.1714
     41 C         -27.9707   -0.3504   28.6078 C.3     1  UNL1        0.2205
     42 C         -30.9363    1.4050   28.9613 C.3     1  UNL1        0.2025
     43 S         -31.5980    1.2210   30.4917 S.O2    1  UNL1        0.0599
     44 C         -22.0878    1.6304   27.0512 C.2     1  UNL1        0.1380
     45 O         -29.0126   -0.3850   27.7315 O.3     1  UNL1       -0.3325
     46 C         -29.7712   -0.6220   30.4097 C.3     1  UNL1        0.1197
@<TRIPOS>BOND
     1     1    38    1
     2     2     7    1
     3     2     1    1
     4     3     2    2
     5     4     3    1
     6     4     5    2
     7     5     6    1
     8     6     7    2
     9     8     1    1
    10     8     9    1
    11     8    12    1
    12     9    10    1
    13    10    11    1
    14    12    11    1
    15    13    28    1
    16    14    13    1
    17    14    15    1
    18    15    18    2
    19    16    17    1
    20    16    15    1
    21    19    14    2
    22    20    21    2
    23    20    19    1
    24    21    26    1
    25    22    21    1
    26    23    22    1
    27    24    23    1
    28    24    25    1
    29    26    27    1
    30    26    13    2
    31    28    35    1
    32    30    32    1
    33    31    46    1
    34    34    44    1
    35    34    28    1
    36    35    38    1
    37    35    32    2
    38    36    44    1
    39    37    38    2
    40    40    42    1
    41    41    37    1
    42    41    31    1
    43    42    43    1
    44    43    29    2
    45    43    33    2
    46    43    39    1
    47    44    30    2
    48    45    40    1
    49    45    41    1
    50    46    39    1
