@<TRIPOS>MOLECULE
outputs/IAG933/test6/raw/output_7231_IAG933_linker_design_.xyz
 44 47 0 0 0
SMALL
GASTEIGER

@<TRIPOS>ATOM
      1 C         -24.8550   -1.0120   30.1430 C.3     1  UNL1        0.0636
      2 C         -24.9730   -2.5050   29.7880 C.2     1  UNL1       -0.0170
      3 C         -23.9060   -3.1730   29.1460 C.2     1  UNL1       -0.0039
      4 C         -23.9890   -4.5490   28.8530 C.2     1  UNL1       -0.0003
      5 C         -25.1370   -5.2800   29.2050 C.2     1  UNL1       -0.0000
      6 C         -26.2320   -4.6110   29.7840 C.2     1  UNL1       -0.0003
      7 C         -26.1550   -3.2320   30.0650 C.2     1  UNL1       -0.0039
      8 C         -25.3870   -0.6790   31.5710 C.3     1  UNL1        0.0809
      9 C         -25.1890    0.7730   32.0280 C.3     1  UNL1        0.0195
     10 C         -25.3360    0.6840   33.5440 C.3     1  UNL1        0.0203
     11 C         -24.8290   -0.7150   33.9050 C.3     1  UNL1        0.0887
     12 N         -24.7580   -1.4810   32.6460 N.3     1  UNL1       -0.2188
     13 C         -25.6880    1.6140   26.4610 C.2     1  UNL1        0.0250
     14 C         -26.2500    2.9200   26.3950 C.2     1  UNL1        0.0564
     15 C         -25.6420    4.0930   27.1230 C.2     1  UNL1        0.2625
     16 N         -25.6140    5.2520   26.4490 N.am    1  UNL1       -0.2000
     17 C         -25.0260    6.4790   26.9630 C.3     1  UNL1        0.1388
     18 O         -25.1430    3.9660   28.2430 O.2     1  UNL1       -0.2687
     19 C         -27.4380    3.0910   25.6450 C.3     1  UNL1        0.1591
     20 N         -28.0750    2.0890   25.0030 N.2     1  UNL1       -0.2341
     21 C         -27.5430    0.8490   25.0790 C.2     1  UNL1        0.2341
     22 O         -28.1930   -0.2080   24.4770 O.2     1  UNL1       -0.4585
     23 C         -29.4600    0.0050   23.8660 C.3     1  UNL1        0.2423
     24 C         -30.0650   -1.3770   23.5730 C.3     1  UNL1        0.2292
     25 O         -30.7290   -1.8780   24.7210 O.3     1  UNL1       -0.2162
     26 C         -26.3540    0.5760   25.7770 C.3     1  UNL1        0.2579
     27 F         -25.8600   -0.6810   25.7950 F       1  UNL1       -0.2223
     28 C         -30.2136    3.8553   28.3041 C.3     1  UNL1        0.1141
     29 F         -21.1655    1.6614   27.7309 F       1  UNL1       -0.2033
     30 O         -26.5603    0.3864   29.0751 O.2     1  UNL1       -0.4758
     31 C         -23.4247    1.5254   27.0572 C.2     1  UNL1        0.0877
     32 C         -27.7044   -0.3325   28.5240 C.3     1  UNL1        0.2054
     33 C         -25.1622    0.5277   28.5533 C.2     1  UNL1        0.1355
     34 O         -30.2902    6.1978   28.7436 O.co2   1  UNL1       -0.2457
     35 C         -29.7894    5.2937   28.0629 C.2     1  UNL1        0.3649
     36 C         -29.1479    3.0082   29.0637 C.3     1  UNL1        0.0119
     37 O         -28.9948    5.5086   27.1396 O.co2   1  UNL1       -0.2457
     38 CL        -22.9702    2.2980   25.5993 Cl      1  UNL1       -0.0798
     39 C         -24.1702   -0.0056   29.2474 C.2     1  UNL1        0.0192
     40 C         -22.4473    1.1826   27.9709 C.2     1  UNL1        0.1505
     41 C         -28.7504    0.6845   28.0615 C.3     1  UNL1        0.0474
     42 C         -22.7855    0.3662   29.0559 C.2     1  UNL1        0.0296
     43 C         -24.7677    1.2563   27.3464 C.2     1  UNL1        0.0454
     44 C         -29.3315    1.4756   29.2412 C.3     1  UNL1        0.0044
@<TRIPOS>BOND
     1     1    39    1
     2     2     7    1
     3     2     1    1
     4     3     2    2
     5     4     3    1
     6     4     5    2
     7     5     6    1
     8     6     7    2
     9     8     1    1
    10     8     9    1
    11     8    12    1
    12     9    10    1
    13    10    11    1
    14    12    11    1
    15    13    43    1
    16    14    13    2
    17    14    15    1
    18    15    18    2
    19    16    17    1
    20    16    15    1
    21    19    14    1
    22    20    21    2
    23    20    19    1
    24    21    26    1
    25    22    21    1
    26    23    22    1
    27    24    23    1
    28    24    25    1
    29    26    27    1
    30    26    13    1
    31    28    36    1
    32    29    40    1
    33    31    43    2
    34    31    40    1
    35    32    30    1
    36    33    30    1
    37    33    39    2
    38    35    28    1
    39    35    34   ar
    40    36    44    1
    41    37    35   ar
    42    38    31    1
    43    40    42    2
    44    41    32    1
    45    41    44    1
    46    42    39    1
    47    43    33    1
