@<TRIPOS>MOLECULE
outputs/IAG933/test6/raw/output_7233_IAG933_linker_design_.xyz
 45 48 0 0 0
SMALL
GASTEIGER

@<TRIPOS>ATOM
      1 C         -24.8550   -1.0120   30.1430 C.3     1  UNL1        0.1109
      2 C         -24.9730   -2.5050   29.7880 C.2     1  UNL1       -0.0051
      3 C         -23.9060   -3.1730   29.1460 C.2     1  UNL1       -0.0029
      4 C         -23.9890   -4.5490   28.8530 C.2     1  UNL1       -0.0003
      5 C         -25.1370   -5.2800   29.2050 C.2     1  UNL1       -0.0000
      6 C         -26.2320   -4.6110   29.7840 C.2     1  UNL1       -0.0003
      7 C         -26.1550   -3.2320   30.0650 C.2     1  UNL1       -0.0029
      8 C         -25.3870   -0.6790   31.5710 C.3     1  UNL1        0.0929
      9 C         -25.1890    0.7730   32.0280 C.3     1  UNL1        0.0206
     10 C         -25.3360    0.6840   33.5440 C.3     1  UNL1        0.0203
     11 C         -24.8290   -0.7150   33.9050 C.3     1  UNL1        0.0888
     12 N         -24.7580   -1.4810   32.6460 N.3     1  UNL1       -0.2177
     13 C         -25.6880    1.6140   26.4610 C.2     1  UNL1        0.0407
     14 C         -26.2500    2.9200   26.3950 C.2     1  UNL1        0.0744
     15 C         -25.6420    4.0930   27.1230 C.2     1  UNL1        0.2220
     16 N         -25.6140    5.2520   26.4490 N.2     1  UNL1       -0.2357
     17 C         -25.0260    6.4790   26.9630 C.3     1  UNL1        0.1550
     18 O         -25.1430    3.9660   28.2430 O.2     1  UNL1       -0.4585
     19 C         -27.4380    3.0910   25.6450 C.2     1  UNL1        0.1068
     20 N         -28.0750    2.0890   25.0030 N.2     1  UNL1       -0.2081
     21 C         -27.5430    0.8490   25.0790 C.2     1  UNL1        0.2533
     22 O         -28.1930   -0.2080   24.4770 O.2     1  UNL1       -0.4558
     23 C         -29.4600    0.0050   23.8660 C.3     1  UNL1        0.2426
     24 C         -30.0650   -1.3770   23.5730 C.3     1  UNL1        0.2292
     25 O         -30.7290   -1.8780   24.7210 O.3     1  UNL1       -0.2162
     26 C         -26.3540    0.5760   25.7770 C.2     1  UNL1        0.1931
     27 F         -25.8600   -0.6810   25.7950 F       1  UNL1       -0.1992
     28 C         -22.7102    0.9682   29.0322 C.3     1  UNL1        0.1655
     29 C         -26.1089    4.5332   30.5630 C.3     1  UNL1        0.2166
     30 N         -24.8141   -0.3122   29.1320 N.3     1  UNL1       -0.2110
     31 C         -27.5261    4.1644   30.1479 C.2     1  UNL1        0.0159
     32 O         -23.4837    2.1854   28.9697 O.3     1  UNL1       -0.3481
     33 C         -29.8929    4.5058   30.3976 C.2     1  UNL1        0.0920
     34 C         -23.5339   -0.1470   28.3596 C.3     1  UNL1        0.1212
     35 C         -25.1294    3.9046   29.5312 C.3     1  UNL1        0.2312
     36 O         -21.3522    1.9235   27.1582 O.3     1  UNL1       -0.2177
     37 C         -24.4723    2.5133   29.9676 C.3     1  UNL1        0.1886
     38 C         -21.2812    1.1010   28.3466 C.3     1  UNL1        0.2129
     39 C         -27.7727    2.8962   29.4906 C.2     1  UNL1        0.0404
     40 C         -29.0962    2.4286   29.2256 C.2     1  UNL1        0.1969
     41 O         -29.3408    1.2838   28.6574 O.2     1  UNL1       -0.2865
     42 C         -30.1705    3.3238   29.6955 C.2     1  UNL1        0.0600
     43 O         -25.9347    5.9285   30.6206 O.3     1  UNL1       -0.2143
     44 N         -30.8475    5.1208   31.1039 N.pl3   1  UNL1       -0.1280
     45 C         -28.5845    5.0013   30.4842 C.2     1  UNL1        0.0165
@<TRIPOS>BOND
     1     1    30    1
     2     2     7    1
     3     2     1    1
     4     3     2    2
     5     4     3    1
     6     4     5    2
     7     5     6    1
     8     6     7    2
     9     8     1    1
    10     8     9    1
    11     8    12    1
    12     9    10    1
    13    10    11    1
    14    12    11    1
    15    14    13    1
    16    14    15    1
    17    15    18    1
    18    16    17    1
    19    16    15    2
    20    18    35    1
    21    19    14    2
    22    20    21    2
    23    20    19    1
    24    21    26    1
    25    22    21    1
    26    23    22    1
    27    24    23    1
    28    24    25    1
    29    26    27    1
    30    26    13    2
    31    28    38    1
    32    29    43    1
    33    31    45    1
    34    31    29    1
    35    32    28    1
    36    32    37    1
    37    33    45    2
    38    33    44    1
    39    34    28    1
    40    34    30    1
    41    35    37    1
    42    35    29    1
    43    36    38    1
    44    39    31    2
    45    40    39    1
    46    40    42    2
    47    41    40    1
    48    42    33    1
