@<TRIPOS>MOLECULE
outputs/IAG933/test6/raw/output_7236_IAG933_linker_design_.xyz
 48 54 0 0 0
SMALL
GASTEIGER

@<TRIPOS>ATOM
      1 C         -24.8550   -1.0120   30.1430 C.3     1  UNL1        0.0980
      2 C         -24.9730   -2.5050   29.7880 C.2     1  UNL1       -0.0064
      3 C         -23.9060   -3.1730   29.1460 C.2     1  UNL1       -0.0029
      4 C         -23.9890   -4.5490   28.8530 C.2     1  UNL1       -0.0003
      5 C         -25.1370   -5.2800   29.2050 C.2     1  UNL1       -0.0000
      6 C         -26.2320   -4.6110   29.7840 C.2     1  UNL1       -0.0003
      7 C         -26.1550   -3.2320   30.0650 C.2     1  UNL1       -0.0029
      8 C         -25.3870   -0.6790   31.5710 C.3     1  UNL1        0.0916
      9 C         -25.1890    0.7730   32.0280 C.3     1  UNL1        0.0206
     10 C         -25.3360    0.6840   33.5440 C.3     1  UNL1        0.0203
     11 C         -24.8290   -0.7150   33.9050 C.3     1  UNL1        0.0888
     12 N         -24.7580   -1.4810   32.6460 N.3     1  UNL1       -0.2178
     13 C         -25.6880    1.6140   26.4610 C.3     1  UNL1        0.0912
     14 C         -26.2500    2.9200   26.3950 C.2     1  UNL1        0.0569
     15 C         -25.6420    4.0930   27.1230 C.2     1  UNL1        0.2251
     16 N         -25.6140    5.2520   26.4490 N.2     1  UNL1       -0.2355
     17 C         -25.0260    6.4790   26.9630 C.3     1  UNL1        0.1550
     18 O         -25.1430    3.9660   28.2430 O.2     1  UNL1       -0.4199
     19 C         -27.4380    3.0910   25.6450 C.2     1  UNL1        0.1025
     20 N         -28.0750    2.0890   25.0030 N.2     1  UNL1       -0.2118
     21 C         -27.5430    0.8490   25.0790 C.2     1  UNL1        0.2344
     22 O         -28.1930   -0.2080   24.4770 O.2     1  UNL1       -0.4585
     23 C         -29.4600    0.0050   23.8660 C.3     1  UNL1        0.2423
     24 C         -30.0650   -1.3770   23.5730 C.3     1  UNL1        0.2292
     25 O         -30.7290   -1.8780   24.7210 O.3     1  UNL1       -0.2162
     26 C         -26.3540    0.5760   25.7770 C.3     1  UNL1        0.2438
     27 F         -25.8600   -0.6810   25.7950 F       1  UNL1       -0.2265
     28 C         -22.4326    1.0827   28.2705 C.3     1  UNL1        0.1909
     29 O         -21.4548    2.0904   26.3820 O.3     1  UNL1       -0.1820
     30 N         -24.2712    0.0217   29.3846 N.3     1  UNL1       -0.2451
     31 C         -22.6108    1.7281   25.9995 C.3     1  UNL1        0.3301
     32 C         -28.6582    4.8434   28.9076 C.2     1  UNL1        0.0075
     33 C         -23.3667    1.3593   27.2260 C.2     1  UNL1        0.0460
     34 C         -28.5359    2.3680   30.8306 C.2     1  UNL1       -0.0001
     35 C         -27.7611    7.3667   29.6279 C.3     1  UNL1        0.1749
     36 F         -23.0496    1.7547   24.7681 F       1  UNL1       -0.1962
     37 N         -24.8277    2.3631   29.7793 N.2     1  UNL1       -0.2185
     38 C         -24.7158    1.3314   27.5476 C.2     1  UNL1       -0.0002
     39 O         -26.8348    6.2365   29.6395 O.3     1  UNL1       -0.3446
     40 C         -29.4772    2.7166   29.8475 C.2     1  UNL1       -0.0003
     41 C         -25.0590    1.0893   28.8933 C.3     1  UNL1        0.1852
     42 C         -25.4870    3.7107   29.4577 C.2     1  UNL1        0.2272
     43 C         -26.7363    3.8678   30.0045 C.2     1  UNL1        0.0620
     44 C         -22.9053    0.0172   29.1680 C.3     1  UNL1        0.1117
     45 C         -27.4620    4.9693   29.5514 C.3     1  UNL1        0.1641
     46 O         -21.1738    1.3631   27.6686 O.3     1  UNL1       -0.2144
     47 C         -27.2547    2.8921   30.8837 C.2     1  UNL1        0.0030
     48 C         -29.4857    3.7455   28.9694 C.2     1  UNL1       -0.0018
@<TRIPOS>BOND
     1     1     2    1
     2     2     7    1
     3     3     2    2
     4     4     3    1
     5     4     5    2
     6     5     6    1
     7     6     7    2
     8     8     1    1
     9     8     9    1
    10     8    12    1
    11     9    10    1
    12    10    11    1
    13    12    11    1
    14    13    14    1
    15    13    38    1
    16    14    15    1
    17    15    18    1
    18    16    17    1
    19    16    15    2
    20    18    42    1
    21    19    14    2
    22    20    21    2
    23    20    19    1
    24    21    26    1
    25    22    21    1
    26    23    22    1
    27    24    23    1
    28    24    25    1
    29    26    27    1
    30    26    13    1
    31    28    44    1
    32    29    46    1
    33    30     1    1
    34    31    36    1
    35    31    29    1
    36    31    33    1
    37    32    48    2
    38    32    45    1
    39    33    38    2
    40    33    28    1
    41    34    47    1
    42    35    39    1
    43    40    34    2
    44    41    38    1
    45    41    30    1
    46    41    37    1
    47    42    37    2
    48    42    43    1
    49    43    47    2
    50    44    30    1
    51    45    39    1
    52    45    43    1
    53    46    28    1
    54    48    40    1
