@<TRIPOS>MOLECULE
outputs/IAG933/test6/raw/output_7238_IAG933_linker_design_.xyz
 40 43 0 0 0
SMALL
GASTEIGER

@<TRIPOS>ATOM
      1 C         -24.8550   -1.0120   30.1430 C.3     1  UNL1        0.1139
      2 C         -24.9730   -2.5050   29.7880 C.2     1  UNL1       -0.0029
      3 C         -23.9060   -3.1730   29.1460 C.2     1  UNL1       -0.0026
      4 C         -23.9890   -4.5490   28.8530 C.2     1  UNL1       -0.0003
      5 C         -25.1370   -5.2800   29.2050 C.2     1  UNL1       -0.0000
      6 C         -26.2320   -4.6110   29.7840 C.2     1  UNL1       -0.0003
      7 C         -26.1550   -3.2320   30.0650 C.2     1  UNL1       -0.0026
      8 C         -25.3870   -0.6790   31.5710 C.3     1  UNL1        0.0951
      9 C         -25.1890    0.7730   32.0280 C.3     1  UNL1        0.0209
     10 C         -25.3360    0.6840   33.5440 C.3     1  UNL1        0.0203
     11 C         -24.8290   -0.7150   33.9050 C.3     1  UNL1        0.0888
     12 N         -24.7580   -1.4810   32.6460 N.3     1  UNL1       -0.2174
     13 C         -25.6880    1.6140   26.4610 C.3     1  UNL1        0.1313
     14 C         -26.2500    2.9200   26.3950 C.2     1  UNL1        0.0697
     15 C         -25.6420    4.0930   27.1230 C.2     1  UNL1        0.2637
     16 N         -25.6140    5.2520   26.4490 N.am    1  UNL1       -0.2000
     17 C         -25.0260    6.4790   26.9630 C.3     1  UNL1        0.1388
     18 O         -25.1430    3.9660   28.2430 O.2     1  UNL1       -0.2686
     19 C         -27.4380    3.0910   25.6450 C.2     1  UNL1        0.1035
     20 N         -28.0750    2.0890   25.0030 N.2     1  UNL1       -0.2118
     21 C         -27.5430    0.8490   25.0790 C.2     1  UNL1        0.2355
     22 O         -28.1930   -0.2080   24.4770 O.2     1  UNL1       -0.4585
     23 C         -29.4600    0.0050   23.8660 C.3     1  UNL1        0.2423
     24 C         -30.0650   -1.3770   23.5730 C.3     1  UNL1        0.2292
     25 O         -30.7290   -1.8780   24.7210 O.3     1  UNL1       -0.2162
     26 C         -26.3540    0.5760   25.7770 C.3     1  UNL1        0.2547
     27 F         -25.8600   -0.6810   25.7950 F       1  UNL1       -0.2254
     28 C         -29.1822    0.4625   30.1539 C.3     1  UNL1        0.0101
     29 C         -22.0691    1.6612   26.6365 C.3     1  UNL1        0.1433
     30 N         -23.1529    0.3032   28.2210 N.pl3   1  UNL1       -0.0163
     31 N         -25.7278   -0.2420   29.1736 N.am    1  UNL1       -0.2705
     32 C         -27.9470    1.0080   29.4323 C.3     1  UNL1        0.0853
     33 O         -27.8186   -0.9861   28.1962 O.2     1  UNL1       -0.2749
     34 C         -24.2666    0.8826   27.8257 C.3     1  UNL1        0.2869
     35 C         -25.2918    0.7537   28.3919 C.3     1  UNL1        0.1626
     36 C         -23.3209    1.9205   25.9662 C.3     1  UNL1        0.0892
     37 N         -24.3751    1.5140   26.7004 N.3     1  UNL1       -0.2268
     38 C         -22.0805    0.8882   27.8490 C.2     1  UNL1        0.3922
     39 N         -20.9918    0.7812   28.5979 N.2     1  UNL1        0.1918
     40 C         -27.1567   -0.2125   28.8895 C.2     1  UNL1        0.2260
@<TRIPOS>BOND
     1     1    31    1
     2     2     7    1
     3     2     1    1
     4     3     2    2
     5     4     3    1
     6     4     5    2
     7     5     6    1
     8     6     7    2
     9     8     1    1
    10     8     9    1
    11     8    12    1
    12     9    10    1
    13    10    11    1
    14    12    11    1
    15    13    14    1
    16    13    37    1
    17    14    15    1
    18    15    18    2
    19    16    17    1
    20    16    15    1
    21    19    14    2
    22    20    21    2
    23    20    19    1
    24    21    26    1
    25    22    21    1
    26    23    22    1
    27    24    23    1
    28    24    25    1
    29    26    27    1
    30    26    13    1
    31    29    38    1
    32    32    28    1
    33    33    40    2
    34    34    30    1
    35    34    35    1
    36    35    31    1
    37    36    29    1
    38    37    36    1
    39    37    34    1
    40    38    30    1
    41    38    39    2
    42    40    31   am
    43    40    32    1
