@<TRIPOS>MOLECULE
No_724-gen_results/8p0m/2024-11-27-11-27-31/
 24 27 0 0 0
SMALL
GASTEIGER

@<TRIPOS>ATOM
      1 C         -28.0162   -0.8135   28.8779 C.ar    1  UNL1        0.0279
      2 C         -28.4690   -0.7850   29.8287 C.ar    1  UNL1        0.0590
      3 C         -26.5042   -0.7777   28.8766 C.ar    1  UNL1        0.0713
      4 C         -25.8103   -0.8531   30.1028 C.ar    1  UNL1        0.0153
      5 C         -27.9906   -0.8916   31.2257 C.ar    1  UNL1        0.0115
      6 C         -26.6042   -0.8676   31.2652 C.ar    1  UNL1        0.0022
      7 C         -24.4436   -0.6734   29.9745 C.ar    1  UNL1        0.0010
      8 C         -23.6862   -1.4455   30.5677 C.ar    1  UNL1        0.0000
      9 C         -23.8402    0.4116   29.2892 C.ar    1  UNL1       -0.0025
     10 C         -22.4489    0.5198   29.1495 C.ar    1  UNL1       -0.0007
     11 C         -21.5993   -0.4865   29.6993 C.ar    1  UNL1       -0.0026
     12 C         -22.2042   -1.4529   30.5017 C.ar    1  UNL1       -0.0003
     13 CL        -30.3213   -0.8219   29.8410 Cl      1  UNL1       -0.0822
     14 N         -25.9973   -0.6358   27.6516 N.pl3   1  UNL1       -0.2124
     15 C         -26.3014    0.2051   26.6397 C.ar    1  UNL1        0.0705
     16 C         -25.7862    0.8241   25.9856 C.ar    1  UNL1        0.0166
     17 C         -27.8225    0.2470   26.4250 C.ar    1  UNL1        0.0165
     18 C         -28.2716    0.9598   25.3380 C.ar    1  UNL1        0.0013
     19 C         -24.1323    0.8432   26.1268 C.2     1  UNL1        0.0187
     20 C         -27.3933    1.6688   24.5764 C.ar    1  UNL1        0.0001
     21 C         -26.1025    1.6688   24.8386 C.ar    1  UNL1        0.0013
     22 C         -21.8407    1.5763   28.3151 C.3     1  UNL1        0.1386
     23 N         -21.6291    1.6553   27.0166 N.pl3   1  UNL1       -0.2315
     24 C         -22.8648    1.6113   26.1673 C.2     1  UNL1        0.0805
@<TRIPOS>BOND
     1     4     7    1
     2     2    13    1
     3     3    14    1
     4    14    15    1
     5    16    19    1
     6    10    22    1
     7    22    23    1
     8    19    24    2
     9    23    24    1
    10    15    16   ar
    11    16    21   ar
    12    21    20   ar
    13    20    18   ar
    14    18    17   ar
    15    17    15   ar
    16     7     8   ar
    17     8    12   ar
    18    12    11   ar
    19    11    10   ar
    20    10     9   ar
    21     9     7   ar
    22     1     2   ar
    23     2     5   ar
    24     5     6   ar
    25     6     4   ar
    26     4     3   ar
    27     3     1   ar
