@<TRIPOS>MOLECULE
outputs/IAG933/test6/raw/output_7246_IAG933_linker_design_.xyz
 44 46 0 0 0
SMALL
GASTEIGER

@<TRIPOS>ATOM
      1 C         -24.8550   -1.0120   30.1430 C.3     1  UNL1        0.0719
      2 C         -24.9730   -2.5050   29.7880 C.2     1  UNL1       -0.0186
      3 C         -23.9060   -3.1730   29.1460 C.2     1  UNL1       -0.0042
      4 C         -23.9890   -4.5490   28.8530 C.2     1  UNL1       -0.0003
      5 C         -25.1370   -5.2800   29.2050 C.2     1  UNL1       -0.0000
      6 C         -26.2320   -4.6110   29.7840 C.2     1  UNL1       -0.0003
      7 C         -26.1550   -3.2320   30.0650 C.2     1  UNL1       -0.0042
      8 C         -25.3870   -0.6790   31.5710 C.3     1  UNL1        0.0794
      9 C         -25.1890    0.7730   32.0280 C.3     1  UNL1        0.0193
     10 C         -25.3360    0.6840   33.5440 C.3     1  UNL1        0.0202
     11 C         -24.8290   -0.7150   33.9050 C.3     1  UNL1        0.0887
     12 N         -24.7580   -1.4810   32.6460 N.3     1  UNL1       -0.2190
     13 C         -25.6880    1.6140   26.4610 C.3     1  UNL1        0.1297
     14 C         -26.2500    2.9200   26.3950 C.2     1  UNL1        0.0696
     15 C         -25.6420    4.0930   27.1230 C.2     1  UNL1        0.2637
     16 N         -25.6140    5.2520   26.4490 N.am    1  UNL1       -0.2000
     17 C         -25.0260    6.4790   26.9630 C.3     1  UNL1        0.1388
     18 O         -25.1430    3.9660   28.2430 O.2     1  UNL1       -0.2686
     19 C         -27.4380    3.0910   25.6450 C.2     1  UNL1        0.1035
     20 N         -28.0750    2.0890   25.0030 N.2     1  UNL1       -0.2118
     21 C         -27.5430    0.8490   25.0790 C.2     1  UNL1        0.2355
     22 O         -28.1930   -0.2080   24.4770 O.2     1  UNL1       -0.4585
     23 C         -29.4600    0.0050   23.8660 C.3     1  UNL1        0.2423
     24 C         -30.0650   -1.3770   23.5730 C.3     1  UNL1        0.2292
     25 O         -30.7290   -1.8780   24.7210 O.3     1  UNL1       -0.2162
     26 C         -26.3540    0.5760   25.7770 C.3     1  UNL1        0.2546
     27 F         -25.8600   -0.6810   25.7950 F       1  UNL1       -0.2254
     28 C         -25.1857   -0.1351   28.9872 C.3     1  UNL1        0.1924
     29 N         -24.7085    1.4107   27.5594 N.3     1  UNL1       -0.2457
     30 O         -26.3860   -0.4927   28.3720 O.3     1  UNL1       -0.2194
     31 F         -21.0704    1.2662   27.8863 F       1  UNL1       -0.1969
     32 C         -22.2808    1.0174   28.1643 C.3     1  UNL1        0.3328
     33 C         -22.8627    2.3646   26.4088 C.3     1  UNL1        0.0218
     34 F         -22.3937    0.3836   29.2612 F       1  UNL1       -0.1969
     35 N         -25.3876    4.1173   31.2752 N.am    1  UNL1       -0.1694
     36 C         -25.6473    5.3055   32.1869 C.3     1  UNL1        0.1874
     37 N         -26.0721    2.2828   29.7130 N.am    1  UNL1       -0.1695
     38 C         -22.9325    2.3156   24.9166 C.3     1  UNL1        0.0016
     39 C         -23.2858    1.3904   27.2441 C.3     1  UNL1        0.1264
     40 O         -27.4533    3.8333   30.5492 O.2     1  UNL1       -0.2491
     41 C         -24.7215    5.0532   33.4000 C.3     1  UNL1        0.0447
     42 C         -26.3401    3.4315   30.5186 C.2     1  UNL1        0.3418
     43 N         -26.9275    5.9354   32.7477 N.3     1  UNL1       -0.1090
     44 C         -25.0541    1.3862   29.0511 C.3     1  UNL1        0.1876
@<TRIPOS>BOND
     1     1    28    1
     2     2     7    1
     3     2     1    1
     4     3     2    2
     5     4     3    1
     6     4     5    2
     7     5     6    1
     8     6     7    2
     9     8     1    1
    10     8     9    1
    11     8    12    1
    12     9    10    1
    13    10    11    1
    14    12    11    1
    15    13    29    1
    16    14    13    1
    17    14    15    1
    18    15    18    2
    19    16    17    1
    20    16    15    1
    21    19    14    2
    22    20    21    2
    23    20    19    1
    24    21    26    1
    25    22    21    1
    26    23    22    1
    27    24    23    1
    28    24    25    1
    29    26    27    1
    30    26    13    1
    31    28    30    1
    32    28    44    1
    33    29    44    1
    34    31    32    1
    35    32    34    1
    36    35    36    1
    37    36    43    1
    38    36    41    1
    39    37    42    1
    40    38    33    1
    41    39    33    1
    42    39    29    1
    43    39    32    1
    44    42    40    2
    45    42    35    1
    46    44    37    1
