@<TRIPOS>MOLECULE
outputs/IAG933/test6/raw/output_7248_IAG933_linker_design_.xyz
 41 44 0 0 0
SMALL
GASTEIGER

@<TRIPOS>ATOM
      1 C         -24.8550   -1.0120   30.1430 C.3     1  UNL1        0.1113
      2 C         -24.9730   -2.5050   29.7880 C.2     1  UNL1       -0.0030
      3 C         -23.9060   -3.1730   29.1460 C.2     1  UNL1       -0.0026
      4 C         -23.9890   -4.5490   28.8530 C.2     1  UNL1       -0.0003
      5 C         -25.1370   -5.2800   29.2050 C.2     1  UNL1       -0.0000
      6 C         -26.2320   -4.6110   29.7840 C.2     1  UNL1       -0.0003
      7 C         -26.1550   -3.2320   30.0650 C.2     1  UNL1       -0.0026
      8 C         -25.3870   -0.6790   31.5710 C.3     1  UNL1        0.0950
      9 C         -25.1890    0.7730   32.0280 C.3     1  UNL1        0.0209
     10 C         -25.3360    0.6840   33.5440 C.3     1  UNL1        0.0203
     11 C         -24.8290   -0.7150   33.9050 C.3     1  UNL1        0.0888
     12 N         -24.7580   -1.4810   32.6460 N.3     1  UNL1       -0.2174
     13 C         -25.6880    1.6140   26.4610 C.3     1  UNL1        0.0918
     14 C         -26.2500    2.9200   26.3950 C.2     1  UNL1        0.0589
     15 C         -25.6420    4.0930   27.1230 C.2     1  UNL1        0.2628
     16 N         -25.6140    5.2520   26.4490 N.am    1  UNL1       -0.2000
     17 C         -25.0260    6.4790   26.9630 C.3     1  UNL1        0.1388
     18 O         -25.1430    3.9660   28.2430 O.2     1  UNL1       -0.2686
     19 C         -27.4380    3.0910   25.6450 C.2     1  UNL1        0.1025
     20 N         -28.0750    2.0890   25.0030 N.2     1  UNL1       -0.2118
     21 C         -27.5430    0.8490   25.0790 C.2     1  UNL1        0.2344
     22 O         -28.1930   -0.2080   24.4770 O.2     1  UNL1       -0.4585
     23 C         -29.4600    0.0050   23.8660 C.3     1  UNL1        0.2423
     24 C         -30.0650   -1.3770   23.5730 C.3     1  UNL1        0.2292
     25 O         -30.7290   -1.8780   24.7210 O.3     1  UNL1       -0.2162
     26 C         -26.3540    0.5760   25.7770 C.3     1  UNL1        0.2440
     27 F         -25.8600   -0.6810   25.7950 F       1  UNL1       -0.2265
     28 C         -23.0892    1.9678   26.5045 C.2     1  UNL1       -0.0430
     29 C         -26.7842   -0.5946   28.5036 C.3     1  UNL1        0.0911
     30 C         -24.5316    0.9472   28.0312 C.2     1  UNL1        0.0101
     31 C         -30.4171    0.5347   28.7418 C.3     1  UNL1        0.0001
     32 C         -29.1504    0.3314   29.6077 C.3     1  UNL1        0.0017
     33 C         -24.1322    0.4359   28.7984 C.2     1  UNL1        0.0474
     34 C         -28.5543    1.7633   29.7620 C.3     1  UNL1        0.0001
     35 C         -22.7566    0.4423   29.1837 C.2     1  UNL1        0.0103
     36 N         -25.4769   -0.1780   29.2138 N.pl3   1  UNL1       -0.3041
     37 C         -24.4231    1.5233   26.8920 C.2     1  UNL1       -0.0214
     38 C         -28.2619   -0.7188   28.8793 C.3     1  UNL1        0.0214
     39 C         -21.7402    1.0207   28.4350 C.2     1  UNL1       -0.0205
     40 C         -22.9455    2.7344   25.2758 C.3     1  UNL1        0.0264
     41 C         -21.9321    1.7403   27.2454 C.3     1  UNL1        0.0477
@<TRIPOS>BOND
     1     1    36    1
     2     2     7    1
     3     2     1    1
     4     3     2    2
     5     4     3    1
     6     4     5    2
     7     5     6    1
     8     6     7    2
     9     8     1    1
    10     8     9    1
    11     8    12    1
    12     9    10    1
    13    10    11    1
    14    12    11    1
    15    13    37    1
    16    14    13    1
    17    14    15    1
    18    15    18    2
    19    16    17    1
    20    16    15    1
    21    19    14    2
    22    20    21    2
    23    20    19    1
    24    21    26    1
    25    22    21    1
    26    23    22    1
    27    24    23    1
    28    24    25    1
    29    26    27    1
    30    26    13    1
    31    28    37    2
    32    28    41    1
    33    29    38    1
    34    29    36    1
    35    30    33    2
    36    31    32    1
    37    32    34    1
    38    33    35    1
    39    33    36    1
    40    37    30    1
    41    38    32    1
    42    39    35    2
    43    40    28    1
    44    41    39    1
