@<TRIPOS>MOLECULE
outputs/IAG933/test6/raw/output_7249_IAG933_linker_design_.xyz
 42 45 0 0 0
SMALL
GASTEIGER

@<TRIPOS>ATOM
      1 C         -24.8550   -1.0120   30.1430 C.3     1  UNL1        0.2040
      2 C         -24.9730   -2.5050   29.7880 C.2     1  UNL1        0.0186
      3 C         -23.9060   -3.1730   29.1460 C.2     1  UNL1       -0.0008
      4 C         -23.9890   -4.5490   28.8530 C.2     1  UNL1       -0.0002
      5 C         -25.1370   -5.2800   29.2050 C.2     1  UNL1       -0.0000
      6 C         -26.2320   -4.6110   29.7840 C.2     1  UNL1       -0.0002
      7 C         -26.1550   -3.2320   30.0650 C.2     1  UNL1       -0.0008
      8 C         -25.3870   -0.6790   31.5710 C.3     1  UNL1        0.1170
      9 C         -25.1890    0.7730   32.0280 C.3     1  UNL1        0.0229
     10 C         -25.3360    0.6840   33.5440 C.3     1  UNL1        0.0204
     11 C         -24.8290   -0.7150   33.9050 C.3     1  UNL1        0.0888
     12 N         -24.7580   -1.4810   32.6460 N.3     1  UNL1       -0.2154
     13 C         -25.6880    1.6140   26.4610 C.2     1  UNL1        0.0406
     14 C         -26.2500    2.9200   26.3950 C.2     1  UNL1        0.0766
     15 C         -25.6420    4.0930   27.1230 C.2     1  UNL1        0.2664
     16 N         -25.6140    5.2520   26.4490 N.am    1  UNL1       -0.1997
     17 C         -25.0260    6.4790   26.9630 C.3     1  UNL1        0.1388
     18 O         -25.1430    3.9660   28.2430 O.2     1  UNL1       -0.2683
     19 C         -27.4380    3.0910   25.6450 C.2     1  UNL1        0.1067
     20 N         -28.0750    2.0890   25.0030 N.2     1  UNL1       -0.2081
     21 C         -27.5430    0.8490   25.0790 C.2     1  UNL1        0.2533
     22 O         -28.1930   -0.2080   24.4770 O.2     1  UNL1       -0.4558
     23 C         -29.4600    0.0050   23.8660 C.3     1  UNL1        0.2426
     24 C         -30.0650   -1.3770   23.5730 C.3     1  UNL1        0.2292
     25 O         -30.7290   -1.8780   24.7210 O.3     1  UNL1       -0.2162
     26 C         -26.3540    0.5760   25.7770 C.2     1  UNL1        0.1931
     27 F         -25.8600   -0.6810   25.7950 F       1  UNL1       -0.1992
     28 C         -24.5891    0.6335   28.3686 C.2     1  UNL1        0.1425
     29 C         -28.7673    0.4314   30.0394 C.2     1  UNL1        0.1837
     30 C         -23.2679    1.5446   26.5346 C.2     1  UNL1        0.0868
     31 C         -23.3283    0.3326   29.0572 C.2     1  UNL1        0.1609
     32 O         -27.1561   -0.2508   28.3281 O.3     1  UNL1       -0.2282
     33 CL        -23.1494    1.9404   24.8977 Cl      1  UNL1       -0.0798
     34 C         -22.0753    0.7389   28.4917 C.2     1  UNL1        0.0690
     35 C         -29.9213   -0.3598   30.5993 C.3     1  UNL1        0.0751
     36 F         -20.8518    1.5973   26.5796 F       1  UNL1       -0.2032
     37 O         -28.1416    1.3709   30.5099 O.2     1  UNL1       -0.2933
     38 C         -24.4183    1.2711   27.1592 C.2     1  UNL1        0.0381
     39 N         -25.9372    0.3314   28.7953 N.3     1  UNL1       -0.1277
     40 C         -22.0039    1.3173   27.1955 C.2     1  UNL1        0.1537
     41 C         -28.4525   -0.0440   28.6095 C.3     1  UNL1        0.2399
     42 O         -23.3262   -0.3826   30.0909 O.2     1  UNL1       -0.4716
@<TRIPOS>BOND
     1     1    42    1
     2     2     7    1
     3     2     1    1
     4     3     2    2
     5     4     3    1
     6     4     5    2
     7     5     6    1
     8     6     7    2
     9     8     1    1
    10     8     9    1
    11     8    12    1
    12     9    10    1
    13    10    11    1
    14    12    11    1
    15    13    38    1
    16    14    13    1
    17    14    15    1
    18    15    18    2
    19    16    17    1
    20    16    15    1
    21    19    14    2
    22    20    21    2
    23    20    19    1
    24    21    26    1
    25    22    21    1
    26    23    22    1
    27    24    23    1
    28    24    25    1
    29    26    27    1
    30    26    13    2
    31    28    39    1
    32    28    31    1
    33    29    37    2
    34    29    35    1
    35    30    38    1
    36    30    40    2
    37    31    42    1
    38    32    41    1
    39    32    39    1
    40    33    30    1
    41    34    31    2
    42    36    40    1
    43    38    28    2
    44    40    34    1
    45    41    29    1
