@<TRIPOS>MOLECULE
outputs/IAG933/test6/raw/output_725_IAG933_linker_design_.xyz
 43 48 0 0 0
SMALL
GASTEIGER

@<TRIPOS>ATOM
      1 C         -24.8550   -1.0120   30.1430 C.3     1  UNL1        0.0610
      2 C         -24.9730   -2.5050   29.7880 C.2     1  UNL1       -0.0194
      3 C         -23.9060   -3.1730   29.1460 C.2     1  UNL1       -0.0042
      4 C         -23.9890   -4.5490   28.8530 C.2     1  UNL1       -0.0003
      5 C         -25.1370   -5.2800   29.2050 C.2     1  UNL1       -0.0000
      6 C         -26.2320   -4.6110   29.7840 C.2     1  UNL1       -0.0003
      7 C         -26.1550   -3.2320   30.0650 C.2     1  UNL1       -0.0042
      8 C         -25.3870   -0.6790   31.5710 C.3     1  UNL1        0.0786
      9 C         -25.1890    0.7730   32.0280 C.3     1  UNL1        0.0193
     10 C         -25.3360    0.6840   33.5440 C.3     1  UNL1        0.0202
     11 C         -24.8290   -0.7150   33.9050 C.3     1  UNL1        0.0887
     12 N         -24.7580   -1.4810   32.6460 N.3     1  UNL1       -0.2191
     13 C         -25.6880    1.6140   26.4610 C.2     1  UNL1        0.0443
     14 C         -26.2500    2.9200   26.3950 C.2     1  UNL1        0.0749
     15 C         -25.6420    4.0930   27.1230 C.2     1  UNL1        0.2662
     16 N         -25.6140    5.2520   26.4490 N.am    1  UNL1       -0.1997
     17 C         -25.0260    6.4790   26.9630 C.3     1  UNL1        0.1388
     18 O         -25.1430    3.9660   28.2430 O.2     1  UNL1       -0.2683
     19 C         -27.4380    3.0910   25.6450 C.2     1  UNL1        0.1065
     20 N         -28.0750    2.0890   25.0030 N.2     1  UNL1       -0.2081
     21 C         -27.5430    0.8490   25.0790 C.2     1  UNL1        0.2530
     22 O         -28.1930   -0.2080   24.4770 O.2     1  UNL1       -0.4558
     23 C         -29.4600    0.0050   23.8660 C.3     1  UNL1        0.2426
     24 C         -30.0650   -1.3770   23.5730 C.3     1  UNL1        0.2292
     25 O         -30.7290   -1.8780   24.7210 O.3     1  UNL1       -0.2162
     26 C         -26.3540    0.5760   25.7770 C.2     1  UNL1        0.1914
     27 F         -25.8600   -0.6810   25.7950 F       1  UNL1       -0.1995
     28 C         -30.7358    1.2653   28.0328 C.2     1  UNL1        0.0001
     29 CL        -22.9534    2.5620   25.4303 Cl      1  UNL1       -0.1048
     30 F         -20.9182    1.7331   27.3126 F       1  UNL1       -0.2078
     31 N         -26.8781   -0.2399   28.5938 N.pl3   1  UNL1       -0.2361
     32 C         -24.2528    0.3650   28.3931 C.3     1  UNL1        0.1595
     33 C         -28.4156    1.6532   28.7182 C.2     1  UNL1        0.0161
     34 C         -29.2329   -0.6403   28.2323 C.2     1  UNL1        0.0161
     35 C         -22.1758    1.2306   27.6648 C.2     1  UNL1        0.1333
     36 C         -29.7212    2.0821   28.5577 C.2     1  UNL1        0.0013
     37 C         -24.5156    1.3046   27.3320 C.3     1  UNL1        0.1617
     38 C         -28.0999    0.2585   28.5358 C.2     1  UNL1        0.0654
     39 C         -23.2477    1.7518   26.9081 C.3     1  UNL1        0.1606
     40 O         -24.7825    1.6737   28.6101 O.3     1  UNL1       -0.3463
     41 C         -22.6454    0.2606   28.5781 C.2     1  UNL1        0.0311
     42 C         -30.5143   -0.1301   27.9013 C.2     1  UNL1        0.0013
     43 C         -25.4930   -0.3444   28.8223 C.3     1  UNL1        0.1290
@<TRIPOS>BOND
     1     1    43    1
     2     2     7    1
     3     2     1    1
     4     3     2    2
     5     4     3    1
     6     4     5    2
     7     5     6    1
     8     6     7    2
     9     8     1    1
    10     8     9    1
    11     8    12    1
    12     9    10    1
    13    10    11    1
    14    12    11    1
    15    14    13    1
    16    14    15    1
    17    15    18    2
    18    16    17    1
    19    16    15    1
    20    19    14    2
    21    20    21    2
    22    20    19    1
    23    21    26    1
    24    22    21    1
    25    23    22    1
    26    24    23    1
    27    24    25    1
    28    26    27    1
    29    26    13    2
    30    28    36    1
    31    30    35    1
    32    32    41    1
    33    32    40    1
    34    32    43    1
    35    34    38    2
    36    35    41    2
    37    36    33    2
    38    37    13    1
    39    37    32    1
    40    37    40    1
    41    38    31    1
    42    38    33    1
    43    39    29    1
    44    39    37    1
    45    39    35    1
    46    42    28    2
    47    42    34    1
    48    43    31    1
