@<TRIPOS>MOLECULE
outputs/IAG933/test6/raw/output_7251_IAG933_linker_design_.xyz
 39 42 0 0 0
SMALL
GASTEIGER

@<TRIPOS>ATOM
      1 C         -24.8550   -1.0120   30.1430 C.3     1  UNL1        0.1289
      2 C         -24.9730   -2.5050   29.7880 C.2     1  UNL1       -0.0003
      3 C         -23.9060   -3.1730   29.1460 C.2     1  UNL1       -0.0024
      4 C         -23.9890   -4.5490   28.8530 C.2     1  UNL1       -0.0003
      5 C         -25.1370   -5.2800   29.2050 C.2     1  UNL1       -0.0000
      6 C         -26.2320   -4.6110   29.7840 C.2     1  UNL1       -0.0003
      7 C         -26.1550   -3.2320   30.0650 C.2     1  UNL1       -0.0024
      8 C         -25.3870   -0.6790   31.5710 C.3     1  UNL1        0.0978
      9 C         -25.1890    0.7730   32.0280 C.3     1  UNL1        0.0211
     10 C         -25.3360    0.6840   33.5440 C.3     1  UNL1        0.0203
     11 C         -24.8290   -0.7150   33.9050 C.3     1  UNL1        0.0888
     12 N         -24.7580   -1.4810   32.6460 N.3     1  UNL1       -0.2172
     13 C         -25.6880    1.6140   26.4610 C.2     1  UNL1        0.0417
     14 C         -26.2500    2.9200   26.3950 C.2     1  UNL1        0.0767
     15 C         -25.6420    4.0930   27.1230 C.2     1  UNL1        0.2664
     16 N         -25.6140    5.2520   26.4490 N.am    1  UNL1       -0.1997
     17 C         -25.0260    6.4790   26.9630 C.3     1  UNL1        0.1388
     18 O         -25.1430    3.9660   28.2430 O.2     1  UNL1       -0.2683
     19 C         -27.4380    3.0910   25.6450 C.2     1  UNL1        0.1067
     20 N         -28.0750    2.0890   25.0030 N.2     1  UNL1       -0.2081
     21 C         -27.5430    0.8490   25.0790 C.2     1  UNL1        0.2533
     22 O         -28.1930   -0.2080   24.4770 O.2     1  UNL1       -0.4558
     23 C         -29.4600    0.0050   23.8660 C.3     1  UNL1        0.2426
     24 C         -30.0650   -1.3770   23.5730 C.3     1  UNL1        0.2292
     25 O         -30.7290   -1.8780   24.7210 O.3     1  UNL1       -0.2162
     26 C         -26.3540    0.5760   25.7770 C.2     1  UNL1        0.1932
     27 F         -25.8600   -0.6810   25.7950 F       1  UNL1       -0.1992
     28 N         -24.2979   -0.0679   29.1966 N.ar    1  UNL1       -0.2666
     29 F         -21.7341    2.2769   25.7270 F       1  UNL1       -0.1931
     30 C         -23.3721    1.4030   27.1311 C.ar    1  UNL1        0.0910
     31 C         -24.6369    1.1650   27.3601 C.ar    1  UNL1        0.0514
     32 C         -23.0186    2.1060   25.9449 C.3     1  UNL1        0.3443
     33 O         -22.3053   -0.3405   30.1004 O.2     1  UNL1       -0.2634
     34 F         -26.4200    0.0032   28.3917 F       1  UNL1       -0.1849
     35 C         -23.0409    0.1607   29.1766 C.ar    1  UNL1        0.3016
     36 C         -22.5274    0.9271   28.1486 C.ar    1  UNL1        0.2527
     37 F         -23.5144    1.2928   24.8833 F       1  UNL1       -0.1931
     38 O         -21.2220    1.2611   28.2071 O.3     1  UNL1       -0.2816
     39 C         -25.1262    0.4049   28.3281 C.ar    1  UNL1        0.2064
@<TRIPOS>BOND
     1     1     2    1
     2     2     7    1
     3     3     2    2
     4     4     3    1
     5     4     5    2
     6     5     6    1
     7     6     7    2
     8     8     1    1
     9     8     9    1
    10     8    12    1
    11     9    10    1
    12    10    11    1
    13    12    11    1
    14    13    31    1
    15    14    13    1
    16    14    15    1
    17    15    18    2
    18    16    17    1
    19    16    15    1
    20    19    14    2
    21    20    21    2
    22    20    19    1
    23    21    26    1
    24    22    21    1
    25    23    22    1
    26    24    23    1
    27    24    25    1
    28    26    27    1
    29    26    13    2
    30    28     1    1
    31    29    32    1
    32    30    31   ar
    33    30    36   ar
    34    31    39   ar
    35    32    30    1
    36    35    28   ar
    37    35    33    2
    38    36    38    1
    39    36    35   ar
    40    37    32    1
    41    39    34    1
    42    39    28   ar
