@<TRIPOS>MOLECULE
outputs/IAG933/test6/raw/output_7253_IAG933_linker_design_.xyz
 44 47 0 0 0
SMALL
GASTEIGER

@<TRIPOS>ATOM
      1 C         -24.8550   -1.0120   30.1430 C.3     1  UNL1        0.0437
      2 C         -24.9730   -2.5050   29.7880 C.2     1  UNL1       -0.0208
      3 C         -23.9060   -3.1730   29.1460 C.2     1  UNL1       -0.0042
      4 C         -23.9890   -4.5490   28.8530 C.2     1  UNL1       -0.0003
      5 C         -25.1370   -5.2800   29.2050 C.2     1  UNL1       -0.0000
      6 C         -26.2320   -4.6110   29.7840 C.2     1  UNL1       -0.0003
      7 C         -26.1550   -3.2320   30.0650 C.2     1  UNL1       -0.0042
      8 C         -25.3870   -0.6790   31.5710 C.3     1  UNL1        0.0777
      9 C         -25.1890    0.7730   32.0280 C.3     1  UNL1        0.0288
     10 C         -25.3360    0.6840   33.5440 C.3     1  UNL1        0.0208
     11 C         -24.8290   -0.7150   33.9050 C.3     1  UNL1        0.0887
     12 N         -24.7580   -1.4810   32.6460 N.3     1  UNL1       -0.2191
     13 C         -25.6880    1.6140   26.4610 C.3     1  UNL1        0.0901
     14 C         -26.2500    2.9200   26.3950 C.2     1  UNL1        0.0565
     15 C         -25.6420    4.0930   27.1230 C.2     1  UNL1        0.2625
     16 N         -25.6140    5.2520   26.4490 N.am    1  UNL1       -0.2000
     17 C         -25.0260    6.4790   26.9630 C.3     1  UNL1        0.1388
     18 O         -25.1430    3.9660   28.2430 O.2     1  UNL1       -0.2687
     19 C         -27.4380    3.0910   25.6450 C.2     1  UNL1        0.1022
     20 N         -28.0750    2.0890   25.0030 N.2     1  UNL1       -0.2119
     21 C         -27.5430    0.8490   25.0790 C.2     1  UNL1        0.2341
     22 O         -28.1930   -0.2080   24.4770 O.2     1  UNL1       -0.4585
     23 C         -29.4600    0.0050   23.8660 C.3     1  UNL1        0.2423
     24 C         -30.0650   -1.3770   23.5730 C.3     1  UNL1        0.2292
     25 O         -30.7290   -1.8780   24.7210 O.3     1  UNL1       -0.2162
     26 C         -26.3540    0.5760   25.7770 C.3     1  UNL1        0.2417
     27 F         -25.8600   -0.6810   25.7950 F       1  UNL1       -0.2268
     28 C         -24.5834    6.4371   35.0060 C.3     1  UNL1        0.0949
     29 C         -23.1550    2.2494   25.5007 C.3     1  UNL1        0.0018
     30 O         -27.4509    1.6174   29.6079 O.2     1  UNL1       -0.2733
     31 N         -25.6323    5.3944   32.8969 N.am    1  UNL1       -0.2541
     32 O         -24.3849    3.5911   31.8780 O.3     1  UNL1       -0.3363
     33 C         -24.2601    4.8063   32.5378 C.3     1  UNL1        0.2424
     34 C         -24.7073    1.2941   27.5014 C.3     1  UNL1        0.1026
     35 C         -25.7666    6.0210   34.1521 C.2     1  UNL1        0.2279
     36 C         -25.7399    3.1616   31.9049 C.3     1  UNL1        0.1275
     37 C         -26.8684    5.0747   32.2844 C.3     1  UNL1        0.0982
     38 O         -26.8645    6.0091   34.7020 O.2     1  UNL1       -0.2748
     39 C         -26.3026    1.6057   29.9205 C.2     1  UNL1        0.2433
     40 C         -22.1308    1.6515   27.7778 C.3     1  UNL1        0.0018
     41 C         -23.2923    1.5093   26.8448 C.3     1  UNL1        0.0204
     42 C         -25.7928    1.9314   31.2514 C.3     1  UNL1        0.1068
     43 N         -25.3305    1.5991   28.8979 N.am    1  UNL1       -0.2067
     44 C         -26.8265    4.0383   31.4844 C.3     1  UNL1        0.0517
@<TRIPOS>BOND
     1     2     7    1
     2     2     1    1
     3     3     2    2
     4     4     3    1
     5     4     5    2
     6     5     6    1
     7     6     7    2
     8     8     1    1
     9     8     9    1
    10     8    12    1
    11     9    42    1
    12     9    10    1
    13    10    11    1
    14    12    11    1
    15    13    34    1
    16    14    13    1
    17    14    15    1
    18    15    18    2
    19    16    17    1
    20    16    15    1
    21    19    14    2
    22    20    21    2
    23    20    19    1
    24    21    26    1
    25    22    21    1
    26    23    22    1
    27    24    23    1
    28    24    25    1
    29    26    27    1
    30    26    13    1
    31    29    41    1
    32    30    39    2
    33    31    35   am
    34    32    36    1
    35    32    33    1
    36    33    31    1
    37    34    41    1
    38    34    43    1
    39    35    38    2
    40    35    28    1
    41    36    42    1
    42    37    31    1
    43    41    40    1
    44    42    39    1
    45    43    39    1
    46    44    36    1
    47    44    37    1
