@<TRIPOS>MOLECULE
outputs/IAG933/test6/raw/output_7259_IAG933_linker_design_.xyz
 47 51 0 0 0
SMALL
GASTEIGER

@<TRIPOS>ATOM
      1 C         -24.8550   -1.0120   30.1430 C.3     1  UNL1        0.0674
      2 C         -24.9730   -2.5050   29.7880 C.2     1  UNL1       -0.0187
      3 C         -23.9060   -3.1730   29.1460 C.2     1  UNL1       -0.0042
      4 C         -23.9890   -4.5490   28.8530 C.2     1  UNL1       -0.0003
      5 C         -25.1370   -5.2800   29.2050 C.2     1  UNL1       -0.0000
      6 C         -26.2320   -4.6110   29.7840 C.2     1  UNL1       -0.0003
      7 C         -26.1550   -3.2320   30.0650 C.2     1  UNL1       -0.0042
      8 C         -25.3870   -0.6790   31.5710 C.3     1  UNL1        0.0792
      9 C         -25.1890    0.7730   32.0280 C.3     1  UNL1        0.0193
     10 C         -25.3360    0.6840   33.5440 C.3     1  UNL1        0.0202
     11 C         -24.8290   -0.7150   33.9050 C.3     1  UNL1        0.0887
     12 N         -24.7580   -1.4810   32.6460 N.3     1  UNL1       -0.2190
     13 C         -25.6880    1.6140   26.4610 C.2     1  UNL1        0.0263
     14 C         -26.2500    2.9200   26.3950 C.2     1  UNL1        0.0731
     15 C         -25.6420    4.0930   27.1230 C.2     1  UNL1        0.2661
     16 N         -25.6140    5.2520   26.4490 N.am    1  UNL1       -0.1997
     17 C         -25.0260    6.4790   26.9630 C.3     1  UNL1        0.1388
     18 O         -25.1430    3.9660   28.2430 O.2     1  UNL1       -0.2683
     19 C         -27.4380    3.0910   25.6450 C.2     1  UNL1        0.1064
     20 N         -28.0750    2.0890   25.0030 N.2     1  UNL1       -0.2081
     21 C         -27.5430    0.8490   25.0790 C.2     1  UNL1        0.2530
     22 O         -28.1930   -0.2080   24.4770 O.2     1  UNL1       -0.4558
     23 C         -29.4600    0.0050   23.8660 C.3     1  UNL1        0.2426
     24 C         -30.0650   -1.3770   23.5730 C.3     1  UNL1        0.2292
     25 O         -30.7290   -1.8780   24.7210 O.3     1  UNL1       -0.2162
     26 C         -26.3540    0.5760   25.7770 C.2     1  UNL1        0.1896
     27 F         -25.8600   -0.6810   25.7950 F       1  UNL1       -0.1996
     28 C         -21.7975    1.9853   24.6646 C.3     1  UNL1        0.2539
     29 O         -31.3586    0.8339   27.5188 O.3     1  UNL1       -0.3291
     30 C         -23.2864    1.6079   26.5461 C.2     1  UNL1        0.2074
     31 N         -22.2611    1.7690   27.3649 N.2     1  UNL1       -0.1933
     32 O         -23.0996    1.7504   25.2032 O.2     1  UNL1       -0.4589
     33 O         -30.6646    2.9809   27.4818 O.3     1  UNL1       -0.1911
     34 C         -25.6825   -0.3363   28.9816 C.3     1  UNL1        0.1436
     35 C         -22.3747    1.3048   28.6713 C.2     1  UNL1        0.1966
     36 N         -23.4150    0.6504   29.0981 N.2     1  UNL1       -0.2487
     37 C         -29.3607    1.5045   28.9581 C.3     1  UNL1        0.1414
     38 C         -28.3649   -0.8413   29.1606 C.3     1  UNL1        0.1460
     39 O         -32.8724    1.9922   29.9563 O.3     1  UNL1       -0.2148
     40 C         -30.3689   -0.2761   27.5036 C.3     1  UNL1        0.1487
     41 C         -24.5172    1.2649   27.0880 C.3     1  UNL1        0.1257
     42 C         -29.2519    0.1527   28.5893 C.3     1  UNL1        0.0794
     43 O         -27.1140    0.0184   29.2369 O.3     1  UNL1       -0.3537
     44 C         -31.4537    2.0970   29.6696 C.3     1  UNL1        0.2420
     45 C         -24.5427    0.5900   28.3669 C.3     1  UNL1        0.1451
     46 C         -30.7874    1.9519   28.4044 C.3     1  UNL1        0.2639
     47 CL        -28.2945    2.8276   29.5518 Cl      1  UNL1       -0.1095
@<TRIPOS>BOND
     1     1    34    1
     2     2     7    1
     3     2     1    1
     4     3     2    2
     5     4     3    1
     6     4     5    2
     7     5     6    1
     8     6     7    2
     9     8     1    1
    10     8     9    1
    11     8    12    1
    12     9    10    1
    13    10    11    1
    14    12    11    1
    15    14    13    1
    16    14    15    1
    17    15    18    2
    18    16    17    1
    19    16    15    1
    20    19    14    2
    21    20    21    2
    22    20    19    1
    23    21    26    1
    24    22    21    1
    25    23    22    1
    26    24    23    1
    27    24    25    1
    28    26    27    1
    29    26    13    2
    30    28    32    1
    31    29    46    1
    32    30    41    1
    33    30    31    2
    34    31    35    1
    35    32    30    1
    36    34    43    1
    37    35    36    2
    38    37    47    1
    39    38    43    1
    40    40    29    1
    41    40    42    1
    42    41    13    1
    43    41    45    1
    44    42    37    1
    45    42    38    1
    46    44    39    1
    47    45    34    1
    48    45    36    1
    49    46    33    1
    50    46    37    1
    51    46    44    1
