@<TRIPOS>MOLECULE
No_726-gen_results/8p0m/2024-11-27-11-27-31/
 21 22 0 0 0
SMALL
GASTEIGER

@<TRIPOS>ATOM
      1 C         -28.0162   -0.8135   28.8779 C.3     1  UNL1        0.0954
      2 C         -27.0636   -0.1189   28.6079 C.ar    1  UNL1       -0.0145
      3 C         -27.0010    0.6913   27.4910 C.ar    1  UNL1       -0.0037
      4 C         -25.8548    1.4825   27.0830 C.ar    1  UNL1        0.0043
      5 C         -24.6901    1.4526   27.8807 C.ar    1  UNL1        0.0566
      6 C         -24.7379    0.6010   29.0416 C.ar    1  UNL1        0.0043
      7 C         -25.8234   -0.1688   29.3887 C.ar    1  UNL1       -0.0037
      8 C         -29.2455   -0.0678   29.1937 C.2     1  UNL1        0.1774
      9 C         -30.3313   -0.8312   29.6878 C.ar    1  UNL1        0.0352
     10 C         -30.5336   -0.9512   30.7566 C.ar    1  UNL1        0.0029
     11 C         -31.5467   -1.7945   31.3172 C.ar    1  UNL1        0.0003
     12 C         -32.4044   -2.4080   30.3839 C.ar    1  UNL1        0.0066
     13 C         -32.1900   -2.2444   29.0729 C.ar    1  UNL1        0.0799
     14 C         -31.1369   -1.4619   28.6548 C.ar    1  UNL1        0.0094
     15 O         -29.3279    1.1879   28.9635 O.2     1  UNL1       -0.2910
     16 C         -23.5083    2.1684   27.5611 C.2     1  UNL1        0.2842
     17 N         -22.4611    1.6580   27.2347 N.am    1  UNL1       -0.0837
     18 O         -23.5300    3.4507   27.7780 O.2     1  UNL1       -0.2667
     19 C         -33.0328   -2.8904   28.0710 C.2     1  UNL1        0.3878
     20 O         -32.6226   -3.8328   27.4162 O.co2   1  UNL1       -0.2406
     21 O         -34.2227   -2.4514   27.7981 O.co2   1  UNL1       -0.2406
@<TRIPOS>BOND
     1     1     2    1
     2     1     8    1
     3     8     9    1
     4     8    15    2
     5     5    16    1
     6    16    17   am
     7    16    18    2
     8    13    19    1
     9    19    20   ar
    10    19    21   ar
    11     2     3   ar
    12     3     4   ar
    13     4     5   ar
    14     5     6   ar
    15     6     7   ar
    16     7     2   ar
    17     9    10   ar
    18    10    11   ar
    19    11    12   ar
    20    12    13   ar
    21    13    14   ar
    22    14     9   ar
