@<TRIPOS>MOLECULE
outputs/IAG933/test6/raw/output_7261_IAG933_linker_design_.xyz
 41 45 0 0 0
SMALL
GASTEIGER

@<TRIPOS>ATOM
      1 C         -24.8550   -1.0120   30.1430 C.3     1  UNL1        0.0437
      2 C         -24.9730   -2.5050   29.7880 C.2     1  UNL1       -0.0208
      3 C         -23.9060   -3.1730   29.1460 C.2     1  UNL1       -0.0042
      4 C         -23.9890   -4.5490   28.8530 C.2     1  UNL1       -0.0003
      5 C         -25.1370   -5.2800   29.2050 C.2     1  UNL1       -0.0000
      6 C         -26.2320   -4.6110   29.7840 C.2     1  UNL1       -0.0003
      7 C         -26.1550   -3.2320   30.0650 C.2     1  UNL1       -0.0042
      8 C         -25.3870   -0.6790   31.5710 C.3     1  UNL1        0.0772
      9 C         -25.1890    0.7730   32.0280 C.3     1  UNL1        0.0195
     10 C         -25.3360    0.6840   33.5440 C.3     1  UNL1        0.0203
     11 C         -24.8290   -0.7150   33.9050 C.3     1  UNL1        0.0887
     12 N         -24.7580   -1.4810   32.6460 N.3     1  UNL1       -0.2191
     13 C         -25.6880    1.6140   26.4610 C.2     1  UNL1        0.0303
     14 C         -26.2500    2.9200   26.3950 C.2     1  UNL1        0.0738
     15 C         -25.6420    4.0930   27.1230 C.2     1  UNL1        0.2662
     16 N         -25.6140    5.2520   26.4490 N.am    1  UNL1       -0.1997
     17 C         -25.0260    6.4790   26.9630 C.3     1  UNL1        0.1388
     18 O         -25.1430    3.9660   28.2430 O.2     1  UNL1       -0.2683
     19 C         -27.4380    3.0910   25.6450 C.2     1  UNL1        0.1065
     20 N         -28.0750    2.0890   25.0030 N.2     1  UNL1       -0.2081
     21 C         -27.5430    0.8490   25.0790 C.2     1  UNL1        0.2530
     22 O         -28.1930   -0.2080   24.4770 O.2     1  UNL1       -0.4558
     23 C         -29.4600    0.0050   23.8660 C.3     1  UNL1        0.2426
     24 C         -30.0650   -1.3770   23.5730 C.3     1  UNL1        0.2292
     25 O         -30.7290   -1.8780   24.7210 O.3     1  UNL1       -0.2162
     26 C         -26.3540    0.5760   25.7770 C.2     1  UNL1        0.1904
     27 F         -25.8600   -0.6810   25.7950 F       1  UNL1       -0.1995
     28 C         -23.3471    1.7010   25.8958 C.3     1  UNL1        0.0220
     29 C         -26.3776    3.2918   32.6084 C.2     1  UNL1       -0.0043
     30 C         -24.6933    5.0580   32.7699 C.2     1  UNL1       -0.0043
     31 N         -23.7755    1.6001   28.2757 N.3     1  UNL1       -0.2702
     32 C         -25.5249    5.7797   33.6464 C.2     1  UNL1       -0.0003
     33 C         -24.2798    1.2727   27.0001 C.3     1  UNL1        0.0827
     34 C         -24.0692    2.9396   31.5561 C.3     1  UNL1        0.0278
     35 C         -23.6223    1.6528   29.7099 C.3     1  UNL1        0.0727
     36 C         -26.7156    5.1917   34.0860 C.2     1  UNL1       -0.0000
     37 C         -22.2218    1.4134   27.9334 C.3     1  UNL1        0.0724
     38 C         -22.0920    2.0615   26.6050 C.3     1  UNL1        0.0191
     39 C         -25.0818    3.7812   32.3406 C.2     1  UNL1       -0.0221
     40 C         -24.6161    1.6955   30.8551 C.3     1  UNL1        0.0217
     41 C         -27.1382    3.9487   33.5893 C.2     1  UNL1       -0.0003
@<TRIPOS>BOND
     1     2     7    1
     2     2     1    1
     3     3     2    2
     4     4     3    1
     5     4     5    2
     6     5     6    1
     7     6     7    2
     8     8     1    1
     9     8     9    1
    10     8    12    1
    11     9    40    1
    12     9    10    1
    13    10    11    1
    14    12    11    1
    15    14    13    1
    16    14    15    1
    17    15    18    2
    18    16    17    1
    19    16    15    1
    20    19    14    2
    21    20    21    2
    22    20    19    1
    23    21    26    1
    24    22    21    1
    25    23    22    1
    26    24    23    1
    27    24    25    1
    28    26    27    1
    29    26    13    2
    30    28    38    1
    31    28    33    1
    32    29    41    1
    33    30    32    2
    34    31    35    1
    35    32    36    1
    36    33    13    1
    37    33    31    1
    38    34    39    1
    39    37    31    1
    40    38    37    1
    41    39    29    2
    42    39    30    1
    43    40    35    1
    44    40    34    1
    45    41    36    2
