@<TRIPOS>MOLECULE
outputs/IAG933/test6/raw/output_7266_IAG933_linker_design_.xyz
 42 46 0 0 0
SMALL
GASTEIGER

@<TRIPOS>ATOM
      1 C         -24.8550   -1.0120   30.1430 C.3     1  UNL1        0.0625
      2 C         -24.9730   -2.5050   29.7880 C.2     1  UNL1       -0.0191
      3 C         -23.9060   -3.1730   29.1460 C.2     1  UNL1       -0.0042
      4 C         -23.9890   -4.5490   28.8530 C.2     1  UNL1       -0.0003
      5 C         -25.1370   -5.2800   29.2050 C.2     1  UNL1       -0.0000
      6 C         -26.2320   -4.6110   29.7840 C.2     1  UNL1       -0.0003
      7 C         -26.1550   -3.2320   30.0650 C.2     1  UNL1       -0.0042
      8 C         -25.3870   -0.6790   31.5710 C.3     1  UNL1        0.0788
      9 C         -25.1890    0.7730   32.0280 C.3     1  UNL1        0.0193
     10 C         -25.3360    0.6840   33.5440 C.3     1  UNL1        0.0202
     11 C         -24.8290   -0.7150   33.9050 C.3     1  UNL1        0.0887
     12 N         -24.7580   -1.4810   32.6460 N.3     1  UNL1       -0.2191
     13 C         -25.6880    1.6140   26.4610 C.3     1  UNL1        0.0779
     14 C         -26.2500    2.9200   26.3950 C.2     1  UNL1        0.0552
     15 C         -25.6420    4.0930   27.1230 C.2     1  UNL1        0.2625
     16 N         -25.6140    5.2520   26.4490 N.am    1  UNL1       -0.2000
     17 C         -25.0260    6.4790   26.9630 C.3     1  UNL1        0.1388
     18 O         -25.1430    3.9660   28.2430 O.2     1  UNL1       -0.2687
     19 C         -27.4380    3.0910   25.6450 C.2     1  UNL1        0.1022
     20 N         -28.0750    2.0890   25.0030 N.2     1  UNL1       -0.2119
     21 C         -27.5430    0.8490   25.0790 C.2     1  UNL1        0.2341
     22 O         -28.1930   -0.2080   24.4770 O.2     1  UNL1       -0.4585
     23 C         -29.4600    0.0050   23.8660 C.3     1  UNL1        0.2423
     24 C         -30.0650   -1.3770   23.5730 C.3     1  UNL1        0.2292
     25 O         -30.7290   -1.8780   24.7210 O.3     1  UNL1       -0.2162
     26 C         -26.3540    0.5760   25.7770 C.3     1  UNL1        0.2404
     27 F         -25.8600   -0.6810   25.7950 F       1  UNL1       -0.2269
     28 C         -20.9903   -0.2046   28.6895 C.2     1  UNL1        0.0028
     29 C         -23.3421    0.2708   28.6489 C.2     1  UNL1       -0.0032
     30 C         -23.2132    1.0710   27.5490 C.2     1  UNL1        0.0132
     31 C         -24.1756    1.6333   26.5746 C.3     1  UNL1        0.0761
     32 C         -21.9211    1.3791   27.0275 C.2     1  UNL1        0.1344
     33 N         -25.6430    1.0773   29.1218 N.am    1  UNL1       -0.2023
     34 O         -27.5372    0.0202   28.3984 O.2     1  UNL1       -0.2733
     35 C         -26.9855    0.8432   29.1040 C.2     1  UNL1        0.2416
     36 C         -24.7459    0.0091   29.0218 C.3     1  UNL1        0.1226
     37 O         -21.9513    2.1331   25.8915 O.2     1  UNL1       -0.4754
     38 C         -27.4076    3.1544   30.2446 C.3     1  UNL1        0.0101
     39 C         -22.2806   -0.3580   29.2632 C.2     1  UNL1       -0.0027
     40 C         -20.8299    0.7407   27.6649 C.2     1  UNL1        0.0366
     41 C         -23.2720    2.5079   25.6482 C.3     1  UNL1        0.2101
     42 C         -27.7983    1.7112   29.9997 C.3     1  UNL1        0.0868
@<TRIPOS>BOND
     1     1    36    1
     2     2     7    1
     3     2     1    1
     4     3     2    2
     5     4     3    1
     6     4     5    2
     7     5     6    1
     8     6     7    2
     9     8     1    1
    10     8     9    1
    11     8    12    1
    12     9    10    1
    13    10    11    1
    14    12    11    1
    15    13    14    1
    16    13    31    1
    17    14    15    1
    18    15    18    2
    19    16    17    1
    20    16    15    1
    21    19    14    2
    22    20    21    2
    23    20    19    1
    24    21    26    1
    25    22    21    1
    26    23    22    1
    27    24    23    1
    28    24    25    1
    29    26    27    1
    30    26    13    1
    31    28    39    1
    32    29    36    1
    33    29    39    2
    34    30    29    1
    35    31    41    1
    36    31    30    1
    37    32    30    2
    38    32    40    1
    39    34    35    2
    40    35    33    1
    41    35    42    1
    42    36    33    1
    43    37    32    1
    44    40    28    2
    45    41    37    1
    46    42    38    1
