@<TRIPOS>MOLECULE
outputs/IAG933/test6/raw/output_7271_IAG933_linker_design_.xyz
 45 47 0 0 0
SMALL
GASTEIGER

@<TRIPOS>ATOM
      1 C         -24.8550   -1.0120   30.1430 C.3     1  UNL1        0.0637
      2 C         -24.9730   -2.5050   29.7880 C.2     1  UNL1       -0.0191
      3 C         -23.9060   -3.1730   29.1460 C.2     1  UNL1       -0.0042
      4 C         -23.9890   -4.5490   28.8530 C.2     1  UNL1       -0.0003
      5 C         -25.1370   -5.2800   29.2050 C.2     1  UNL1       -0.0000
      6 C         -26.2320   -4.6110   29.7840 C.2     1  UNL1       -0.0003
      7 C         -26.1550   -3.2320   30.0650 C.2     1  UNL1       -0.0042
      8 C         -25.3870   -0.6790   31.5710 C.3     1  UNL1        0.0788
      9 C         -25.1890    0.7730   32.0280 C.3     1  UNL1        0.0193
     10 C         -25.3360    0.6840   33.5440 C.3     1  UNL1        0.0202
     11 C         -24.8290   -0.7150   33.9050 C.3     1  UNL1        0.0887
     12 N         -24.7580   -1.4810   32.6460 N.3     1  UNL1       -0.2191
     13 C         -25.6880    1.6140   26.4610 C.2     1  UNL1        0.0358
     14 C         -26.2500    2.9200   26.3950 C.2     1  UNL1        0.0742
     15 C         -25.6420    4.0930   27.1230 C.2     1  UNL1        0.2662
     16 N         -25.6140    5.2520   26.4490 N.am    1  UNL1       -0.1997
     17 C         -25.0260    6.4790   26.9630 C.3     1  UNL1        0.1388
     18 O         -25.1430    3.9660   28.2430 O.2     1  UNL1       -0.2683
     19 C         -27.4380    3.0910   25.6450 C.2     1  UNL1        0.1065
     20 N         -28.0750    2.0890   25.0030 N.2     1  UNL1       -0.2081
     21 C         -27.5430    0.8490   25.0790 C.2     1  UNL1        0.2530
     22 O         -28.1930   -0.2080   24.4770 O.2     1  UNL1       -0.4558
     23 C         -29.4600    0.0050   23.8660 C.3     1  UNL1        0.2426
     24 C         -30.0650   -1.3770   23.5730 C.3     1  UNL1        0.2292
     25 O         -30.7290   -1.8780   24.7210 O.3     1  UNL1       -0.2162
     26 C         -26.3540    0.5760   25.7770 C.2     1  UNL1        0.1907
     27 F         -25.8600   -0.6810   25.7950 F       1  UNL1       -0.1995
     28 C         -28.2057    4.0493   32.6645 C.2     1  UNL1        0.3477
     29 N         -24.6122    1.0136   28.6380 N.am    1  UNL1       -0.2699
     30 O         -29.2261    3.7243   31.7457 O.3     1  UNL1       -0.4468
     31 C         -27.1087    2.0888   29.5245 C.3     1  UNL1        0.0701
     32 C         -28.5543    2.5866   29.4672 C.3     1  UNL1        0.0552
     33 O         -28.6491    4.1836   33.9210 O.2     1  UNL1       -0.2473
     34 O         -22.6225   -0.5482   29.0727 O.2     1  UNL1       -0.2749
     35 O         -26.1661    4.6670   33.4925 O.3     1  UNL1       -0.2111
     36 C         -21.7663    1.7217   26.7317 C.3     1  UNL1        0.0101
     37 C         -26.4870    5.4469   31.2237 C.3     1  UNL1        0.0478
     38 C         -22.3454    1.7891   28.1833 C.3     1  UNL1        0.0853
     39 C         -25.5931   -0.0465   29.0563 C.3     1  UNL1        0.1383
     40 O         -27.9648    0.0454   28.4701 O.2     1  UNL1       -0.2943
     41 C         -24.6321    1.3065   27.2133 C.3     1  UNL1        0.1231
     42 C         -26.8036    4.2922   32.2633 C.3     1  UNL1        0.2498
     43 C         -26.9778    0.6480   28.9406 C.2     1  UNL1        0.1690
     44 C         -29.0109    3.7997   30.2805 C.3     1  UNL1        0.2090
     45 C         -23.2926    0.6555   28.6954 C.2     1  UNL1        0.2262
@<TRIPOS>BOND
     1     1    39    1
     2     2     7    1
     3     2     1    1
     4     3     2    2
     5     4     3    1
     6     4     5    2
     7     5     6    1
     8     6     7    2
     9     8     1    1
    10     8     9    1
    11     8    12    1
    12     9    10    1
    13    10    11    1
    14    12    11    1
    15    13    41    1
    16    14    13    1
    17    14    15    1
    18    15    18    2
    19    16    17    1
    20    16    15    1
    21    19    14    2
    22    20    21    2
    23    20    19    1
    24    21    26    1
    25    22    21    1
    26    23    22    1
    27    24    23    1
    28    24    25    1
    29    26    27    1
    30    26    13    2
    31    28    33    2
    32    29    45   am
    33    29    39    1
    34    30    28    1
    35    32    31    1
    36    32    44    1
    37    36    38    1
    38    38    45    1
    39    39    43    1
    40    40    43    2
    41    41    29    1
    42    42    37    1
    43    42    28    1
    44    42    35    1
    45    43    31    1
    46    44    30    1
    47    45    34    2
