@<TRIPOS>MOLECULE
outputs/IAG933/test6/raw/output_7273_IAG933_linker_design_.xyz
 42 46 0 0 0
SMALL
GASTEIGER

@<TRIPOS>ATOM
      1 C         -24.8550   -1.0120   30.1430 C.3     1  UNL1        0.1228
      2 C         -24.9730   -2.5050   29.7880 C.2     1  UNL1       -0.0023
      3 C         -23.9060   -3.1730   29.1460 C.2     1  UNL1       -0.0026
      4 C         -23.9890   -4.5490   28.8530 C.2     1  UNL1       -0.0003
      5 C         -25.1370   -5.2800   29.2050 C.2     1  UNL1       -0.0000
      6 C         -26.2320   -4.6110   29.7840 C.2     1  UNL1       -0.0003
      7 C         -26.1550   -3.2320   30.0650 C.2     1  UNL1       -0.0026
      8 C         -25.3870   -0.6790   31.5710 C.3     1  UNL1        0.0958
      9 C         -25.1890    0.7730   32.0280 C.3     1  UNL1        0.0209
     10 C         -25.3360    0.6840   33.5440 C.3     1  UNL1        0.0203
     11 C         -24.8290   -0.7150   33.9050 C.3     1  UNL1        0.0888
     12 N         -24.7580   -1.4810   32.6460 N.3     1  UNL1       -0.2174
     13 C         -25.6880    1.6140   26.4610 C.2     1  UNL1        0.0263
     14 C         -26.2500    2.9200   26.3950 C.2     1  UNL1        0.0714
     15 C         -25.6420    4.0930   27.1230 C.2     1  UNL1        0.2314
     16 N         -25.6140    5.2520   26.4490 N.2     1  UNL1       -0.2352
     17 C         -25.0260    6.4790   26.9630 C.3     1  UNL1        0.1550
     18 O         -25.1430    3.9660   28.2430 O.3     1  UNL1       -0.3913
     19 C         -27.4380    3.0910   25.6450 C.2     1  UNL1        0.1065
     20 N         -28.0750    2.0890   25.0030 N.2     1  UNL1       -0.2081
     21 C         -27.5430    0.8490   25.0790 C.2     1  UNL1        0.2530
     22 O         -28.1930   -0.2080   24.4770 O.2     1  UNL1       -0.4558
     23 C         -29.4600    0.0050   23.8660 C.3     1  UNL1        0.2426
     24 C         -30.0650   -1.3770   23.5730 C.3     1  UNL1        0.2292
     25 O         -30.7290   -1.8780   24.7210 O.3     1  UNL1       -0.2162
     26 C         -26.3540    0.5760   25.7770 C.2     1  UNL1        0.1896
     27 F         -25.8600   -0.6810   25.7950 F       1  UNL1       -0.1996
     28 F         -20.5519    0.3710   28.0636 F       1  UNL1       -0.2072
     29 O         -25.6738    4.1262   30.3474 O.2     1  UNL1       -0.2240
     30 C         -24.4350    1.4966   27.2426 C.3     1  UNL1        0.1246
     31 N         -25.2875    2.1166   29.4783 N.am    1  UNL1       -0.1463
     32 N         -27.6435   -0.7410   28.6160 N.1     1  UNL1       -0.1740
     33 N         -25.3592   -0.0912   29.0771 N.pl3   1  UNL1       -0.2240
     34 C         -22.9085    0.5205   28.8587 C.2     1  UNL1        0.1269
     35 C         -23.2988    2.1358   26.6059 C.2     1  UNL1        0.1648
     36 C         -25.3553    3.4036   29.4043 C.2     1  UNL1        0.4286
     37 C         -21.7890    0.9120   27.9300 C.2     1  UNL1        0.1408
     38 O         -23.2813    2.7873   25.5184 O.2     1  UNL1       -0.2952
     39 N         -22.3454   -0.3840   29.8114 N.pl3   1  UNL1       -0.1273
     40 C         -26.5645   -0.3527   28.6463 C.1     1  UNL1        0.1721
     41 C         -24.5811    1.1533   28.6053 C.3     1  UNL1        0.1957
     42 C         -21.9453    1.7440   26.8098 C.3     1  UNL1        0.1225
@<TRIPOS>BOND
     1     1    33    1
     2     2     7    1
     3     2     1    1
     4     3     2    2
     5     4     3    1
     6     4     5    2
     7     5     6    1
     8     6     7    2
     9     8     1    1
    10     8     9    1
    11     8    12    1
    12     9    10    1
    13    10    11    1
    14    12    11    1
    15    14    13    1
    16    14    15    1
    17    15    18    1
    18    16    17    1
    19    16    15    2
    20    18    36    1
    21    19    14    2
    22    20    21    2
    23    20    19    1
    24    21    26    1
    25    22    21    1
    26    23    22    1
    27    24    23    1
    28    24    25    1
    29    26    27    1
    30    26    13    2
    31    30    13    1
    32    30    41    1
    33    32    40    3
    34    34    39    1
    35    35    42    1
    36    35    30    1
    37    36    31    1
    38    36    29    2
    39    37    28    1
    40    37    34    2
    41    38    35    2
    42    40    33    1
    43    41    34    1
    44    41    33    1
    45    41    31    1
    46    42    37    1
