@<TRIPOS>MOLECULE
outputs/IAG933/test6/raw/output_7274_IAG933_linker_design_.xyz
 44 48 0 0 0
SMALL
GASTEIGER

@<TRIPOS>ATOM
      1 C         -24.8550   -1.0120   30.1430 C.3     1  UNL1        0.0619
      2 C         -24.9730   -2.5050   29.7880 C.2     1  UNL1       -0.0170
      3 C         -23.9060   -3.1730   29.1460 C.2     1  UNL1       -0.0039
      4 C         -23.9890   -4.5490   28.8530 C.2     1  UNL1       -0.0003
      5 C         -25.1370   -5.2800   29.2050 C.2     1  UNL1       -0.0000
      6 C         -26.2320   -4.6110   29.7840 C.2     1  UNL1       -0.0003
      7 C         -26.1550   -3.2320   30.0650 C.2     1  UNL1       -0.0039
      8 C         -25.3870   -0.6790   31.5710 C.3     1  UNL1        0.0809
      9 C         -25.1890    0.7730   32.0280 C.3     1  UNL1        0.0195
     10 C         -25.3360    0.6840   33.5440 C.3     1  UNL1        0.0203
     11 C         -24.8290   -0.7150   33.9050 C.3     1  UNL1        0.0887
     12 N         -24.7580   -1.4810   32.6460 N.3     1  UNL1       -0.2188
     13 C         -25.6880    1.6140   26.4610 C.2     1  UNL1        0.0416
     14 C         -26.2500    2.9200   26.3950 C.2     1  UNL1        0.0767
     15 C         -25.6420    4.0930   27.1230 C.2     1  UNL1        0.2664
     16 N         -25.6140    5.2520   26.4490 N.am    1  UNL1       -0.1997
     17 C         -25.0260    6.4790   26.9630 C.3     1  UNL1        0.1388
     18 O         -25.1430    3.9660   28.2430 O.2     1  UNL1       -0.2683
     19 C         -27.4380    3.0910   25.6450 C.2     1  UNL1        0.1067
     20 N         -28.0750    2.0890   25.0030 N.2     1  UNL1       -0.2081
     21 C         -27.5430    0.8490   25.0790 C.2     1  UNL1        0.2533
     22 O         -28.1930   -0.2080   24.4770 O.2     1  UNL1       -0.4558
     23 C         -29.4600    0.0050   23.8660 C.3     1  UNL1        0.2426
     24 C         -30.0650   -1.3770   23.5730 C.3     1  UNL1        0.2292
     25 O         -30.7290   -1.8780   24.7210 O.3     1  UNL1       -0.2162
     26 C         -26.3540    0.5760   25.7770 C.2     1  UNL1        0.1932
     27 F         -25.8600   -0.6810   25.7950 F       1  UNL1       -0.1992
     28 C         -24.9700    0.6455   28.3955 C.2     1  UNL1        0.0736
     29 F         -23.0528    2.2668   25.7248 F       1  UNL1       -0.2018
     30 C         -28.8129    1.5805   32.4115 C.3     1  UNL1        0.1460
     31 C         -22.3199    1.2524   27.7287 C.2     1  UNL1        0.1672
     32 C         -27.6441    0.2406   28.8062 C.2     1  UNL1        0.3292
     33 O         -28.6936    0.1570   32.1784 O.3     1  UNL1       -0.3342
     34 N         -26.3544    0.6786   28.7886 N.am    1  UNL1       -0.1624
     35 C         -22.5816    0.4502   28.8445 C.2     1  UNL1        0.0293
     36 C         -28.7842   -0.5642   30.8424 C.3     1  UNL1        0.2437
     37 C         -28.9868    2.5213   31.2214 C.3     1  UNL1        0.0537
     38 C         -24.0381    0.0555   29.0866 C.2     1  UNL1        0.0007
     39 C         -24.6628    1.3242   27.2237 C.2     1  UNL1        0.0473
     40 O         -28.1152   -0.4360   27.8832 O.2     1  UNL1       -0.2503
     41 C         -23.3479    1.6157   26.8753 C.2     1  UNL1        0.1686
     42 C         -29.1855    1.6105   29.9913 C.3     1  UNL1        0.0999
     43 F         -21.0514    1.6992   27.4008 F       1  UNL1       -0.2018
     44 N         -28.5068    0.5044   29.8999 N.am    1  UNL1       -0.2368
@<TRIPOS>BOND
     1     1    38    1
     2     2     7    1
     3     2     1    1
     4     3     2    2
     5     4     3    1
     6     4     5    2
     7     5     6    1
     8     6     7    2
     9     8     1    1
    10     8     9    1
    11     8    12    1
    12     9    10    1
    13    10    11    1
    14    12    11    1
    15    13    39    1
    16    14    13    1
    17    14    15    1
    18    15    18    2
    19    16    17    1
    20    16    15    1
    21    19    14    2
    22    20    21    2
    23    20    19    1
    24    21    26    1
    25    22    21    1
    26    23    22    1
    27    24    23    1
    28    24    25    1
    29    26    27    1
    30    26    13    2
    31    28    34    1
    32    28    38    1
    33    29    41    1
    34    31    35    1
    35    32    44   am
    36    33    30    1
    37    34    32    1
    38    35    38    2
    39    36    33    1
    40    37    30    1
    41    39    28    2
    42    40    32    2
    43    41    39    1
    44    41    31    2
    45    42    37    1
    46    43    31    1
    47    44    42    1
    48    44    36    1
