@<TRIPOS>MOLECULE
No_729-gen_results/8p0m/2024-11-27-11-27-31/
 21 22 0 0 0
SMALL
GASTEIGER

@<TRIPOS>ATOM
      1 F         -28.0727   -1.2542   28.5316 F       1  UNL1       -0.2009
      2 C         -27.0607   -0.6291   28.8721 C.ar    1  UNL1        0.1778
      3 C         -26.1528   -1.1557   29.4537 C.ar    1  UNL1        0.0874
      4 C         -24.8778   -0.5788   29.8639 C.ar    1  UNL1        0.0184
      5 C         -24.7426    0.8273   29.4808 C.ar    1  UNL1        0.0583
      6 C         -25.7883    1.3927   28.7628 C.ar    1  UNL1        0.0366
      7 C         -26.9145    0.7309   28.4427 C.ar    1  UNL1        0.1684
      8 C         -23.5403    1.5267   29.8447 C.2     1  UNL1        0.2648
      9 N         -22.4127    1.2112   29.3122 N.am    1  UNL1       -0.2031
     10 O         -23.6279    2.4204   30.8055 O.2     1  UNL1       -0.2684
     11 C         -22.0588    0.8074   27.9801 C.3     1  UNL1        0.0997
     12 F         -27.8751    1.2993   27.7772 F       1  UNL1       -0.2018
     13 CL        -26.2237   -2.8470   30.0253 Cl      1  UNL1       -0.0798
     14 C         -20.6291    0.7483   27.9848 C.3     1  UNL1        0.0238
     15 C         -22.8913    1.0323   27.0177 C.3     1  UNL1        0.0431
     16 C         -23.2386    2.0073   26.1246 C.2     1  UNL1       -0.0282
     17 C         -24.2187    2.0555   25.1890 C.2     1  UNL1       -0.0159
     18 C         -25.0400    0.8181   25.4592 C.3     1  UNL1        0.1133
     19 C         -24.0523    0.1380   26.9149 C.3     1  UNL1        0.0256
     20 C         -26.0611    0.2445   24.9927 C.1     1  UNL1        0.0765
     21 N         -27.2441    0.0865   24.7120 N.1     1  UNL1       -0.1956
@<TRIPOS>BOND
     1     1     2    1
     2     5     8    1
     3     8     9   am
     4     8    10    2
     5     9    11    1
     6     7    12    1
     7     3    13    1
     8    11    14    1
     9    11    15    1
    10    15    16    1
    11    16    17    2
    12    17    18    1
    13    15    19    1
    14    18    19    1
    15    18    20    1
    16    20    21    3
    17     2     3   ar
    18     3     4   ar
    19     4     5   ar
    20     5     6   ar
    21     6     7   ar
    22     7     2   ar
