@<TRIPOS>MOLECULE
outputs/IAG933/test6/raw/output_7294_IAG933_linker_design_.xyz
 39 43 0 0 0
SMALL
GASTEIGER

@<TRIPOS>ATOM
      1 C         -24.8550   -1.0120   30.1430 C.3     1  UNL1        0.1719
      2 C         -24.9730   -2.5050   29.7880 C.2     1  UNL1        0.0011
      3 C         -23.9060   -3.1730   29.1460 C.2     1  UNL1       -0.0026
      4 C         -23.9890   -4.5490   28.8530 C.2     1  UNL1       -0.0003
      5 C         -25.1370   -5.2800   29.2050 C.2     1  UNL1       -0.0000
      6 C         -26.2320   -4.6110   29.7840 C.2     1  UNL1       -0.0003
      7 C         -26.1550   -3.2320   30.0650 C.2     1  UNL1       -0.0026
      8 C         -25.3870   -0.6790   31.5710 C.3     1  UNL1        0.0992
      9 C         -25.1890    0.7730   32.0280 C.3     1  UNL1        0.0210
     10 C         -25.3360    0.6840   33.5440 C.3     1  UNL1        0.0203
     11 C         -24.8290   -0.7150   33.9050 C.3     1  UNL1        0.0888
     12 N         -24.7580   -1.4810   32.6460 N.3     1  UNL1       -0.2174
     13 C         -25.6880    1.6140   26.4610 C.2     1  UNL1        0.0389
     14 C         -26.2500    2.9200   26.3950 C.2     1  UNL1        0.0764
     15 C         -25.6420    4.0930   27.1230 C.2     1  UNL1        0.2664
     16 N         -25.6140    5.2520   26.4490 N.am    1  UNL1       -0.1997
     17 C         -25.0260    6.4790   26.9630 C.3     1  UNL1        0.1388
     18 O         -25.1430    3.9660   28.2430 O.2     1  UNL1       -0.2683
     19 C         -27.4380    3.0910   25.6450 C.2     1  UNL1        0.1067
     20 N         -28.0750    2.0890   25.0030 N.2     1  UNL1       -0.2081
     21 C         -27.5430    0.8490   25.0790 C.2     1  UNL1        0.2533
     22 O         -28.1930   -0.2080   24.4770 O.2     1  UNL1       -0.4558
     23 C         -29.4600    0.0050   23.8660 C.3     1  UNL1        0.2426
     24 C         -30.0650   -1.3770   23.5730 C.3     1  UNL1        0.2292
     25 O         -30.7290   -1.8780   24.7210 O.3     1  UNL1       -0.2162
     26 C         -26.3540    0.5760   25.7770 C.2     1  UNL1        0.1929
     27 F         -25.8600   -0.6810   25.7950 F       1  UNL1       -0.1992
     28 C         -24.4403    1.3890   27.1255 C.2     1  UNL1        0.0427
     29 C         -22.9888    1.0698   28.5033 C.ar    1  UNL1        0.1961
     30 O         -25.9602   -0.9487   28.0089 O.2     1  UNL1       -0.1683
     31 S         -25.6247   -0.0297   28.9814 S.O2    1  UNL1        0.0137
     32 O         -22.2284    2.0462   26.2887 O.3     1  UNL1       -0.4404
     33 O         -20.8036    1.4534   27.9664 O.2     1  UNL1       -0.2963
     34 N         -22.2935    0.5768   29.4883 N.ar    1  UNL1       -0.1055
     35 C         -23.4808    1.8914   26.1815 C.3     1  UNL1        0.2368
     36 C         -22.0231    1.5618   27.5793 C.ar    1  UNL1        0.3435
     37 O         -26.6064    0.8569   29.5313 O.2     1  UNL1       -0.1683
     38 C         -24.2335    0.9580   28.5460 C.2     1  UNL1        0.1313
     39 N         -21.0423    0.7097   29.2040 N.ar    1  UNL1        0.0380
@<TRIPOS>BOND
     1     1    31    1
     2     2     7    1
     3     2     1    1
     4     3     2    2
     5     4     3    1
     6     4     5    2
     7     5     6    1
     8     6     7    2
     9     8     1    1
    10     8     9    1
    11     8    12    1
    12     9    10    1
    13    10    11    1
    14    12    11    1
    15    13    28    1
    16    14    13    1
    17    14    15    1
    18    15    18    2
    19    16    17    1
    20    16    15    1
    21    19    14    2
    22    20    21    2
    23    20    19    1
    24    21    26    1
    25    22    21    1
    26    23    22    1
    27    24    23    1
    28    24    25    1
    29    26    27    1
    30    26    13    2
    31    28    38    2
    32    29    38    1
    33    29    34   ar
    34    30    31    2
    35    31    37    2
    36    32    36    1
    37    33    39   ar
    38    35    32    1
    39    35    28    1
    40    36    33   ar
    41    36    29   ar
    42    38    31    1
    43    39    34   ar
