@<TRIPOS>MOLECULE
outputs/IAG933/test6/raw/output_7297_IAG933_linker_design_.xyz
 44 47 0 0 0
SMALL
GASTEIGER

@<TRIPOS>ATOM
      1 C         -24.8550   -1.0120   30.1430 C.3     1  UNL1        0.1113
      2 C         -24.9730   -2.5050   29.7880 C.2     1  UNL1       -0.0030
      3 C         -23.9060   -3.1730   29.1460 C.2     1  UNL1       -0.0026
      4 C         -23.9890   -4.5490   28.8530 C.2     1  UNL1       -0.0003
      5 C         -25.1370   -5.2800   29.2050 C.2     1  UNL1       -0.0000
      6 C         -26.2320   -4.6110   29.7840 C.2     1  UNL1       -0.0003
      7 C         -26.1550   -3.2320   30.0650 C.2     1  UNL1       -0.0026
      8 C         -25.3870   -0.6790   31.5710 C.3     1  UNL1        0.0950
      9 C         -25.1890    0.7730   32.0280 C.3     1  UNL1        0.0209
     10 C         -25.3360    0.6840   33.5440 C.3     1  UNL1        0.0203
     11 C         -24.8290   -0.7150   33.9050 C.3     1  UNL1        0.0888
     12 N         -24.7580   -1.4810   32.6460 N.3     1  UNL1       -0.2174
     13 C         -25.6880    1.6140   26.4610 C.2     1  UNL1        0.0423
     14 C         -26.2500    2.9200   26.3950 C.2     1  UNL1        0.0767
     15 C         -25.6420    4.0930   27.1230 C.2     1  UNL1        0.2664
     16 N         -25.6140    5.2520   26.4490 N.am    1  UNL1       -0.1997
     17 C         -25.0260    6.4790   26.9630 C.3     1  UNL1        0.1388
     18 O         -25.1430    3.9660   28.2430 O.2     1  UNL1       -0.2683
     19 C         -27.4380    3.0910   25.6450 C.2     1  UNL1        0.1067
     20 N         -28.0750    2.0890   25.0030 N.2     1  UNL1       -0.2081
     21 C         -27.5430    0.8490   25.0790 C.2     1  UNL1        0.2533
     22 O         -28.1930   -0.2080   24.4770 O.2     1  UNL1       -0.4558
     23 C         -29.4600    0.0050   23.8660 C.3     1  UNL1        0.2426
     24 C         -30.0650   -1.3770   23.5730 C.3     1  UNL1        0.2292
     25 O         -30.7290   -1.8780   24.7210 O.3     1  UNL1       -0.2162
     26 C         -26.3540    0.5760   25.7770 C.2     1  UNL1        0.1932
     27 F         -25.8600   -0.6810   25.7950 F       1  UNL1       -0.1992
     28 O         -25.4445    5.0998   31.2160 O.2     1  UNL1       -0.2960
     29 C         -27.3972    1.0600   28.4208 C.3     1  UNL1        0.0402
     30 C         -21.7209    1.3933   27.6899 C.3     1  UNL1        0.3524
     31 C         -27.4352    2.2320   29.1903 C.3     1  UNL1        0.0905
     32 C         -26.1406    5.0838   32.1347 C.2     1  UNL1        0.1525
     33 C         -26.8020   -0.1028   28.8102 C.3     1  UNL1        0.0925
     34 C         -24.0601    0.6769   28.1933 C.2     1  UNL1        0.0532
     35 N         -25.1505   -0.0684   29.0016 N.pl3   1  UNL1       -0.3040
     36 O         -22.0065    1.6602   26.4181 O.2     1  UNL1       -0.4428
     37 C         -24.3539    1.3018   26.8529 C.2     1  UNL1        0.0528
     38 C         -22.6988    0.8341   28.5335 C.2     1  UNL1        0.0687
     39 F         -20.4887    1.5953   28.0326 F       1  UNL1       -0.1832
     40 C         -27.9851    3.5397   31.1418 C.3     1  UNL1        0.0964
     41 C         -27.4802    4.2257   32.1836 C.3     1  UNL1        0.0833
     42 C         -23.3057    1.6290   25.9698 C.2     1  UNL1        0.1769
     43 C         -25.7303    5.5985   33.5021 C.3     1  UNL1        0.0723
     44 N         -27.1788    3.3076   30.0806 N.3     1  UNL1       -0.2175
@<TRIPOS>BOND
     1     1    35    1
     2     2     7    1
     3     2     1    1
     4     3     2    2
     5     4     3    1
     6     4     5    2
     7     5     6    1
     8     6     7    2
     9     8     1    1
    10     8     9    1
    11     8    12    1
    12     9    10    1
    13    10    11    1
    14    12    11    1
    15    13    37    1
    16    14    13    1
    17    14    15    1
    18    15    18    2
    19    16    17    1
    20    16    15    1
    21    19    14    2
    22    20    21    2
    23    20    19    1
    24    21    26    1
    25    22    21    1
    26    23    22    1
    27    24    23    1
    28    24    25    1
    29    26    27    1
    30    26    13    2
    31    28    32    2
    32    29    33    1
    33    29    31    1
    34    30    39    1
    35    30    38    1
    36    31    44    1
    37    32    41    1
    38    32    43    1
    39    33    35    1
    40    34    38    2
    41    34    35    1
    42    36    30    1
    43    37    34    1
    44    40    41    1
    45    42    36    1
    46    42    37    2
    47    44    40    1
