@<TRIPOS>MOLECULE
outputs/IAG933/test6/raw/output_7298_IAG933_linker_design_.xyz
 46 50 0 0 0
SMALL
GASTEIGER

@<TRIPOS>ATOM
      1 C         -24.8550   -1.0120   30.1430 C.3     1  UNL1        0.1111
      2 C         -24.9730   -2.5050   29.7880 C.2     1  UNL1       -0.0030
      3 C         -23.9060   -3.1730   29.1460 C.2     1  UNL1       -0.0026
      4 C         -23.9890   -4.5490   28.8530 C.2     1  UNL1       -0.0003
      5 C         -25.1370   -5.2800   29.2050 C.2     1  UNL1       -0.0000
      6 C         -26.2320   -4.6110   29.7840 C.2     1  UNL1       -0.0003
      7 C         -26.1550   -3.2320   30.0650 C.2     1  UNL1       -0.0026
      8 C         -25.3870   -0.6790   31.5710 C.3     1  UNL1        0.0950
      9 C         -25.1890    0.7730   32.0280 C.3     1  UNL1        0.0209
     10 C         -25.3360    0.6840   33.5440 C.3     1  UNL1        0.0203
     11 C         -24.8290   -0.7150   33.9050 C.3     1  UNL1        0.0888
     12 N         -24.7580   -1.4810   32.6460 N.3     1  UNL1       -0.2174
     13 C         -25.6880    1.6140   26.4610 C.2     1  UNL1        0.0364
     14 C         -26.2500    2.9200   26.3950 C.2     1  UNL1        0.0763
     15 C         -25.6420    4.0930   27.1230 C.2     1  UNL1        0.2664
     16 N         -25.6140    5.2520   26.4490 N.am    1  UNL1       -0.1997
     17 C         -25.0260    6.4790   26.9630 C.3     1  UNL1        0.1388
     18 O         -25.1430    3.9660   28.2430 O.2     1  UNL1       -0.2683
     19 C         -27.4380    3.0910   25.6450 C.2     1  UNL1        0.1067
     20 N         -28.0750    2.0890   25.0030 N.2     1  UNL1       -0.2081
     21 C         -27.5430    0.8490   25.0790 C.2     1  UNL1        0.2533
     22 O         -28.1930   -0.2080   24.4770 O.2     1  UNL1       -0.4558
     23 C         -29.4600    0.0050   23.8660 C.3     1  UNL1        0.2426
     24 C         -30.0650   -1.3770   23.5730 C.3     1  UNL1        0.2292
     25 O         -30.7290   -1.8780   24.7210 O.3     1  UNL1       -0.2162
     26 C         -26.3540    0.5760   25.7770 C.2     1  UNL1        0.1928
     27 F         -25.8600   -0.6810   25.7950 F       1  UNL1       -0.1992
     28 CL        -22.9086    2.4710   25.2942 Cl      1  UNL1       -0.1045
     29 C         -22.0635    1.2956   27.4553 C.3     1  UNL1        0.2980
     30 C         -23.1665    0.4359   29.0376 C.3     1  UNL1        0.1856
     31 C         -27.8037    0.2966   29.1261 C.3     1  UNL1        0.0479
     32 C         -23.1585    1.6433   26.7478 C.3     1  UNL1        0.1645
     33 N         -28.4666    3.0552   32.2788 N.am    1  UNL1       -0.2522
     34 C         -27.9378    1.4893   30.2148 C.2     1  UNL1       -0.0147
     35 C         -29.1835    1.9597   32.0989 C.2     1  UNL1        0.0675
     36 O         -21.9916    0.2823   28.3905 O.3     1  UNL1       -0.3194
     37 C         -27.2288    2.6610   30.3112 C.2     1  UNL1        0.0541
     38 C         -24.4278    1.2512   27.1841 C.2     1  UNL1        0.0119
     39 O         -26.4839    4.1594   31.9488 O.2     1  UNL1       -0.2696
     40 N         -25.2776   -0.2690   28.9790 N.pl3   1  UNL1       -0.3053
     41 C         -28.8396    1.1134   31.1629 C.2     1  UNL1        0.0121
     42 C         -24.4207    0.4769   28.3255 C.2     1  UNL1        0.0527
     43 C         -26.6009   -0.4732   28.7907 C.3     1  UNL1        0.0955
     44 C         -27.3892    3.3415   31.4988 C.2     1  UNL1        0.2526
     45 F         -20.9000    1.9865   27.4749 F       1  UNL1       -0.2022
     46 C         -29.0089    3.7074   33.4833 C.3     1  UNL1        0.1204
@<TRIPOS>BOND
     1     1    40    1
     2     2     7    1
     3     2     1    1
     4     3     2    2
     5     4     3    1
     6     4     5    2
     7     5     6    1
     8     6     7    2
     9     8     1    1
    10     8     9    1
    11     8    12    1
    12     9    10    1
    13    10    11    1
    14    12    11    1
    15    13    38    1
    16    14    13    1
    17    14    15    1
    18    15    18    2
    19    16    17    1
    20    16    15    1
    21    19    14    2
    22    20    21    2
    23    20    19    1
    24    21    26    1
    25    22    21    1
    26    23    22    1
    27    24    23    1
    28    24    25    1
    29    26    27    1
    30    26    13    2
    31    29    45    1
    32    29    36    1
    33    31    34    1
    34    32    28    1
    35    32    38    1
    36    32    29    1
    37    33    46    1
    38    34    37    2
    39    34    41    1
    40    35    33    1
    41    36    30    1
    42    37    44    1
    43    38    42    2
    44    41    35    2
    45    42    40    1
    46    42    30    1
    47    43    40    1
    48    43    31    1
    49    44    39    2
    50    44    33   am
