@<TRIPOS>MOLECULE
outputs/IAG933/test6/raw/output_73_IAG933_linker_design_.xyz
 42 45 0 0 0
SMALL
GASTEIGER

@<TRIPOS>ATOM
      1 C         -24.8550   -1.0120   30.1430 C.3     1  UNL1        0.0738
      2 C         -24.9730   -2.5050   29.7880 C.2     1  UNL1       -0.0183
      3 C         -23.9060   -3.1730   29.1460 C.2     1  UNL1       -0.0041
      4 C         -23.9890   -4.5490   28.8530 C.2     1  UNL1       -0.0003
      5 C         -25.1370   -5.2800   29.2050 C.2     1  UNL1       -0.0000
      6 C         -26.2320   -4.6110   29.7840 C.2     1  UNL1       -0.0003
      7 C         -26.1550   -3.2320   30.0650 C.2     1  UNL1       -0.0041
      8 C         -25.3870   -0.6790   31.5710 C.3     1  UNL1        0.0895
      9 C         -25.1890    0.7730   32.0280 C.3     1  UNL1        0.0655
     10 C         -25.3360    0.6840   33.5440 C.3     1  UNL1        0.0310
     11 C         -24.8290   -0.7150   33.9050 C.3     1  UNL1        0.0896
     12 N         -24.7580   -1.4810   32.6460 N.3     1  UNL1       -0.2181
     13 C         -25.6880    1.6140   26.4610 C.2     1  UNL1        0.0387
     14 C         -26.2500    2.9200   26.3950 C.2     1  UNL1        0.0766
     15 C         -25.6420    4.0930   27.1230 C.2     1  UNL1        0.2664
     16 N         -25.6140    5.2520   26.4490 N.am    1  UNL1       -0.1997
     17 C         -25.0260    6.4790   26.9630 C.3     1  UNL1        0.1388
     18 O         -25.1430    3.9660   28.2430 O.2     1  UNL1       -0.2683
     19 C         -27.4380    3.0910   25.6450 C.2     1  UNL1        0.1067
     20 N         -28.0750    2.0890   25.0030 N.2     1  UNL1       -0.2081
     21 C         -27.5430    0.8490   25.0790 C.2     1  UNL1        0.2533
     22 O         -28.1930   -0.2080   24.4770 O.2     1  UNL1       -0.4558
     23 C         -29.4600    0.0050   23.8660 C.3     1  UNL1        0.2426
     24 C         -30.0650   -1.3770   23.5730 C.3     1  UNL1        0.2292
     25 O         -30.7290   -1.8780   24.7210 O.3     1  UNL1       -0.2162
     26 C         -26.3540    0.5760   25.7770 C.2     1  UNL1        0.1931
     27 F         -25.8600   -0.6810   25.7950 F       1  UNL1       -0.1992
     28 C         -23.0735    0.3551   28.8454 C.2     1  UNL1        0.0163
     29 C         -27.5320    3.5464   30.4426 C.3     1  UNL1        0.0116
     30 CL        -23.1175    1.7614   24.6893 Cl      1  UNL1       -0.0822
     31 C         -21.9393    0.8324   28.2190 C.2     1  UNL1        0.0897
     32 C         -27.9719    2.1411   29.7923 C.3     1  UNL1        0.0009
     33 C         -25.4960   -0.0530   29.1381 C.3     1  UNL1        0.1796
     34 O         -26.3818   -0.7477   28.2196 O.3     1  UNL1       -0.2179
     35 C         -24.3161    0.5739   28.3238 C.2     1  UNL1        0.0103
     36 C         -23.2134    1.5291   26.3997 C.2     1  UNL1        0.0588
     37 N         -20.6496    0.5790   28.7197 N.pl3   1  UNL1       -0.1280
     38 S         -25.2155    2.3019   31.2575 S.3     1  UNL1       -0.1396
     39 C         -24.4058    1.2605   27.0964 C.2     1  UNL1        0.0116
     40 C         -28.0817    0.6251   30.0427 C.3     1  UNL1        0.0000
     41 C         -26.6022    3.4510   31.6609 C.3     1  UNL1        0.0576
     42 C         -22.0285    1.4445   27.0177 C.2     1  UNL1        0.0294
@<TRIPOS>BOND
     1     1    33    1
     2     2     7    1
     3     2     1    1
     4     3     2    2
     5     4     3    1
     6     4     5    2
     7     5     6    1
     8     6     7    2
     9     8     1    1
    10     8     9    1
    11     8    12    1
    12     9    38    1
    13     9    10    1
    14    10    11    1
    15    12    11    1
    16    13    39    1
    17    14    13    1
    18    14    15    1
    19    15    18    2
    20    16    17    1
    21    16    15    1
    22    19    14    2
    23    20    21    2
    24    20    19    1
    25    21    26    1
    26    22    21    1
    27    23    22    1
    28    24    23    1
    29    24    25    1
    30    26    27    1
    31    26    13    2
    32    29    41    1
    33    30    36    1
    34    31    37    1
    35    31    28    2
    36    32    40    1
    37    32    29    1
    38    33    34    1
    39    35    28    1
    40    35    33    1
    41    36    42    2
    42    36    39    1
    43    38    41    1
    44    39    35    2
    45    42    31    1
