@<TRIPOS>MOLECULE
No_730-gen_results/8p0m/2024-11-27-11-27-31/
 31 34 0 0 0
SMALL
GASTEIGER

@<TRIPOS>ATOM
      1 O         -28.1229   -1.3353   28.4874 O.2     1  UNL1       -0.2699
      2 C         -27.4806   -0.4044   28.7094 C.2     1  UNL1        0.2495
      3 C         -26.3804   -0.0867   27.9394 C.2     1  UNL1        0.0322
      4 N         -27.6665    0.4468   29.8988 N.am    1  UNL1       -0.2435
      5 C         -26.4086    0.8567   26.8802 C.2     1  UNL1       -0.0205
      6 C         -27.5818    1.4877   26.5909 C.3     1  UNL1        0.0559
      7 C         -28.6543    1.3606   27.2050 C.2     1  UNL1       -0.0006
      8 C         -28.4017    1.6141   29.6014 C.2     1  UNL1        0.1102
      9 C         -28.9009    2.0348   28.4229 C.1     1  UNL1       -0.0930
     10 C         -25.1324   -0.8842   28.2003 C.3     1  UNL1        0.0569
     11 C         -23.9380   -0.1702   28.5269 C.ar    1  UNL1       -0.0176
     12 C         -23.5595    1.0881   28.1556 C.ar    1  UNL1       -0.0039
     13 C         -22.4717    1.5540   28.2783 C.ar    1  UNL1       -0.0003
     14 C         -21.3566    0.8562   28.8340 C.ar    1  UNL1       -0.0000
     15 C         -22.8761   -0.9832   29.0554 C.ar    1  UNL1       -0.0039
     16 C         -21.5895   -0.4522   29.2106 C.ar    1  UNL1       -0.0003
     17 C         -27.2934   -0.0940   31.1242 C.3     1  UNL1        0.1256
     18 C         -27.7049   -1.1413   31.5834 C.ar    1  UNL1       -0.0020
     19 C         -28.5766   -1.0765   32.7357 C.ar    1  UNL1       -0.0026
     20 C         -29.3490   -2.1990   33.0278 C.ar    1  UNL1       -0.0003
     21 C         -29.2702   -3.3736   32.2516 C.ar    1  UNL1       -0.0000
     22 C         -28.4997   -3.4201   31.0734 C.ar    1  UNL1       -0.0003
     23 C         -27.6685   -2.3384   30.7960 C.ar    1  UNL1       -0.0026
     24 C         -29.7497    0.6654   26.6029 C.3     1  UNL1        0.0480
     25 C         -29.8338    0.5775   25.2641 C.3     1  UNL1        0.0097
     26 C         -30.8299    0.0123   27.3421 C.ar    1  UNL1       -0.0181
     27 C         -31.7965    0.2523   27.1890 C.ar    1  UNL1       -0.0039
     28 C         -32.8649   -0.2884   28.0955 C.ar    1  UNL1       -0.0003
     29 C         -32.4091   -1.0950   29.1531 C.ar    1  UNL1       -0.0000
     30 C         -31.0779   -1.3355   29.3428 C.ar    1  UNL1       -0.0003
     31 C         -30.1966   -0.7506   28.5107 C.ar    1  UNL1       -0.0039
@<TRIPOS>BOND
     1     1     2    2
     2     2     3    1
     3     2     4   am
     4     3     5    2
     5     5     6    1
     6     6     7    1
     7     4     8    1
     8     7     9    2
     9     8     9    2
    10     3    10    1
    11    10    11    1
    12     4    17    1
    13    17    18    1
    14     7    24    1
    15    24    25    1
    16    24    26    1
    17    18    19   ar
    18    19    20   ar
    19    20    21   ar
    20    21    22   ar
    21    22    23   ar
    22    23    18   ar
    23    11    12   ar
    24    12    13   ar
    25    13    14   ar
    26    14    16   ar
    27    16    15   ar
    28    15    11   ar
    29    26    27   ar
    30    27    28   ar
    31    28    29   ar
    32    29    30   ar
    33    30    31   ar
    34    31    26   ar
