@<TRIPOS>MOLECULE
outputs/IAG933/test6/raw/output_7305_IAG933_linker_design_.xyz
 43 47 0 0 0
SMALL
GASTEIGER

@<TRIPOS>ATOM
      1 C         -24.8550   -1.0120   30.1430 C.3     1  UNL1        0.0451
      2 C         -24.9730   -2.5050   29.7880 C.2     1  UNL1       -0.0207
      3 C         -23.9060   -3.1730   29.1460 C.2     1  UNL1       -0.0042
      4 C         -23.9890   -4.5490   28.8530 C.2     1  UNL1       -0.0003
      5 C         -25.1370   -5.2800   29.2050 C.2     1  UNL1       -0.0000
      6 C         -26.2320   -4.6110   29.7840 C.2     1  UNL1       -0.0003
      7 C         -26.1550   -3.2320   30.0650 C.2     1  UNL1       -0.0042
      8 C         -25.3870   -0.6790   31.5710 C.3     1  UNL1        0.0917
      9 C         -25.1890    0.7730   32.0280 C.3     1  UNL1        0.0759
     10 C         -25.3360    0.6840   33.5440 C.3     1  UNL1        0.0362
     11 C         -24.8290   -0.7150   33.9050 C.3     1  UNL1        0.0901
     12 N         -24.7580   -1.4810   32.6460 N.3     1  UNL1       -0.2177
     13 C         -25.6880    1.6140   26.4610 C.3     1  UNL1        0.1102
     14 C         -26.2500    2.9200   26.3950 C.2     1  UNL1        0.0604
     15 C         -25.6420    4.0930   27.1230 C.2     1  UNL1        0.2628
     16 N         -25.6140    5.2520   26.4490 N.am    1  UNL1       -0.2000
     17 C         -25.0260    6.4790   26.9630 C.3     1  UNL1        0.1388
     18 O         -25.1430    3.9660   28.2430 O.2     1  UNL1       -0.2686
     19 C         -27.4380    3.0910   25.6450 C.2     1  UNL1        0.1025
     20 N         -28.0750    2.0890   25.0030 N.2     1  UNL1       -0.2118
     21 C         -27.5430    0.8490   25.0790 C.2     1  UNL1        0.2345
     22 O         -28.1930   -0.2080   24.4770 O.2     1  UNL1       -0.4585
     23 C         -29.4600    0.0050   23.8660 C.3     1  UNL1        0.2423
     24 C         -30.0650   -1.3770   23.5730 C.3     1  UNL1        0.2292
     25 O         -30.7290   -1.8780   24.7210 O.3     1  UNL1       -0.2162
     26 C         -26.3540    0.5760   25.7770 C.3     1  UNL1        0.2455
     27 F         -25.8600   -0.6810   25.7950 F       1  UNL1       -0.2265
     28 C         -27.9005    4.5538   31.2806 C.2     1  UNL1       -0.0001
     29 C         -24.4047    3.0159   31.4458 C.3     1  UNL1        0.1026
     30 C         -23.1753    1.7783   26.0583 C.2     1  UNL1        0.0151
     31 C         -28.1806    4.9495   32.5989 C.2     1  UNL1        0.0033
     32 C         -23.0705    1.0837   30.2549 C.3     1  UNL1        0.1189
     33 C         -25.7879    3.5777   31.8593 C.2     1  UNL1        0.0328
     34 N         -24.1268    1.2701   28.1554 N.2     1  UNL1       -0.2522
     35 C         -21.8882    1.5948   26.5874 C.2     1  UNL1        0.0025
     36 N         -24.4403    1.5362   30.8850 N.3     1  UNL1       -0.2637
     37 C         -26.8088    3.7204   30.9388 C.2     1  UNL1        0.0003
     38 C         -22.9520    1.1561   28.7194 C.2     1  UNL1        0.0748
     39 C         -27.2513    4.6178   33.5878 C.2     1  UNL1        0.0417
     40 C         -21.7460    1.1575   27.9475 C.2     1  UNL1        0.0161
     41 O         -24.8451    4.6039   33.7993 O.2     1  UNL1       -0.2869
     42 C         -25.9986    4.1680   33.1367 C.2     1  UNL1        0.1930
     43 C         -24.2876    1.5351   26.8797 C.2     1  UNL1        0.0657
@<TRIPOS>BOND
     1     2     7    1
     2     2     1    1
     3     3     2    2
     4     4     3    1
     5     4     5    2
     6     5     6    1
     7     6     7    2
     8     8     1    1
     9     8     9    1
    10     8    12    1
    11     9    36    1
    12     9    10    1
    13    10    11    1
    14    12    11    1
    15    13    43    1
    16    14    13    1
    17    14    15    1
    18    15    18    2
    19    16    17    1
    20    16    15    1
    21    19    14    2
    22    20    21    2
    23    20    19    1
    24    21    26    1
    25    22    21    1
    26    23    22    1
    27    24    23    1
    28    24    25    1
    29    26    27    1
    30    26    13    1
    31    28    31    1
    32    29    33    1
    33    30    35    2
    34    30    43    1
    35    31    39    2
    36    32    36    1
    37    33    42    2
    38    34    38    1
    39    35    40    1
    40    36    29    1
    41    37    28    2
    42    37    33    1
    43    38    32    1
    44    40    38    2
    45    42    39    1
    46    42    41    1
    47    43    34    2
