@<TRIPOS>MOLECULE
outputs/IAG933/test6/raw/output_7307_IAG933_linker_design_.xyz
 43 47 0 0 0
SMALL
GASTEIGER

@<TRIPOS>ATOM
      1 C         -24.8550   -1.0120   30.1430 C.3     1  UNL1        0.0578
      2 C         -24.9730   -2.5050   29.7880 C.2     1  UNL1       -0.0195
      3 C         -23.9060   -3.1730   29.1460 C.2     1  UNL1       -0.0042
      4 C         -23.9890   -4.5490   28.8530 C.2     1  UNL1       -0.0003
      5 C         -25.1370   -5.2800   29.2050 C.2     1  UNL1       -0.0000
      6 C         -26.2320   -4.6110   29.7840 C.2     1  UNL1       -0.0003
      7 C         -26.1550   -3.2320   30.0650 C.2     1  UNL1       -0.0042
      8 C         -25.3870   -0.6790   31.5710 C.3     1  UNL1        0.0785
      9 C         -25.1890    0.7730   32.0280 C.3     1  UNL1        0.0192
     10 C         -25.3360    0.6840   33.5440 C.3     1  UNL1        0.0202
     11 C         -24.8290   -0.7150   33.9050 C.3     1  UNL1        0.0887
     12 N         -24.7580   -1.4810   32.6460 N.3     1  UNL1       -0.2191
     13 C         -25.6880    1.6140   26.4610 C.3     1  UNL1        0.1436
     14 C         -26.2500    2.9200   26.3950 C.2     1  UNL1        0.0730
     15 C         -25.6420    4.0930   27.1230 C.2     1  UNL1        0.2640
     16 N         -25.6140    5.2520   26.4490 N.am    1  UNL1       -0.1999
     17 C         -25.0260    6.4790   26.9630 C.3     1  UNL1        0.1388
     18 O         -25.1430    3.9660   28.2430 O.2     1  UNL1       -0.2686
     19 C         -27.4380    3.0910   25.6450 C.2     1  UNL1        0.1038
     20 N         -28.0750    2.0890   25.0030 N.2     1  UNL1       -0.2118
     21 C         -27.5430    0.8490   25.0790 C.2     1  UNL1        0.2358
     22 O         -28.1930   -0.2080   24.4770 O.2     1  UNL1       -0.4585
     23 C         -29.4600    0.0050   23.8660 C.3     1  UNL1        0.2423
     24 C         -30.0650   -1.3770   23.5730 C.3     1  UNL1        0.2292
     25 O         -30.7290   -1.8780   24.7210 O.3     1  UNL1       -0.2162
     26 C         -26.3540    0.5760   25.7770 C.3     1  UNL1        0.2580
     27 F         -25.8600   -0.6810   25.7950 F       1  UNL1       -0.2251
     28 O         -29.7522   -0.9597   27.6145 O.3     1  UNL1       -0.2050
     29 C         -31.4551    1.2958   27.8300 C.3     1  UNL1        0.0041
     30 C         -28.4512    1.7531   29.6266 C.3     1  UNL1        0.0745
     31 C         -26.9264   -0.0125   29.0405 C.3     1  UNL1        0.0943
     32 C         -22.5735    0.7593   28.0978 C.2     1  UNL1        0.3186
     33 C         -29.9187    1.4948   27.6877 C.3     1  UNL1        0.0477
     34 C         -23.0439    1.7765   26.1052 C.2     1  UNL1        0.2284
     35 O         -22.6212   -0.1173   29.1074 O.2     1  UNL1       -0.2635
     36 N         -28.2276    0.4279   28.9852 N.3     1  UNL1       -0.2467
     37 N         -24.9770    1.0021   27.7143 N.pl3   1  UNL1       -0.2961
     38 C         -23.6104    1.1533   27.3478 C.2     1  UNL1        0.1477
     39 C         -29.0335    0.2433   27.7259 C.3     1  UNL1        0.2126
     40 C         -25.3558   -0.0407   28.8646 C.3     1  UNL1        0.0947
     41 N         -21.3878    1.1298   27.5744 N.am    1  UNL1       -0.0025
     42 C         -29.4186    2.5126   28.7258 C.3     1  UNL1        0.0214
     43 O         -21.7165    1.8193   26.3072 O.2     1  UNL1       -0.3555
@<TRIPOS>BOND
     1     1    40    1
     2     2     7    1
     3     2     1    1
     4     3     2    2
     5     4     3    1
     6     4     5    2
     7     5     6    1
     8     6     7    2
     9     8     1    1
    10     8     9    1
    11     8    12    1
    12     9    10    1
    13    10    11    1
    14    12    11    1
    15    13    37    1
    16    14    13    1
    17    14    15    1
    18    15    18    2
    19    16    17    1
    20    16    15    1
    21    19    14    2
    22    20    21    2
    23    20    19    1
    24    21    26    1
    25    22    21    1
    26    23    22    1
    27    24    23    1
    28    24    25    1
    29    26    27    1
    30    26    13    1
    31    32    35    2
    32    33    39    1
    33    33    29    1
    34    33    42    1
    35    34    43    1
    36    34    38    2
    37    36    31    1
    38    36    30    1
    39    37    40    1
    40    38    37    1
    41    38    32    1
    42    39    28    1
    43    39    36    1
    44    40    31    1
    45    41    32    1
    46    42    30    1
    47    43    41    1
