@<TRIPOS>MOLECULE
outputs/IAG933/test6/raw/output_7308_IAG933_linker_design_.xyz
 59 64 0 0 0
SMALL
GASTEIGER

@<TRIPOS>ATOM
      1 C         -24.8550   -1.0120   30.1430 C.3     1  UNL1        0.0530
      2 C         -24.9730   -2.5050   29.7880 C.2     1  UNL1       -0.0198
      3 C         -23.9060   -3.1730   29.1460 C.2     1  UNL1       -0.0042
      4 C         -23.9890   -4.5490   28.8530 C.2     1  UNL1       -0.0003
      5 C         -25.1370   -5.2800   29.2050 C.2     1  UNL1       -0.0000
      6 C         -26.2320   -4.6110   29.7840 C.2     1  UNL1       -0.0003
      7 C         -26.1550   -3.2320   30.0650 C.2     1  UNL1       -0.0042
      8 C         -25.3870   -0.6790   31.5710 C.3     1  UNL1        0.0781
      9 C         -25.1890    0.7730   32.0280 C.3     1  UNL1        0.0192
     10 C         -25.3360    0.6840   33.5440 C.3     1  UNL1        0.0202
     11 C         -24.8290   -0.7150   33.9050 C.3     1  UNL1        0.0887
     12 N         -24.7580   -1.4810   32.6460 N.3     1  UNL1       -0.2191
     13 C         -25.6880    1.6140   26.4610 C.3     1  UNL1        0.1283
     14 C         -26.2500    2.9200   26.3950 C.2     1  UNL1        0.0696
     15 C         -25.6420    4.0930   27.1230 C.2     1  UNL1        0.2637
     16 N         -25.6140    5.2520   26.4490 N.am    1  UNL1       -0.2000
     17 C         -25.0260    6.4790   26.9630 C.3     1  UNL1        0.1388
     18 O         -25.1430    3.9660   28.2430 O.2     1  UNL1       -0.2686
     19 C         -27.4380    3.0910   25.6450 C.2     1  UNL1        0.1035
     20 N         -28.0750    2.0890   25.0030 N.2     1  UNL1       -0.2118
     21 C         -27.5430    0.8490   25.0790 C.2     1  UNL1        0.2355
     22 O         -28.1930   -0.2080   24.4770 O.2     1  UNL1       -0.4585
     23 C         -29.4600    0.0050   23.8660 C.3     1  UNL1        0.2423
     24 C         -30.0650   -1.3770   23.5730 C.3     1  UNL1        0.2292
     25 O         -30.7290   -1.8780   24.7210 O.3     1  UNL1       -0.2162
     26 C         -26.3540    0.5760   25.7770 C.3     1  UNL1        0.2546
     27 F         -25.8600   -0.6810   25.7950 F       1  UNL1       -0.2254
     28 C         -22.5135    1.5777   28.0123 C.3     1  UNL1        0.0490
     29 O         -32.0078    7.3721   32.5905 O.co2   1  UNL1       -0.2203
     30 C         -21.0276    1.6406   27.5688 C.3     1  UNL1        0.0041
     31 O         -30.0626    1.6427   30.9325 O.3     1  UNL1       -0.2002
     32 C         -26.9800    5.4138   30.1036 C.2     1  UNL1        0.0028
     33 C         -27.4979    6.2706   32.5981 C.2     1  UNL1        0.2110
     34 C         -32.0725    5.2579   29.1763 C.3     1  UNL1        0.0556
     35 C         -28.6671    6.1364   31.6461 C.2     1  UNL1        0.1179
     36 C         -28.3214    5.5688   30.4229 C.2     1  UNL1        0.0334
     37 C         -26.2038    5.9990   32.2681 C.2     1  UNL1        0.0434
     38 C         -25.9697    5.6376   30.9644 C.2     1  UNL1        0.0034
     39 O         -22.4148   -0.2410   29.4255 O.3     1  UNL1       -0.2204
     40 N         -29.4204    3.8661   28.9670 N.am    1  UNL1       -0.2325
     41 O         -27.7500    6.5629   33.8325 O.2     1  UNL1       -0.2852
     42 C         -30.7693    7.0256   32.7470 C.2     1  UNL1        0.4681
     43 C         -30.5864    3.7767   28.1168 C.2     1  UNL1        0.2315
     44 O         -30.4227    7.1783   33.9206 O.co2   1  UNL1       -0.2203
     45 C         -27.9915    0.4165   29.8968 C.3     1  UNL1        0.1577
     46 C         -23.6030    1.3116   27.0281 C.3     1  UNL1        0.0750
     47 C         -22.7068    1.0319   29.3549 C.3     1  UNL1        0.1834
     48 C         -29.4558    5.0799   29.6437 C.2     1  UNL1        0.0699
     49 C         -30.5223    5.7896   29.7753 C.2     1  UNL1        0.0798
     50 N         -30.0236    6.6204   31.6846 N.am    1  UNL1       -0.1277
     51 C         -29.7584    2.3685   29.6557 C.3     1  UNL1        0.2364
     52 O         -29.0700   -0.4614   30.2587 O.3     1  UNL1       -0.2229
     53 N         -24.9697    1.2181   27.6978 N.3     1  UNL1       -0.2683
     54 C         -25.3988    0.1176   29.0153 C.3     1  UNL1        0.0657
     55 C         -28.4438    1.7124   29.2342 C.3     1  UNL1        0.0874
     56 N         -30.6212    6.7783   30.4649 N.pl3   1  UNL1       -0.1408
     57 O         -30.4562    4.4055   26.8135 O.2     1  UNL1       -0.2745
     58 C         -32.0270    4.0196   28.6616 C.3     1  UNL1        0.0918
     59 C         -26.9728   -0.2555   28.9154 C.3     1  UNL1        0.0494
@<TRIPOS>BOND
     1     1    54    1
     2     2     7    1
     3     2     1    1
     4     3     2    2
     5     4     3    1
     6     4     5    2
     7     5     6    1
     8     6     7    2
     9     8     1    1
    10     8     9    1
    11     8    12    1
    12     9    10    1
    13    10    11    1
    14    12    11    1
    15    13    53    1
    16    14    13    1
    17    14    15    1
    18    15    18    2
    19    16    17    1
    20    16    15    1
    21    19    14    2
    22    20    21    2
    23    20    19    1
    24    21    26    1
    25    22    21    1
    26    23    22    1
    27    24    23    1
    28    24    25    1
    29    26    27    1
    30    26    13    1
    31    28    30    1
    32    28    47    1
    33    29    42   ar
    34    32    36    2
    35    32    38    1
    36    33    41    1
    37    34    49    1
    38    35    50    1
    39    35    33    2
    40    36    35    1
    41    37    33    1
    42    38    37    2
    43    40    48    1
    44    40    51    1
    45    42    44   ar
    46    43    58    1
    47    43    40   am
    48    45    52    1
    49    46    53    1
    50    46    28    1
    51    47    39    1
    52    48    49    2
    53    48    36    1
    54    49    56    1
    55    50    42   am
    56    51    31    1
    57    53    54    1
    58    54    59    1
    59    55    51    1
    60    55    45    1
    61    56    50    1
    62    57    43    2
    63    58    34    1
    64    59    45    1
