@<TRIPOS>MOLECULE
No_731-gen_results/8p0m/2024-11-27-11-27-31/
 21 22 0 0 0
SMALL
GASTEIGER

@<TRIPOS>ATOM
      1 C         -28.0162   -0.8135   28.8779 C.ar    1  UNL1       -0.0040
      2 C         -28.4690   -0.7850   29.8287 C.ar    1  UNL1       -0.0003
      3 C         -27.0871    0.2903   28.6377 C.ar    1  UNL1       -0.0184
      4 C         -26.8317    1.2487   29.5869 C.ar    1  UNL1       -0.0040
      5 C         -28.3914    0.0801   31.0065 C.ar    1  UNL1       -0.0000
      6 C         -27.4940    1.1521   30.7841 C.ar    1  UNL1       -0.0003
      7 C         -26.3172    0.3994   27.3653 C.3     1  UNL1        0.0450
      8 C         -26.8815    0.9711   26.3721 C.ar    1  UNL1       -0.0184
      9 C         -28.2026    1.4637   26.4214 C.ar    1  UNL1       -0.0040
     10 C         -28.7510    1.9527   25.1515 C.ar    1  UNL1       -0.0003
     11 C         -27.9992    1.7656   23.9940 C.ar    1  UNL1       -0.0000
     12 C         -26.8200    1.1311   23.9824 C.ar    1  UNL1       -0.0003
     13 C         -26.1901    0.7119   25.1051 C.ar    1  UNL1       -0.0040
     14 C         -24.9839   -0.1692   27.4539 C.3     1  UNL1        0.0179
     15 C         -24.1065    0.3376   28.5506 C.3     1  UNL1        0.0805
     16 C         -23.1102   -0.4787   29.0198 C.3     1  UNL1        0.0087
     17 C         -23.4014   -1.6487   29.5231 C.3     1  UNL1        0.0005
     18 C         -21.7093   -0.1034   28.8849 C.3     1  UNL1        0.0005
     19 C         -23.9578    1.7450   28.7697 C.2     1  UNL1        0.2603
     20 O         -24.2477    2.3817   29.5880 O.2     1  UNL1       -0.2717
     21 N         -23.4647    2.4771   27.6168 N.am    1  UNL1       -0.0878
@<TRIPOS>BOND
     1     3     7    1
     2     7    14    1
     3    14    15    1
     4    15    16    1
     5    16    17    1
     6    16    18    1
     7    15    19    1
     8    19    20    2
     9    19    21   am
    10     7     8    1
    11     8     9   ar
    12     9    10   ar
    13    10    11   ar
    14    11    12   ar
    15    12    13   ar
    16    13     8   ar
    17     1     2   ar
    18     2     5   ar
    19     5     6   ar
    20     6     4   ar
    21     4     3   ar
    22     3     1   ar
