@<TRIPOS>MOLECULE
outputs/IAG933/test6/raw/output_7310_IAG933_linker_design_.xyz
 41 45 0 0 0
SMALL
GASTEIGER

@<TRIPOS>ATOM
      1 C         -24.8550   -1.0120   30.1430 C.3     1  UNL1        0.1241
      2 C         -24.9730   -2.5050   29.7880 C.2     1  UNL1       -0.0020
      3 C         -23.9060   -3.1730   29.1460 C.2     1  UNL1       -0.0026
      4 C         -23.9890   -4.5490   28.8530 C.2     1  UNL1       -0.0003
      5 C         -25.1370   -5.2800   29.2050 C.2     1  UNL1       -0.0000
      6 C         -26.2320   -4.6110   29.7840 C.2     1  UNL1       -0.0003
      7 C         -26.1550   -3.2320   30.0650 C.2     1  UNL1       -0.0026
      8 C         -25.3870   -0.6790   31.5710 C.3     1  UNL1        0.0961
      9 C         -25.1890    0.7730   32.0280 C.3     1  UNL1        0.0209
     10 C         -25.3360    0.6840   33.5440 C.3     1  UNL1        0.0203
     11 C         -24.8290   -0.7150   33.9050 C.3     1  UNL1        0.0888
     12 N         -24.7580   -1.4810   32.6460 N.3     1  UNL1       -0.2174
     13 C         -25.6880    1.6140   26.4610 C.2     1  UNL1        0.0395
     14 C         -26.2500    2.9200   26.3950 C.2     1  UNL1        0.0766
     15 C         -25.6420    4.0930   27.1230 C.2     1  UNL1        0.2664
     16 N         -25.6140    5.2520   26.4490 N.am    1  UNL1       -0.1997
     17 C         -25.0260    6.4790   26.9630 C.3     1  UNL1        0.1388
     18 O         -25.1430    3.9660   28.2430 O.2     1  UNL1       -0.2683
     19 C         -27.4380    3.0910   25.6450 C.2     1  UNL1        0.1067
     20 N         -28.0750    2.0890   25.0030 N.2     1  UNL1       -0.2081
     21 C         -27.5430    0.8490   25.0790 C.2     1  UNL1        0.2533
     22 O         -28.1930   -0.2080   24.4770 O.2     1  UNL1       -0.4558
     23 C         -29.4600    0.0050   23.8660 C.3     1  UNL1        0.2426
     24 C         -30.0650   -1.3770   23.5730 C.3     1  UNL1        0.2292
     25 O         -30.7290   -1.8780   24.7210 O.3     1  UNL1       -0.2162
     26 C         -26.3540    0.5760   25.7770 C.2     1  UNL1        0.1931
     27 F         -25.8600   -0.6810   25.7950 F       1  UNL1       -0.1992
     28 C         -20.5305    0.0239   28.4919 C.3     1  UNL1        0.1150
     29 C         -24.3585    1.3416   26.8992 C.2     1  UNL1        0.0229
     30 O         -28.6270   -0.9910   28.8675 O.3     1  UNL1       -0.1273
     31 C         -27.5909   -0.4885   28.7819 C.1     1  UNL1        0.1143
     32 C         -23.3794    1.8653   26.0115 C.2     1  UNL1        0.0421
     33 C         -22.1625    2.2678   26.2371 C.2     1  UNL1        0.1792
     34 O         -21.2071    1.7988   27.0077 O.2     1  UNL1       -0.4515
     35 C         -26.4843   -0.0724   28.7273 C.1     1  UNL1        0.0374
     36 O         -22.3947   -0.5537   29.3932 O.2     1  UNL1       -0.4710
     37 C         -21.5052    0.8829   27.9413 C.2     1  UNL1        0.1615
     38 C         -21.1775   -0.9656   29.1307 C.3     1  UNL1        0.2137
     39 N         -25.0329   -0.0737   28.9530 N.pl3   1  UNL1       -0.2391
     40 C         -22.7029    0.3460   28.4517 C.2     1  UNL1        0.1827
     41 C         -24.0248    0.5527   28.1065 C.2     1  UNL1        0.0961
@<TRIPOS>BOND
     1     1    39    1
     2     2     7    1
     3     2     1    1
     4     3     2    2
     5     4     3    1
     6     4     5    2
     7     5     6    1
     8     6     7    2
     9     8     1    1
    10     8     9    1
    11     8    12    1
    12     9    10    1
    13    10    11    1
    14    12    11    1
    15    13    29    1
    16    14    13    1
    17    14    15    1
    18    15    18    2
    19    16    17    1
    20    16    15    1
    21    19    14    2
    22    20    21    2
    23    20    19    1
    24    21    26    1
    25    22    21    1
    26    23    22    1
    27    24    23    1
    28    24    25    1
    29    26    27    1
    30    26    13    2
    31    28    38    1
    32    29    41    2
    33    31    30    1
    34    32    33    2
    35    32    29    1
    36    33    34    1
    37    34    37    1
    38    35    31    3
    39    35    39    1
    40    37    40    2
    41    37    28    1
    42    38    36    1
    43    40    36    1
    44    41    40    1
    45    41    39    1
