@<TRIPOS>MOLECULE
outputs/IAG933/test6/raw/output_7311_IAG933_linker_design_.xyz
 43 46 0 0 0
SMALL
GASTEIGER

@<TRIPOS>ATOM
      1 C         -24.8550   -1.0120   30.1430 C.3     1  UNL1        0.1215
      2 C         -24.9730   -2.5050   29.7880 C.2     1  UNL1       -0.0027
      3 C         -23.9060   -3.1730   29.1460 C.2     1  UNL1       -0.0026
      4 C         -23.9890   -4.5490   28.8530 C.2     1  UNL1       -0.0003
      5 C         -25.1370   -5.2800   29.2050 C.2     1  UNL1       -0.0000
      6 C         -26.2320   -4.6110   29.7840 C.2     1  UNL1       -0.0003
      7 C         -26.1550   -3.2320   30.0650 C.2     1  UNL1       -0.0026
      8 C         -25.3870   -0.6790   31.5710 C.3     1  UNL1        0.0954
      9 C         -25.1890    0.7730   32.0280 C.3     1  UNL1        0.0209
     10 C         -25.3360    0.6840   33.5440 C.3     1  UNL1        0.0203
     11 C         -24.8290   -0.7150   33.9050 C.3     1  UNL1        0.0888
     12 N         -24.7580   -1.4810   32.6460 N.3     1  UNL1       -0.2174
     13 C         -25.6880    1.6140   26.4610 C.2     1  UNL1        0.1798
     14 C         -26.2500    2.9200   26.3950 C.2     1  UNL1        0.1106
     15 C         -25.6420    4.0930   27.1230 C.2     1  UNL1        0.2694
     16 N         -25.6140    5.2520   26.4490 N.am    1  UNL1       -0.1996
     17 C         -25.0260    6.4790   26.9630 C.3     1  UNL1        0.1388
     18 O         -25.1430    3.9660   28.2430 O.2     1  UNL1       -0.2682
     19 C         -27.4380    3.0910   25.6450 C.2     1  UNL1        0.1098
     20 N         -28.0750    2.0890   25.0030 N.2     1  UNL1       -0.2079
     21 C         -27.5430    0.8490   25.0790 C.2     1  UNL1        0.2564
     22 O         -28.1930   -0.2080   24.4770 O.2     1  UNL1       -0.4558
     23 C         -29.4600    0.0050   23.8660 C.3     1  UNL1        0.2426
     24 C         -30.0650   -1.3770   23.5730 C.3     1  UNL1        0.2292
     25 O         -30.7290   -1.8780   24.7210 O.3     1  UNL1       -0.2162
     26 C         -26.3540    0.5760   25.7770 C.2     1  UNL1        0.2268
     27 F         -25.8600   -0.6810   25.7950 F       1  UNL1       -0.1960
     28 C         -29.6978    1.0811   30.9330 C.2     1  UNL1        0.0279
     29 N         -28.6664    3.2981   31.2734 N.2     1  UNL1       -0.2457
     30 C         -25.0955    0.9071   28.5250 C.3     1  UNL1        0.3343
     31 C         -29.3291    0.3722   28.5502 C.3     1  UNL1        0.0419
     32 F         -28.1032   -0.6446   30.1446 F       1  UNL1       -0.2336
     33 C         -29.6290    2.3731   31.5795 C.2     1  UNL1        0.0966
     34 O         -24.6414    1.1151   27.2567 O.2     1  UNL1       -0.4435
     35 C         -21.6369    1.5515   27.4390 C.3     1  UNL1        0.2573
     36 C         -22.9405    0.4771   29.1974 C.2     1  UNL1        0.4088
     37 C         -28.6735    0.6393   29.9099 C.3     1  UNL1        0.1739
     38 C         -27.6191    1.6546   29.8499 C.3     1  UNL1        0.1527
     39 N         -26.3145    1.4512   29.0972 N.3     1  UNL1       -0.1532
     40 O         -22.0650   -0.2199   29.7282 O.2     1  UNL1       -0.2261
     41 O         -22.5455    1.5935   28.5897 O.3     1  UNL1       -0.4303
     42 N         -24.2843    0.0602   29.3000 N.am    1  UNL1       -0.1945
     43 C         -27.6498    2.8991   30.4557 C.2     1  UNL1        0.0928
@<TRIPOS>BOND
     1     1    42    1
     2     2     7    1
     3     2     1    1
     4     3     2    2
     5     4     3    1
     6     4     5    2
     7     5     6    1
     8     6     7    2
     9     8     1    1
    10     8     9    1
    11     8    12    1
    12     9    10    1
    13    10    11    1
    14    12    11    1
    15    13    34    1
    16    14    13    1
    17    14    15    1
    18    15    18    2
    19    16    17    1
    20    16    15    1
    21    19    14    2
    22    20    21    2
    23    20    19    1
    24    21    26    1
    25    22    21    1
    26    23    22    1
    27    24    23    1
    28    24    25    1
    29    26    27    1
    30    26    13    2
    31    28    33    2
    32    29    33    1
    33    30    34    1
    34    30    39    1
    35    30    42    1
    36    35    41    1
    37    36    42   am
    38    36    40    2
    39    37    31    1
    40    37    32    1
    41    37    28    1
    42    38    39    1
    43    38    37    1
    44    38    43    1
    45    41    36    1
    46    43    29    2
