@<TRIPOS>MOLECULE
outputs/IAG933/test6/raw/output_7313_IAG933_linker_design_.xyz
 42 46 0 0 0
SMALL
GASTEIGER

@<TRIPOS>ATOM
      1 C         -24.8550   -1.0120   30.1430 C.3     1  UNL1        0.0967
      2 C         -24.9730   -2.5050   29.7880 C.2     1  UNL1       -0.0064
      3 C         -23.9060   -3.1730   29.1460 C.2     1  UNL1       -0.0029
      4 C         -23.9890   -4.5490   28.8530 C.2     1  UNL1       -0.0003
      5 C         -25.1370   -5.2800   29.2050 C.2     1  UNL1       -0.0000
      6 C         -26.2320   -4.6110   29.7840 C.2     1  UNL1       -0.0003
      7 C         -26.1550   -3.2320   30.0650 C.2     1  UNL1       -0.0029
      8 C         -25.3870   -0.6790   31.5710 C.3     1  UNL1        0.0916
      9 C         -25.1890    0.7730   32.0280 C.3     1  UNL1        0.0206
     10 C         -25.3360    0.6840   33.5440 C.3     1  UNL1        0.0203
     11 C         -24.8290   -0.7150   33.9050 C.3     1  UNL1        0.0888
     12 N         -24.7580   -1.4810   32.6460 N.3     1  UNL1       -0.2178
     13 C         -25.6880    1.6140   26.4610 C.2     1  UNL1        0.0195
     14 C         -26.2500    2.9200   26.3950 C.2     1  UNL1        0.0727
     15 C         -25.6420    4.0930   27.1230 C.2     1  UNL1        0.2661
     16 N         -25.6140    5.2520   26.4490 N.am    1  UNL1       -0.1997
     17 C         -25.0260    6.4790   26.9630 C.3     1  UNL1        0.1388
     18 O         -25.1430    3.9660   28.2430 O.2     1  UNL1       -0.2683
     19 C         -27.4380    3.0910   25.6450 C.2     1  UNL1        0.1064
     20 N         -28.0750    2.0890   25.0030 N.2     1  UNL1       -0.2081
     21 C         -27.5430    0.8490   25.0790 C.2     1  UNL1        0.2530
     22 O         -28.1930   -0.2080   24.4770 O.2     1  UNL1       -0.4558
     23 C         -29.4600    0.0050   23.8660 C.3     1  UNL1        0.2426
     24 C         -30.0650   -1.3770   23.5730 C.3     1  UNL1        0.2292
     25 O         -30.7290   -1.8780   24.7210 O.3     1  UNL1       -0.2162
     26 C         -26.3540    0.5760   25.7770 C.2     1  UNL1        0.1892
     27 F         -25.8600   -0.6810   25.7950 F       1  UNL1       -0.1996
     28 N         -24.7101    0.2370   29.2525 N.3     1  UNL1       -0.2573
     29 C         -24.3849    1.2470   27.0346 C.3     1  UNL1        0.0761
     30 C         -27.3749   -0.2685   29.0090 C.2     1  UNL1        0.3809
     31 C         -22.3138    0.2139   29.6176 C.3     1  UNL1        0.0805
     32 F         -24.2302    0.9938   24.3626 F       1  UNL1       -0.1957
     33 F         -22.6423    2.4345   24.2686 F       1  UNL1       -0.1957
     34 O         -27.7694   -0.8103   27.9668 O.co2   1  UNL1       -0.2441
     35 C         -23.3715    1.6539   26.2686 C.3     1  UNL1        0.1895
     36 C         -26.2022    0.6996   29.0030 C.3     1  UNL1        0.1881
     37 C         -23.4681    1.7233   24.9713 C.3     1  UNL1        0.3455
     38 C         -22.1432    1.0003   28.1704 C.3     1  UNL1        0.2331
     39 O         -28.1809   -0.4297   29.9702 O.co2   1  UNL1       -0.2441
     40 C         -23.6390    0.4452   28.1860 C.3     1  UNL1        0.1072
     41 O         -20.8140    0.8161   28.0544 O.3     1  UNL1       -0.1938
     42 O         -22.1353    1.5958   26.7922 O.3     1  UNL1       -0.3273
@<TRIPOS>BOND
     1     1    28    1
     2     2     7    1
     3     2     1    1
     4     3     2    2
     5     4     3    1
     6     4     5    2
     7     5     6    1
     8     6     7    2
     9     8     1    1
    10     8     9    1
    11     8    12    1
    12     9    10    1
    13    10    11    1
    14    12    11    1
    15    14    13    1
    16    14    15    1
    17    15    18    2
    18    16    17    1
    19    16    15    1
    20    19    14    2
    21    20    21    2
    22    20    19    1
    23    21    26    1
    24    22    21    1
    25    23    22    1
    26    24    23    1
    27    24    25    1
    28    26    27    1
    29    26    13    2
    30    29    13    1
    31    29    40    1
    32    30    39   ar
    33    32    37    1
    34    33    37    1
    35    34    30   ar
    36    35    37    1
    37    35    42    1
    38    35    29    1
    39    36    30    1
    40    36    28    1
    41    38    41    1
    42    38    40    1
    43    38    31    1
    44    40    28    1
    45    40    31    1
    46    42    38    1
