@<TRIPOS>MOLECULE
outputs/IAG933/test6/raw/output_7316_IAG933_linker_design_.xyz
 45 49 0 0 0
SMALL
GASTEIGER

@<TRIPOS>ATOM
      1 C         -24.8550   -1.0120   30.1430 C.3     1  UNL1        0.1153
      2 C         -24.9730   -2.5050   29.7880 C.2     1  UNL1       -0.0029
      3 C         -23.9060   -3.1730   29.1460 C.2     1  UNL1       -0.0026
      4 C         -23.9890   -4.5490   28.8530 C.2     1  UNL1       -0.0003
      5 C         -25.1370   -5.2800   29.2050 C.2     1  UNL1       -0.0000
      6 C         -26.2320   -4.6110   29.7840 C.2     1  UNL1       -0.0003
      7 C         -26.1550   -3.2320   30.0650 C.2     1  UNL1       -0.0026
      8 C         -25.3870   -0.6790   31.5710 C.3     1  UNL1        0.0952
      9 C         -25.1890    0.7730   32.0280 C.3     1  UNL1        0.0209
     10 C         -25.3360    0.6840   33.5440 C.3     1  UNL1        0.0203
     11 C         -24.8290   -0.7150   33.9050 C.3     1  UNL1        0.0888
     12 N         -24.7580   -1.4810   32.6460 N.3     1  UNL1       -0.2174
     13 C         -25.6880    1.6140   26.4610 C.3     1  UNL1        0.1849
     14 C         -26.2500    2.9200   26.3950 C.2     1  UNL1        0.0819
     15 C         -25.6420    4.0930   27.1230 C.2     1  UNL1        0.2647
     16 N         -25.6140    5.2520   26.4490 N.am    1  UNL1       -0.1999
     17 C         -25.0260    6.4790   26.9630 C.3     1  UNL1        0.1388
     18 O         -25.1430    3.9660   28.2430 O.2     1  UNL1       -0.2686
     19 C         -27.4380    3.0910   25.6450 C.2     1  UNL1        0.1045
     20 N         -28.0750    2.0890   25.0030 N.2     1  UNL1       -0.2117
     21 C         -27.5430    0.8490   25.0790 C.2     1  UNL1        0.2367
     22 O         -28.1930   -0.2080   24.4770 O.2     1  UNL1       -0.4585
     23 C         -29.4600    0.0050   23.8660 C.3     1  UNL1        0.2423
     24 C         -30.0650   -1.3770   23.5730 C.3     1  UNL1        0.2292
     25 O         -30.7290   -1.8780   24.7210 O.3     1  UNL1       -0.2162
     26 C         -26.3540    0.5760   25.7770 C.3     1  UNL1        0.2670
     27 F         -25.8600   -0.6810   25.7950 F       1  UNL1       -0.2242
     28 F         -20.3190    1.8088   28.0662 F       1  UNL1       -0.1978
     29 F         -21.4257    1.6764   26.1856 F       1  UNL1       -0.1978
     30 O         -29.8252   -1.3394   29.4268 O.2     1  UNL1       -0.2865
     31 C         -22.6210   -0.0887   29.0510 C.2     1  UNL1        0.2347
     32 C         -29.1653    1.8356   27.8557 C.2     1  UNL1        0.0046
     33 C         -23.7659    1.2094   27.7442 C.3     1  UNL1        0.1685
     34 C         -27.1799    1.1605   29.0749 C.2     1  UNL1        0.0704
     35 O         -24.2562    1.6660   26.5171 O.3     1  UNL1       -0.3465
     36 N         -23.9700   -0.1486   29.4697 N.am    1  UNL1       -0.2580
     37 C         -27.8480   -0.0353   29.3837 C.2     1  UNL1        0.0582
     38 C         -29.1467   -0.2985   28.9578 C.2     1  UNL1        0.1970
     39 O         -21.4980   -0.7905   29.5672 O.2     1  UNL1       -0.2745
     40 C         -24.6300    1.0107   28.9485 C.3     1  UNL1        0.1973
     41 N         -25.8537    1.3578   29.2935 N.pl3   1  UNL1       -0.2165
     42 C         -21.3995    1.4110   27.4414 C.3     1  UNL1        0.3295
     43 C         -29.7630    0.5972   28.0796 C.2     1  UNL1        0.0421
     44 C         -27.9454    2.1743   28.4679 C.2     1  UNL1        0.0164
     45 C         -22.4807    0.8443   28.0195 C.3     1  UNL1        0.1737
@<TRIPOS>BOND
     1     1     2    1
     2     2     7    1
     3     3     2    2
     4     4     3    1
     5     4     5    2
     6     5     6    1
     7     6     7    2
     8     8     1    1
     9     8     9    1
    10     8    12    1
    11     9    10    1
    12    10    11    1
    13    12    11    1
    14    13    35    1
    15    14    13    1
    16    14    15    1
    17    15    18    2
    18    16    17    1
    19    16    15    1
    20    19    14    2
    21    20    21    2
    22    20    19    1
    23    21    26    1
    24    22    21    1
    25    23    22    1
    26    24    23    1
    27    24    25    1
    28    26    27    1
    29    26    13    1
    30    29    42    1
    31    31    36   am
    32    31    39    2
    33    32    43    2
    34    32    44    1
    35    33    35    1
    36    33    45    1
    37    33    40    1
    38    34    41    1
    39    34    37    1
    40    36     1    1
    41    38    37    2
    42    38    30    1
    43    40    41    1
    44    40    36    1
    45    42    28    1
    46    43    38    1
    47    44    34    2
    48    45    42    1
    49    45    31    1
