@<TRIPOS>MOLECULE
No_732-gen_results/8p0m/2024-11-27-11-27-31/
 12 13 0 0 0
SMALL
GASTEIGER

@<TRIPOS>ATOM
      1 C         -28.0162   -0.8135   28.8779 C.ar    1  UNL1        0.0145
      2 C         -28.4690   -0.7850   29.8287 C.ar    1  UNL1        0.0478
      3 C         -26.5042   -0.7777   28.8766 C.ar    1  UNL1        0.0013
      4 C         -25.8103   -0.8531   30.1028 C.ar    1  UNL1        0.0001
      5 C         -27.9906   -0.8916   31.2257 C.ar    1  UNL1        0.0145
      6 C         -26.6042   -0.8676   31.2652 C.ar    1  UNL1        0.0013
      7 N         -29.9765   -0.8288   29.8497 N.pl3   1  UNL1       -0.3075
      8 C         -30.7392   -1.6442   30.3465 C.3     1  UNL1        0.0908
      9 C         -32.1192   -1.5829   30.0929 C.3     1  UNL1        0.0215
     10 C         -30.5786    0.1345   29.0121 C.3     1  UNL1        0.0908
     11 C         -31.8719    0.2042   28.7437 C.3     1  UNL1        0.0215
     12 C         -32.6752   -0.7176   29.3432 C.3     1  UNL1        0.0035
@<TRIPOS>BOND
     1     2     7    1
     2     7     8    1
     3     7    10    1
     4     9    12    1
     5    11    12    1
     6     8     9    1
     7    11    10    1
     8     1     2   ar
     9     2     5   ar
    10     5     6   ar
    11     6     4   ar
    12     4     3   ar
    13     3     1   ar
