@<TRIPOS>MOLECULE
outputs/IAG933/test6/raw/output_7321_IAG933_linker_design_.xyz
 42 45 0 0 0
SMALL
GASTEIGER

@<TRIPOS>ATOM
      1 C         -24.8550   -1.0120   30.1430 C.3     1  UNL1        0.0581
      2 C         -24.9730   -2.5050   29.7880 C.2     1  UNL1       -0.0173
      3 C         -23.9060   -3.1730   29.1460 C.2     1  UNL1       -0.0039
      4 C         -23.9890   -4.5490   28.8530 C.2     1  UNL1       -0.0003
      5 C         -25.1370   -5.2800   29.2050 C.2     1  UNL1       -0.0000
      6 C         -26.2320   -4.6110   29.7840 C.2     1  UNL1       -0.0003
      7 C         -26.1550   -3.2320   30.0650 C.2     1  UNL1       -0.0039
      8 C         -25.3870   -0.6790   31.5710 C.3     1  UNL1        0.0806
      9 C         -25.1890    0.7730   32.0280 C.3     1  UNL1        0.0195
     10 C         -25.3360    0.6840   33.5440 C.3     1  UNL1        0.0203
     11 C         -24.8290   -0.7150   33.9050 C.3     1  UNL1        0.0887
     12 N         -24.7580   -1.4810   32.6460 N.3     1  UNL1       -0.2188
     13 C         -25.6880    1.6140   26.4610 C.2     1  UNL1        0.0961
     14 C         -26.2500    2.9200   26.3950 C.2     1  UNL1        0.0906
     15 C         -25.6420    4.0930   27.1230 C.2     1  UNL1        0.2677
     16 N         -25.6140    5.2520   26.4490 N.am    1  UNL1       -0.1997
     17 C         -25.0260    6.4790   26.9630 C.3     1  UNL1        0.1388
     18 O         -25.1430    3.9660   28.2430 O.2     1  UNL1       -0.2683
     19 C         -27.4380    3.0910   25.6450 C.2     1  UNL1        0.1080
     20 N         -28.0750    2.0890   25.0030 N.2     1  UNL1       -0.2080
     21 C         -27.5430    0.8490   25.0790 C.2     1  UNL1        0.2546
     22 O         -28.1930   -0.2080   24.4770 O.2     1  UNL1       -0.4558
     23 C         -29.4600    0.0050   23.8660 C.3     1  UNL1        0.2426
     24 C         -30.0650   -1.3770   23.5730 C.3     1  UNL1        0.2292
     25 O         -30.7290   -1.8780   24.7210 O.3     1  UNL1       -0.2162
     26 C         -26.3540    0.5760   25.7770 C.2     1  UNL1        0.2069
     27 F         -25.8600   -0.6810   25.7950 F       1  UNL1       -0.1979
     28 C         -27.8494    1.5954   30.6979 C.2     1  UNL1       -0.0031
     29 C         -29.0002    3.6988   29.2474 C.2     1  UNL1        0.0111
     30 C         -23.3731    1.3256   26.7689 C.2     1  UNL1        0.2668
     31 C         -27.4673    0.2056   28.7112 C.3     1  UNL1        0.0499
     32 C         -24.9713    0.2833   28.5037 C.2     1  UNL1        0.0643
     33 C         -28.0922    2.7944   31.3437 C.2     1  UNL1        0.0111
     34 C         -28.0382    1.4561   29.3160 C.2     1  UNL1       -0.0180
     35 C         -28.6661    3.8382   30.6246 C.2     1  UNL1        0.0577
     36 C         -25.8509   -0.3157   29.2278 C.2     1  UNL1       -0.0195
     37 CL        -29.0318    5.1882   31.4605 Cl      1  UNL1       -0.0822
     38 N         -24.7592    1.1919   27.3151 N.am    1  UNL1       -0.2321
     39 C         -28.7316    2.4621   28.5977 C.2     1  UNL1       -0.0031
     40 O         -22.2027    0.1167   28.6548 O.3     1  UNL1       -0.2099
     41 O         -23.0161    2.1581   25.6728 O.2     1  UNL1       -0.2713
     42 C         -22.3106    1.2949   27.9031 C.3     1  UNL1        0.2671
@<TRIPOS>BOND
     1     1    36    1
     2     2     7    1
     3     2     1    1
     4     3     2    2
     5     4     3    1
     6     4     5    2
     7     5     6    1
     8     6     7    2
     9     8     1    1
    10     8     9    1
    11     8    12    1
    12     9    10    1
    13    10    11    1
    14    12    11    1
    15    13    38    1
    16    14    13    1
    17    14    15    1
    18    15    18    2
    19    16    17    1
    20    16    15    1
    21    19    14    2
    22    20    21    2
    23    20    19    1
    24    21    26    1
    25    22    21    1
    26    23    22    1
    27    24    23    1
    28    24    25    1
    29    26    27    1
    30    26    13    2
    31    28    33    1
    32    29    35    1
    33    30    38   am
    34    30    42    1
    35    31    36    1
    36    31    34    1
    37    32    36    2
    38    34    28    2
    39    35    33    2
    40    35    37    1
    41    38    32    1
    42    39    29    2
    43    39    34    1
    44    41    30    2
    45    42    40    1
