@<TRIPOS>MOLECULE
outputs/IAG933/test6/raw/output_7326_IAG933_linker_design_.xyz
 42 44 0 0 0
SMALL
GASTEIGER

@<TRIPOS>ATOM
      1 C         -24.8550   -1.0120   30.1430 C.3     1  UNL1        0.0438
      2 C         -24.9730   -2.5050   29.7880 C.2     1  UNL1       -0.0208
      3 C         -23.9060   -3.1730   29.1460 C.2     1  UNL1       -0.0042
      4 C         -23.9890   -4.5490   28.8530 C.2     1  UNL1       -0.0003
      5 C         -25.1370   -5.2800   29.2050 C.2     1  UNL1       -0.0000
      6 C         -26.2320   -4.6110   29.7840 C.2     1  UNL1       -0.0003
      7 C         -26.1550   -3.2320   30.0650 C.2     1  UNL1       -0.0042
      8 C         -25.3870   -0.6790   31.5710 C.3     1  UNL1        0.0785
      9 C         -25.1890    0.7730   32.0280 C.3     1  UNL1        0.0363
     10 C         -25.3360    0.6840   33.5440 C.3     1  UNL1        0.0217
     11 C         -24.8290   -0.7150   33.9050 C.3     1  UNL1        0.0887
     12 N         -24.7580   -1.4810   32.6460 N.3     1  UNL1       -0.2191
     13 C         -25.6880    1.6140   26.4610 C.3     1  UNL1        0.0897
     14 C         -26.2500    2.9200   26.3950 C.2     1  UNL1        0.0565
     15 C         -25.6420    4.0930   27.1230 C.2     1  UNL1        0.2625
     16 N         -25.6140    5.2520   26.4490 N.am    1  UNL1       -0.2000
     17 C         -25.0260    6.4790   26.9630 C.3     1  UNL1        0.1388
     18 O         -25.1430    3.9660   28.2430 O.2     1  UNL1       -0.2687
     19 C         -27.4380    3.0910   25.6450 C.2     1  UNL1        0.1022
     20 N         -28.0750    2.0890   25.0030 N.2     1  UNL1       -0.2119
     21 C         -27.5430    0.8490   25.0790 C.2     1  UNL1        0.2341
     22 O         -28.1930   -0.2080   24.4770 O.2     1  UNL1       -0.4585
     23 C         -29.4600    0.0050   23.8660 C.3     1  UNL1        0.2423
     24 C         -30.0650   -1.3770   23.5730 C.3     1  UNL1        0.2292
     25 O         -30.7290   -1.8780   24.7210 O.3     1  UNL1       -0.2162
     26 C         -26.3540    0.5760   25.7770 C.3     1  UNL1        0.2416
     27 F         -25.8600   -0.6810   25.7950 F       1  UNL1       -0.2268
     28 N         -23.3102    1.6635   27.0099 N.pl3   1  UNL1       -0.2671
     29 C         -24.4044    5.2882   33.1575 C.3     1  UNL1        0.1438
     30 C         -23.1279    2.3290   25.6498 C.3     1  UNL1        0.1158
     31 C         -26.0443    7.2287   33.6418 C.3     1  UNL1        0.1119
     32 C         -25.2659    2.1206   31.2308 C.3     1  UNL1        0.1037
     33 C         -24.5696    1.2854   27.6100 C.3     1  UNL1        0.1010
     34 O         -24.3349    4.1274   32.3066 O.3     1  UNL1       -0.3522
     35 C         -24.2002    1.8162   29.0086 C.3     1  UNL1        0.1089
     36 C         -22.1629    1.2515   27.7306 C.2     1  UNL1        0.2973
     37 N         -22.1314    0.2212   28.5028 N.2     1  UNL1       -0.0993
     38 C         -25.4560    6.2738   32.6242 C.3     1  UNL1        0.0525
     39 C         -25.5382    3.5152   31.8852 C.3     1  UNL1        0.1594
     40 F         -21.0615    1.8672   27.4485 F       1  UNL1       -0.1643
     41 N         -24.1497    2.2094   30.2874 N.3     1  UNL1       -0.2151
     42 N         -26.6410    8.4071   33.0037 N.3     1  UNL1       -0.1313
@<TRIPOS>BOND
     1     2     7    1
     2     2     1    1
     3     3     2    2
     4     4     3    1
     5     4     5    2
     6     5     6    1
     7     6     7    2
     8     8     1    1
     9     8     9    1
    10     8    12    1
    11     9    32    1
    12     9    10    1
    13    10    11    1
    14    12    11    1
    15    13    33    1
    16    14    13    1
    17    14    15    1
    18    15    18    2
    19    16    17    1
    20    16    15    1
    21    19    14    2
    22    20    21    2
    23    20    19    1
    24    21    26    1
    25    22    21    1
    26    23    22    1
    27    24    23    1
    28    24    25    1
    29    26    27    1
    30    26    13    1
    31    28    33    1
    32    28    36    1
    33    30    28    1
    34    32    39    1
    35    33    35    1
    36    34    29    1
    37    35    41    1
    38    36    37    2
    39    38    29    1
    40    38    31    1
    41    39    34    1
    42    40    36    1
    43    41    32    1
    44    42    31    1
