@<TRIPOS>MOLECULE
outputs/IAG933/test6/raw/output_7335_IAG933_linker_design_.xyz
 42 46 0 0 0
SMALL
GASTEIGER

@<TRIPOS>ATOM
      1 C         -24.8550   -1.0120   30.1430 C.3     1  UNL1        0.0697
      2 C         -24.9730   -2.5050   29.7880 C.2     1  UNL1       -0.0184
      3 C         -23.9060   -3.1730   29.1460 C.2     1  UNL1       -0.0041
      4 C         -23.9890   -4.5490   28.8530 C.2     1  UNL1       -0.0003
      5 C         -25.1370   -5.2800   29.2050 C.2     1  UNL1       -0.0000
      6 C         -26.2320   -4.6110   29.7840 C.2     1  UNL1       -0.0003
      7 C         -26.1550   -3.2320   30.0650 C.2     1  UNL1       -0.0041
      8 C         -25.3870   -0.6790   31.5710 C.3     1  UNL1        0.0795
      9 C         -25.1890    0.7730   32.0280 C.3     1  UNL1        0.0193
     10 C         -25.3360    0.6840   33.5440 C.3     1  UNL1        0.0202
     11 C         -24.8290   -0.7150   33.9050 C.3     1  UNL1        0.0887
     12 N         -24.7580   -1.4810   32.6460 N.3     1  UNL1       -0.2190
     13 C         -25.6880    1.6140   26.4610 C.2     1  UNL1        0.0379
     14 C         -26.2500    2.9200   26.3950 C.2     1  UNL1        0.0765
     15 C         -25.6420    4.0930   27.1230 C.2     1  UNL1        0.2664
     16 N         -25.6140    5.2520   26.4490 N.am    1  UNL1       -0.1997
     17 C         -25.0260    6.4790   26.9630 C.3     1  UNL1        0.1388
     18 O         -25.1430    3.9660   28.2430 O.2     1  UNL1       -0.2683
     19 C         -27.4380    3.0910   25.6450 C.2     1  UNL1        0.1067
     20 N         -28.0750    2.0890   25.0030 N.2     1  UNL1       -0.2081
     21 C         -27.5430    0.8490   25.0790 C.2     1  UNL1        0.2533
     22 O         -28.1930   -0.2080   24.4770 O.2     1  UNL1       -0.4558
     23 C         -29.4600    0.0050   23.8660 C.3     1  UNL1        0.2426
     24 C         -30.0650   -1.3770   23.5730 C.3     1  UNL1        0.2292
     25 O         -30.7290   -1.8780   24.7210 O.3     1  UNL1       -0.2162
     26 C         -26.3540    0.5760   25.7770 C.2     1  UNL1        0.1930
     27 F         -25.8600   -0.6810   25.7950 F       1  UNL1       -0.1992
     28 C         -25.2950   -0.0066   29.1271 C.3     1  UNL1        0.1429
     29 O         -26.5908    0.2400   28.9976 O.3     1  UNL1       -0.3487
     30 C         -27.8787    2.5635   29.8939 C.3     1  UNL1        0.1743
     31 C         -23.4189    1.9277   26.2549 C.2     1  UNL1        0.0021
     32 F         -20.5363    1.2696   28.2615 F       1  UNL1       -0.2042
     33 C         -29.5257    1.1239   30.0991 C.3     1  UNL1        0.1776
     34 C         -24.2004    0.6168   28.2986 C.2     1  UNL1        0.0072
     35 C         -28.6949    0.7644   29.0436 C.3     1  UNL1        0.2108
     36 O         -29.0666    2.3527   30.4568 O.3     1  UNL1       -0.3483
     37 C         -22.8329    0.6388   28.7181 C.2     1  UNL1        0.0277
     38 O         -28.8785    0.0247   27.9527 O.3     1  UNL1       -0.2177
     39 C         -27.4353    1.4021   29.1636 C.3     1  UNL1        0.1777
     40 C         -22.1048    1.9119   26.7003 C.2     1  UNL1        0.0296
     41 C         -24.4452    1.3140   27.0619 C.2     1  UNL1        0.0010
     42 C         -21.8333    1.2516   27.9397 C.2     1  UNL1        0.1399
@<TRIPOS>BOND
     1     1    28    1
     2     2     7    1
     3     2     1    1
     4     3     2    2
     5     4     3    1
     6     4     5    2
     7     5     6    1
     8     6     7    2
     9     8     1    1
    10     8     9    1
    11     8    12    1
    12     9    10    1
    13    10    11    1
    14    12    11    1
    15    13    41    1
    16    14    13    1
    17    14    15    1
    18    15    18    2
    19    16    17    1
    20    16    15    1
    21    19    14    2
    22    20    21    2
    23    20    19    1
    24    21    26    1
    25    22    21    1
    26    23    22    1
    27    24    23    1
    28    24    25    1
    29    26    27    1
    30    26    13    2
    31    28    29    1
    32    30    36    1
    33    31    40    2
    34    31    41    1
    35    33    36    1
    36    34    37    1
    37    34    28    1
    38    35    38    1
    39    35    39    1
    40    35    33    1
    41    39    29    1
    42    39    30    1
    43    40    42    1
    44    41    34    2
    45    42    32    1
    46    42    37    2
