@<TRIPOS>MOLECULE
outputs/IAG933/test6/raw/output_7337_IAG933_linker_design_.xyz
 40 44 0 0 0
SMALL
GASTEIGER

@<TRIPOS>ATOM
      1 C         -24.8550   -1.0120   30.1430 C.3     1  UNL1        0.1191
      2 C         -24.9730   -2.5050   29.7880 C.2     1  UNL1       -0.0027
      3 C         -23.9060   -3.1730   29.1460 C.2     1  UNL1       -0.0026
      4 C         -23.9890   -4.5490   28.8530 C.2     1  UNL1       -0.0003
      5 C         -25.1370   -5.2800   29.2050 C.2     1  UNL1       -0.0000
      6 C         -26.2320   -4.6110   29.7840 C.2     1  UNL1       -0.0003
      7 C         -26.1550   -3.2320   30.0650 C.2     1  UNL1       -0.0026
      8 C         -25.3870   -0.6790   31.5710 C.3     1  UNL1        0.0953
      9 C         -25.1890    0.7730   32.0280 C.3     1  UNL1        0.0209
     10 C         -25.3360    0.6840   33.5440 C.3     1  UNL1        0.0203
     11 C         -24.8290   -0.7150   33.9050 C.3     1  UNL1        0.0888
     12 N         -24.7580   -1.4810   32.6460 N.3     1  UNL1       -0.2174
     13 C         -25.6880    1.6140   26.4610 C.3     1  UNL1        0.0922
     14 C         -26.2500    2.9200   26.3950 C.2     1  UNL1        0.0589
     15 C         -25.6420    4.0930   27.1230 C.2     1  UNL1        0.2628
     16 N         -25.6140    5.2520   26.4490 N.am    1  UNL1       -0.2000
     17 C         -25.0260    6.4790   26.9630 C.3     1  UNL1        0.1388
     18 O         -25.1430    3.9660   28.2430 O.2     1  UNL1       -0.2686
     19 C         -27.4380    3.0910   25.6450 C.2     1  UNL1        0.1025
     20 N         -28.0750    2.0890   25.0030 N.2     1  UNL1       -0.2118
     21 C         -27.5430    0.8490   25.0790 C.2     1  UNL1        0.2344
     22 O         -28.1930   -0.2080   24.4770 O.2     1  UNL1       -0.4585
     23 C         -29.4600    0.0050   23.8660 C.3     1  UNL1        0.2423
     24 C         -30.0650   -1.3770   23.5730 C.3     1  UNL1        0.2292
     25 O         -30.7290   -1.8780   24.7210 O.3     1  UNL1       -0.2162
     26 C         -26.3540    0.5760   25.7770 C.3     1  UNL1        0.2440
     27 F         -25.8600   -0.6810   25.7950 F       1  UNL1       -0.2265
     28 O         -25.5323    1.8648   29.0557 O.co2   1  UNL1       -0.2223
     29 C         -21.4625    1.9288   26.3867 C.2     1  UNL1        0.0013
     30 N         -22.2638   -0.2795   29.1300 N.2     1  UNL1       -0.2461
     31 C         -21.2026    0.4223   28.3304 C.2     1  UNL1        0.0952
     32 C         -23.4931    0.1038   28.7464 C.3     1  UNL1        0.2061
     33 O         -26.9359    0.1494   28.6584 O.co2   1  UNL1       -0.2223
     34 C         -22.3215    2.2272   25.3420 C.2     1  UNL1       -0.0003
     35 N         -24.7000   -0.0223   29.1927 N.am    1  UNL1       -0.2175
     36 C         -24.2259    1.4613   26.5387 C.2     1  UNL1       -0.0155
     37 C         -25.7988    0.6770   28.9391 C.2     1  UNL1        0.4490
     38 C         -23.6511    1.9328   25.3520 C.2     1  UNL1       -0.0041
     39 C         -21.8717    1.1729   27.4464 C.2     1  UNL1        0.0179
     40 C         -23.2741    0.9592   27.5576 C.2     1  UNL1        0.0169
@<TRIPOS>BOND
     1     1    35    1
     2     2     7    1
     3     2     1    1
     4     3     2    2
     5     4     3    1
     6     4     5    2
     7     5     6    1
     8     6     7    2
     9     8     1    1
    10     8     9    1
    11     8    12    1
    12     9    10    1
    13    10    11    1
    14    12    11    1
    15    13    36    1
    16    14    13    1
    17    14    15    1
    18    15    18    2
    19    16    17    1
    20    16    15    1
    21    19    14    2
    22    20    21    2
    23    20    19    1
    24    21    26    1
    25    22    21    1
    26    23    22    1
    27    24    23    1
    28    24    25    1
    29    26    27    1
    30    26    13    1
    31    29    39    1
    32    31    30    2
    33    32    30    1
    34    32    35    1
    35    33    37   ar
    36    34    38    1
    37    34    29    2
    38    36    40    1
    39    37    28   ar
    40    37    35   am
    41    38    36    2
    42    39    40    2
    43    39    31    1
    44    40    32    1
