@<TRIPOS>MOLECULE
outputs/IAG933/test6/raw/output_7342_IAG933_linker_design_.xyz
 46 50 0 0 0
SMALL
GASTEIGER

@<TRIPOS>ATOM
      1 C         -24.8550   -1.0120   30.1430 C.3     1  UNL1        0.0432
      2 C         -24.9730   -2.5050   29.7880 C.2     1  UNL1       -0.0210
      3 C         -23.9060   -3.1730   29.1460 C.2     1  UNL1       -0.0042
      4 C         -23.9890   -4.5490   28.8530 C.2     1  UNL1       -0.0003
      5 C         -25.1370   -5.2800   29.2050 C.2     1  UNL1       -0.0000
      6 C         -26.2320   -4.6110   29.7840 C.2     1  UNL1       -0.0003
      7 C         -26.1550   -3.2320   30.0650 C.2     1  UNL1       -0.0042
      8 C         -25.3870   -0.6790   31.5710 C.3     1  UNL1        0.0770
      9 C         -25.1890    0.7730   32.0280 C.3     1  UNL1        0.0192
     10 C         -25.3360    0.6840   33.5440 C.3     1  UNL1        0.0202
     11 C         -24.8290   -0.7150   33.9050 C.3     1  UNL1        0.0887
     12 N         -24.7580   -1.4810   32.6460 N.3     1  UNL1       -0.2191
     13 C         -25.6880    1.6140   26.4610 C.3     1  UNL1        0.1288
     14 C         -26.2500    2.9200   26.3950 C.2     1  UNL1        0.0696
     15 C         -25.6420    4.0930   27.1230 C.2     1  UNL1        0.2637
     16 N         -25.6140    5.2520   26.4490 N.am    1  UNL1       -0.2000
     17 C         -25.0260    6.4790   26.9630 C.3     1  UNL1        0.1388
     18 O         -25.1430    3.9660   28.2430 O.2     1  UNL1       -0.2686
     19 C         -27.4380    3.0910   25.6450 C.2     1  UNL1        0.1035
     20 N         -28.0750    2.0890   25.0030 N.2     1  UNL1       -0.2118
     21 C         -27.5430    0.8490   25.0790 C.2     1  UNL1        0.2355
     22 O         -28.1930   -0.2080   24.4770 O.2     1  UNL1       -0.4585
     23 C         -29.4600    0.0050   23.8660 C.3     1  UNL1        0.2423
     24 C         -30.0650   -1.3770   23.5730 C.3     1  UNL1        0.2292
     25 O         -30.7290   -1.8780   24.7210 O.3     1  UNL1       -0.2162
     26 C         -26.3540    0.5760   25.7770 C.3     1  UNL1        0.2546
     27 F         -25.8600   -0.6810   25.7950 F       1  UNL1       -0.2254
     28 O         -20.1288    0.2280   28.6810 O.2     1  UNL1       -0.2470
     29 C         -22.8874    1.6525   25.9744 C.2     1  UNL1        0.3839
     30 O         -22.3869   -0.3872   29.0997 O.3     1  UNL1       -0.4483
     31 C         -25.7188    0.9384   28.7611 C.3     1  UNL1        0.0641
     32 C         -23.3454    1.1485   27.5120 C.3     1  UNL1        0.2177
     33 O         -21.5443    1.8067   25.6273 O.co2   1  UNL1       -0.2440
     34 N         -26.0271    4.9911   33.1210 N.am    1  UNL1       -0.0679
     35 C         -24.8713   -0.2158   28.8639 C.3     1  UNL1        0.0622
     36 C         -26.8645    3.3403   29.9085 C.3     1  UNL1        0.1183
     37 F         -21.4570    2.6071   28.0647 F       1  UNL1       -0.2230
     38 C         -26.7144    2.1684   29.3569 C.3     1  UNL1        0.0396
     39 O         -24.7356    3.8223   31.7610 O.2     1  UNL1       -0.2474
     40 N         -24.8757    1.3117   27.6189 N.3     1  UNL1       -0.2567
     41 N         -26.7685    4.4113   30.9843 N.am    1  UNL1       -0.1858
     42 C         -25.7902    4.4015   31.9518 C.2     1  UNL1        0.3589
     43 O         -23.6036    1.5739   24.7967 O.co2   1  UNL1       -0.2440
     44 C         -21.3620    0.3949   28.6410 C.2     1  UNL1        0.3520
     45 C         -21.8967    1.4197   28.1011 C.3     1  UNL1        0.2855
     46 C         -23.4541    0.2526   28.5077 C.3     1  UNL1        0.1972
@<TRIPOS>BOND
     1     1     2    1
     2     2     7    1
     3     3     2    2
     4     4     3    1
     5     4     5    2
     6     5     6    1
     7     6     7    2
     8     8     1    1
     9     8     9    1
    10     8    12    1
    11     9    10    1
    12    10    11    1
    13    12    11    1
    14    13    14    1
    15    14    15    1
    16    15    18    2
    17    16    17    1
    18    16    15    1
    19    19    14    2
    20    20    21    2
    21    20    19    1
    22    21    26    1
    23    22    21    1
    24    23    22    1
    25    24    23    1
    26    24    25    1
    27    26    27    1
    28    26    13    1
    29    31    35    1
    30    31    38    1
    31    32    29    1
    32    32    40    1
    33    32    45    1
    34    32    46    1
    35    33    29   ar
    36    35     1    1
    37    36    41    1
    38    38    36    1
    39    39    42    2
    40    40    13    1
    41    40    31    1
    42    41    42    1
    43    42    34    1
    44    43    29   ar
    45    44    28    2
    46    44    30    1
    47    45    37    1
    48    45    44    1
    49    46    35    1
    50    46    30    1
