@<TRIPOS>MOLECULE
outputs/IAG933/test6/raw/output_7344_IAG933_linker_design_.xyz
 46 50 0 0 0
SMALL
GASTEIGER

@<TRIPOS>ATOM
      1 C         -24.8550   -1.0120   30.1430 C.3     1  UNL1        0.0454
      2 C         -24.9730   -2.5050   29.7880 C.2     1  UNL1       -0.0207
      3 C         -23.9060   -3.1730   29.1460 C.2     1  UNL1       -0.0042
      4 C         -23.9890   -4.5490   28.8530 C.2     1  UNL1       -0.0003
      5 C         -25.1370   -5.2800   29.2050 C.2     1  UNL1       -0.0000
      6 C         -26.2320   -4.6110   29.7840 C.2     1  UNL1       -0.0003
      7 C         -26.1550   -3.2320   30.0650 C.2     1  UNL1       -0.0042
      8 C         -25.3870   -0.6790   31.5710 C.3     1  UNL1        0.0956
      9 C         -25.1890    0.7730   32.0280 C.3     1  UNL1        0.0977
     10 C         -25.3360    0.6840   33.5440 C.3     1  UNL1        0.0404
     11 C         -24.8290   -0.7150   33.9050 C.3     1  UNL1        0.0905
     12 N         -24.7580   -1.4810   32.6460 N.3     1  UNL1       -0.2174
     13 C         -25.6880    1.6140   26.4610 C.2     1  UNL1        0.0420
     14 C         -26.2500    2.9200   26.3950 C.2     1  UNL1        0.0767
     15 C         -25.6420    4.0930   27.1230 C.2     1  UNL1        0.2664
     16 N         -25.6140    5.2520   26.4490 N.am    1  UNL1       -0.1997
     17 C         -25.0260    6.4790   26.9630 C.3     1  UNL1        0.1388
     18 O         -25.1430    3.9660   28.2430 O.2     1  UNL1       -0.2683
     19 C         -27.4380    3.0910   25.6450 C.2     1  UNL1        0.1067
     20 N         -28.0750    2.0890   25.0030 N.2     1  UNL1       -0.2081
     21 C         -27.5430    0.8490   25.0790 C.2     1  UNL1        0.2533
     22 O         -28.1930   -0.2080   24.4770 O.2     1  UNL1       -0.4558
     23 C         -29.4600    0.0050   23.8660 C.3     1  UNL1        0.2426
     24 C         -30.0650   -1.3770   23.5730 C.3     1  UNL1        0.2292
     25 O         -30.7290   -1.8780   24.7210 O.3     1  UNL1       -0.2162
     26 C         -26.3540    0.5760   25.7770 C.2     1  UNL1        0.1932
     27 F         -25.8600   -0.6810   25.7950 F       1  UNL1       -0.1992
     28 C         -28.7774    1.4096   30.5344 C.2     1  UNL1        0.0177
     29 C         -27.8083    2.8644   33.9036 C.3     1  UNL1        0.0324
     30 CL        -23.1232    1.7261   24.7137 Cl      1  UNL1       -0.0429
     31 N         -26.2270    1.8510   31.3266 N.am    1  UNL1       -0.2557
     32 C         -25.7655    1.6086   29.6039 C.2     1  UNL1        0.2526
     33 C         -22.0274    1.4282   28.4688 C.3     1  UNL1        0.2330
     34 C         -23.2443    1.5665   26.4366 C.2     1  UNL1        0.1979
     35 C         -24.4897    1.4554   28.5743 C.2     1  UNL1        0.0571
     36 C         -24.4905    1.5047   27.1375 C.2     1  UNL1        0.0520
     37 O         -31.7863    0.3843   32.5694 O.2     1  UNL1       -0.4714
     38 C         -29.7135    1.3904   33.1845 C.2     1  UNL1        0.0339
     39 C         -30.1035    0.9548   30.8707 C.2     1  UNL1        0.0382
     40 O         -26.9965    1.5815   28.9190 O.2     1  UNL1       -0.2696
     41 C         -28.4566    1.9547   32.8312 C.2     1  UNL1       -0.0051
     42 C         -27.8023    1.7863   31.5926 C.2     1  UNL1        0.0503
     43 C         -23.2443    1.3835   29.1944 C.2     1  UNL1        0.0254
     44 O         -22.0646    1.6513   27.1149 O.2     1  UNL1       -0.4607
     45 C         -31.7265   -0.9614   33.0760 C.3     1  UNL1        0.2525
     46 C         -30.5746    0.9018   32.2077 C.2     1  UNL1        0.1385
@<TRIPOS>BOND
     1     2     7    1
     2     2     1    1
     3     3     2    2
     4     4     3    1
     5     4     5    2
     6     5     6    1
     7     6     7    2
     8     8     1    1
     9     8     9    1
    10     8    12    1
    11     9    31    1
    12     9    10    1
    13    10    11    1
    14    12    11    1
    15    13    36    1
    16    14    13    1
    17    14    15    1
    18    15    18    2
    19    16    17    1
    20    16    15    1
    21    19    14    2
    22    20    21    2
    23    20    19    1
    24    21    26    1
    25    22    21    1
    26    23    22    1
    27    24    23    1
    28    24    25    1
    29    26    27    1
    30    26    13    2
    31    28    39    2
    32    28    42    1
    33    30    34    1
    34    31    42    1
    35    32    31   am
    36    33    43    1
    37    34    44    1
    38    34    36    2
    39    35    43    2
    40    35    32    1
    41    36    35    1
    42    37    45    1
    43    39    46    1
    44    40    32    2
    45    41    38    1
    46    41    29    1
    47    42    41    2
    48    44    33    1
    49    46    37    1
    50    46    38    2
