@<TRIPOS>MOLECULE
outputs/IAG933/test6/raw/output_7347_IAG933_linker_design_.xyz
 42 45 0 0 0
SMALL
GASTEIGER

@<TRIPOS>ATOM
      1 C         -24.8550   -1.0120   30.1430 C.3     1  UNL1        0.0437
      2 C         -24.9730   -2.5050   29.7880 C.2     1  UNL1       -0.0208
      3 C         -23.9060   -3.1730   29.1460 C.2     1  UNL1       -0.0042
      4 C         -23.9890   -4.5490   28.8530 C.2     1  UNL1       -0.0003
      5 C         -25.1370   -5.2800   29.2050 C.2     1  UNL1       -0.0000
      6 C         -26.2320   -4.6110   29.7840 C.2     1  UNL1       -0.0003
      7 C         -26.1550   -3.2320   30.0650 C.2     1  UNL1       -0.0042
      8 C         -25.3870   -0.6790   31.5710 C.3     1  UNL1        0.0771
      9 C         -25.1890    0.7730   32.0280 C.3     1  UNL1        0.0179
     10 C         -25.3360    0.6840   33.5440 C.3     1  UNL1        0.0202
     11 C         -24.8290   -0.7150   33.9050 C.3     1  UNL1        0.0887
     12 N         -24.7580   -1.4810   32.6460 N.3     1  UNL1       -0.2191
     13 C         -25.6880    1.6140   26.4610 C.3     1  UNL1        0.0847
     14 C         -26.2500    2.9200   26.3950 C.2     1  UNL1        0.0561
     15 C         -25.6420    4.0930   27.1230 C.2     1  UNL1        0.2625
     16 N         -25.6140    5.2520   26.4490 N.am    1  UNL1       -0.2000
     17 C         -25.0260    6.4790   26.9630 C.3     1  UNL1        0.1388
     18 O         -25.1430    3.9660   28.2430 O.2     1  UNL1       -0.2687
     19 C         -27.4380    3.0910   25.6450 C.2     1  UNL1        0.1022
     20 N         -28.0750    2.0890   25.0030 N.2     1  UNL1       -0.2119
     21 C         -27.5430    0.8490   25.0790 C.2     1  UNL1        0.2341
     22 O         -28.1930   -0.2080   24.4770 O.2     1  UNL1       -0.4585
     23 C         -29.4600    0.0050   23.8660 C.3     1  UNL1        0.2423
     24 C         -30.0650   -1.3770   23.5730 C.3     1  UNL1        0.2292
     25 O         -30.7290   -1.8780   24.7210 O.3     1  UNL1       -0.2162
     26 C         -26.3540    0.5760   25.7770 C.3     1  UNL1        0.2413
     27 F         -25.8600   -0.6810   25.7950 F       1  UNL1       -0.2268
     28 C         -25.8542    3.7245   32.3571 C.3     1  UNL1        0.0117
     29 C         -25.5267    2.2853   31.7699 C.3     1  UNL1        0.0033
     30 C         -24.6558    2.5177   30.5612 C.3     1  UNL1        0.0174
     31 C         -24.5737    4.5765   32.5843 C.3     1  UNL1        0.1096
     32 O         -24.1945    7.0873   33.0271 O.3     1  UNL1       -0.4277
     33 O         -25.8239    6.0008   34.0571 O.2     1  UNL1       -0.2501
     34 C         -24.9124    5.9345   33.2607 C.2     1  UNL1        0.3183
     35 C         -22.3176    1.3032   27.9812 C.3     1  UNL1        0.0721
     36 N         -24.8774    8.3799   35.0026 N.3     1  UNL1       -0.0813
     37 C         -24.2781    1.5154   26.9025 C.3     1  UNL1        0.0649
     38 C         -23.3381    1.7269   25.7669 C.3     1  UNL1        0.0178
     39 N         -23.7752    1.4219   28.2419 N.3     1  UNL1       -0.2735
     40 C         -24.6611    1.2694   29.6694 C.3     1  UNL1        0.0721
     41 C         -24.7831    8.2748   33.5653 C.3     1  UNL1        0.3189
     42 C         -22.0617    1.9308   26.2091 C.3     1  UNL1        0.0187
@<TRIPOS>BOND
     1     2     7    1
     2     2     1    1
     3     3     2    2
     4     4     3    1
     5     4     5    2
     6     5     6    1
     7     6     7    2
     8     8     1    1
     9     8     9    1
    10     8    12    1
    11     9    29    1
    12     9    10    1
    13    10    11    1
    14    12    11    1
    15    13    14    1
    16    13    37    1
    17    14    15    1
    18    15    18    2
    19    16    17    1
    20    16    15    1
    21    19    14    2
    22    20    21    2
    23    20    19    1
    24    21    26    1
    25    22    21    1
    26    23    22    1
    27    24    23    1
    28    24    25    1
    29    26    27    1
    30    26    13    1
    31    28    31    1
    32    29    30    1
    33    29    28    1
    34    31    34    1
    35    32    34    1
    36    32    41    1
    37    34    33    2
    38    35    39    1
    39    37    38    1
    40    37    39    1
    41    38    42    1
    42    39    40    1
    43    40    30    1
    44    41    36    1
    45    42    35    1
