@<TRIPOS>MOLECULE
outputs/IAG933/test6/raw/output_7351_IAG933_linker_design_.xyz
 43 47 0 0 0
SMALL
GASTEIGER

@<TRIPOS>ATOM
      1 C         -24.8550   -1.0120   30.1430 C.3     1  UNL1        0.0400
      2 C         -24.9730   -2.5050   29.7880 C.2     1  UNL1       -0.0211
      3 C         -23.9060   -3.1730   29.1460 C.2     1  UNL1       -0.0042
      4 C         -23.9890   -4.5490   28.8530 C.2     1  UNL1       -0.0003
      5 C         -25.1370   -5.2800   29.2050 C.2     1  UNL1       -0.0000
      6 C         -26.2320   -4.6110   29.7840 C.2     1  UNL1       -0.0003
      7 C         -26.1550   -3.2320   30.0650 C.2     1  UNL1       -0.0042
      8 C         -25.3870   -0.6790   31.5710 C.3     1  UNL1        0.0772
      9 C         -25.1890    0.7730   32.0280 C.3     1  UNL1        0.0232
     10 C         -25.3360    0.6840   33.5440 C.3     1  UNL1        0.0206
     11 C         -24.8290   -0.7150   33.9050 C.3     1  UNL1        0.0887
     12 N         -24.7580   -1.4810   32.6460 N.3     1  UNL1       -0.2191
     13 C         -25.6880    1.6140   26.4610 C.2     1  UNL1        0.0447
     14 C         -26.2500    2.9200   26.3950 C.2     1  UNL1        0.0747
     15 C         -25.6420    4.0930   27.1230 C.2     1  UNL1        0.2662
     16 N         -25.6140    5.2520   26.4490 N.am    1  UNL1       -0.1997
     17 C         -25.0260    6.4790   26.9630 C.3     1  UNL1        0.1388
     18 O         -25.1430    3.9660   28.2430 O.2     1  UNL1       -0.2683
     19 C         -27.4380    3.0910   25.6450 C.2     1  UNL1        0.1065
     20 N         -28.0750    2.0890   25.0030 N.2     1  UNL1       -0.2081
     21 C         -27.5430    0.8490   25.0790 C.2     1  UNL1        0.2530
     22 O         -28.1930   -0.2080   24.4770 O.2     1  UNL1       -0.4558
     23 C         -29.4600    0.0050   23.8660 C.3     1  UNL1        0.2426
     24 C         -30.0650   -1.3770   23.5730 C.3     1  UNL1        0.2292
     25 O         -30.7290   -1.8780   24.7210 O.3     1  UNL1       -0.2162
     26 C         -26.3540    0.5760   25.7770 C.2     1  UNL1        0.1912
     27 F         -25.8600   -0.6810   25.7950 F       1  UNL1       -0.1995
     28 O         -23.0693    2.3340   25.1568 O.2     1  UNL1       -0.2474
     29 C         -27.5226    2.0797   31.1255 C.2     1  UNL1        0.0227
     30 O         -29.0547    1.9442   29.3850 O.3     1  UNL1       -0.2151
     31 C         -28.8631    2.5461   30.6523 C.3     1  UNL1        0.2094
     32 C         -24.2765    2.0682   30.1760 C.3     1  UNL1        0.0257
     33 C         -25.0894    2.2042   31.4349 C.3     1  UNL1        0.0422
     34 C         -26.4961    2.8862   31.0285 C.2     1  UNL1        0.0647
     35 O         -21.9476    0.0656   28.9354 O.2     1  UNL1       -0.2257
     36 C         -22.5991    0.8415   28.2438 C.2     1  UNL1        0.4121
     37 N         -23.9787    1.0875   28.0937 N.am    1  UNL1       -0.2350
     38 C         -23.2114    1.9030   26.3291 C.2     1  UNL1        0.3473
     39 C         -24.7756    1.1463   29.2177 C.3     1  UNL1        0.0801
     40 C         -25.5479   -0.1397   29.2294 C.3     1  UNL1        0.0257
     41 C         -24.3544    1.4733   26.9452 C.3     1  UNL1        0.2031
     42 N         -26.5100    4.1871   30.7734 N.pl3   1  UNL1       -0.1330
     43 O         -22.1274    1.6087   27.1436 O.3     1  UNL1       -0.3764
@<TRIPOS>BOND
     1     1     2    1
     2     1     8    1
     3     2     7    1
     4     3     2    2
     5     4     3    1
     6     4     5    2
     7     5     6    1
     8     6     7    2
     9     8     9    1
    10     8    12    1
    11     9    10    1
    12    10    11    1
    13    12    11    1
    14    14    13    1
    15    14    15    1
    16    15    18    2
    17    16    17    1
    18    16    15    1
    19    19    14    2
    20    20    21    2
    21    20    19    1
    22    21    26    1
    23    22    21    1
    24    23    22    1
    25    24    23    1
    26    24    25    1
    27    26    27    1
    28    26    13    2
    29    28    38    2
    30    30    31    1
    31    31    29    1
    32    32    33    1
    33    33    34    1
    34    33     9    1
    35    34    29    2
    36    36    35    2
    37    37    36   am
    38    38    41    1
    39    38    43    1
    40    39    37    1
    41    39    40    1
    42    39    32    1
    43    40     1    1
    44    41    13    1
    45    41    37    1
    46    42    34    1
    47    43    36    1
