@<TRIPOS>MOLECULE
outputs/IAG933/test6/raw/output_7352_IAG933_linker_design_.xyz
 38 42 0 0 0
SMALL
GASTEIGER

@<TRIPOS>ATOM
      1 C         -24.8550   -1.0120   30.1430 C.3     1  UNL1        0.0816
      2 C         -24.9730   -2.5050   29.7880 C.2     1  UNL1       -0.0154
      3 C         -23.9060   -3.1730   29.1460 C.2     1  UNL1       -0.0039
      4 C         -23.9890   -4.5490   28.8530 C.2     1  UNL1       -0.0003
      5 C         -25.1370   -5.2800   29.2050 C.2     1  UNL1       -0.0000
      6 C         -26.2320   -4.6110   29.7840 C.2     1  UNL1       -0.0003
      7 C         -26.1550   -3.2320   30.0650 C.2     1  UNL1       -0.0039
      8 C         -25.3870   -0.6790   31.5710 C.3     1  UNL1        0.0825
      9 C         -25.1890    0.7730   32.0280 C.3     1  UNL1        0.0196
     10 C         -25.3360    0.6840   33.5440 C.3     1  UNL1        0.0203
     11 C         -24.8290   -0.7150   33.9050 C.3     1  UNL1        0.0887
     12 N         -24.7580   -1.4810   32.6460 N.3     1  UNL1       -0.2187
     13 C         -25.6880    1.6140   26.4610 C.2     1  UNL1        0.0830
     14 C         -26.2500    2.9200   26.3950 C.2     1  UNL1        0.0783
     15 C         -25.6420    4.0930   27.1230 C.2     1  UNL1        0.2663
     16 N         -25.6140    5.2520   26.4490 N.am    1  UNL1       -0.1997
     17 C         -25.0260    6.4790   26.9630 C.3     1  UNL1        0.1388
     18 O         -25.1430    3.9660   28.2430 O.2     1  UNL1       -0.2683
     19 C         -27.4380    3.0910   25.6450 C.2     1  UNL1        0.1066
     20 N         -28.0750    2.0890   25.0030 N.2     1  UNL1       -0.2081
     21 C         -27.5430    0.8490   25.0790 C.2     1  UNL1        0.2532
     22 O         -28.1930   -0.2080   24.4770 O.2     1  UNL1       -0.4558
     23 C         -29.4600    0.0050   23.8660 C.3     1  UNL1        0.2426
     24 C         -30.0650   -1.3770   23.5730 C.3     1  UNL1        0.2292
     25 O         -30.7290   -1.8780   24.7210 O.3     1  UNL1       -0.2162
     26 C         -26.3540    0.5760   25.7770 C.2     1  UNL1        0.1948
     27 F         -25.8600   -0.6810   25.7950 F       1  UNL1       -0.1994
     28 C         -22.7252    2.3317   26.2583 C.2     1  UNL1        0.5492
     29 C         -22.9192    0.2249   29.2063 C.2     1  UNL1        0.2951
     30 C         -24.3343   -0.0449   29.2596 C.2     1  UNL1        0.1095
     31 N         -23.3293    1.5718   27.2472 N.am    1  UNL1       -0.0735
     32 N         -21.2337    1.4085   27.6976 N.3     1  UNL1        0.1705
     33 C         -24.6719    1.2943   27.4075 C.3     1  UNL1        0.3028
     34 O         -22.1691   -0.1030   30.2005 O.2     1  UNL1       -0.2772
     35 C         -22.4307    1.0765   28.0755 C.2     1  UNL1        0.4209
     36 O         -23.2549    2.9318   25.3328 O.2     1  UNL1       -0.1975
     37 N         -25.1481    0.5897   28.4139 N.2     1  UNL1       -0.2253
     38 O         -21.3338    2.1780   26.4992 O.3     1  UNL1       -0.1698
@<TRIPOS>BOND
     1     1    30    1
     2     2     7    1
     3     2     1    1
     4     3     2    2
     5     4     3    1
     6     4     5    2
     7     5     6    1
     8     6     7    2
     9     8     1    1
    10     8     9    1
    11     8    12    1
    12     9    10    1
    13    10    11    1
    14    12    11    1
    15    14    13    1
    16    14    15    1
    17    15    18    2
    18    16    17    1
    19    16    15    1
    20    19    14    2
    21    20    21    2
    22    20    19    1
    23    21    26    1
    24    22    21    1
    25    23    22    1
    26    24    23    1
    27    24    25    1
    28    26    27    1
    29    26    13    2
    30    28    38    1
    31    28    31   am
    32    29    30    1
    33    29    34    1
    34    31    33    1
    35    31    35    1
    36    32    35    1
    37    33    13    1
    38    33    37    1
    39    35    29    2
    40    36    28    2
    41    37    30    2
    42    38    32    1
