@<TRIPOS>MOLECULE
outputs/IAG933/test6/raw/output_736_IAG933_linker_design_.xyz
 41 44 0 0 0
SMALL
GASTEIGER

@<TRIPOS>ATOM
      1 C         -24.8550   -1.0120   30.1430 C.3     1  UNL1        0.0437
      2 C         -24.9730   -2.5050   29.7880 C.2     1  UNL1       -0.0208
      3 C         -23.9060   -3.1730   29.1460 C.2     1  UNL1       -0.0042
      4 C         -23.9890   -4.5490   28.8530 C.2     1  UNL1       -0.0003
      5 C         -25.1370   -5.2800   29.2050 C.2     1  UNL1       -0.0000
      6 C         -26.2320   -4.6110   29.7840 C.2     1  UNL1       -0.0003
      7 C         -26.1550   -3.2320   30.0650 C.2     1  UNL1       -0.0042
      8 C         -25.3870   -0.6790   31.5710 C.3     1  UNL1        0.0776
      9 C         -25.1890    0.7730   32.0280 C.3     1  UNL1        0.0265
     10 C         -25.3360    0.6840   33.5440 C.3     1  UNL1        0.0207
     11 C         -24.8290   -0.7150   33.9050 C.3     1  UNL1        0.0887
     12 N         -24.7580   -1.4810   32.6460 N.3     1  UNL1       -0.2191
     13 C         -25.6880    1.6140   26.4610 C.3     1  UNL1        0.0943
     14 C         -26.2500    2.9200   26.3950 C.2     1  UNL1        0.0589
     15 C         -25.6420    4.0930   27.1230 C.2     1  UNL1        0.2628
     16 N         -25.6140    5.2520   26.4490 N.am    1  UNL1       -0.2000
     17 C         -25.0260    6.4790   26.9630 C.3     1  UNL1        0.1388
     18 O         -25.1430    3.9660   28.2430 O.2     1  UNL1       -0.2686
     19 C         -27.4380    3.0910   25.6450 C.2     1  UNL1        0.1025
     20 N         -28.0750    2.0890   25.0030 N.2     1  UNL1       -0.2118
     21 C         -27.5430    0.8490   25.0790 C.2     1  UNL1        0.2344
     22 O         -28.1930   -0.2080   24.4770 O.2     1  UNL1       -0.4585
     23 C         -29.4600    0.0050   23.8660 C.3     1  UNL1        0.2423
     24 C         -30.0650   -1.3770   23.5730 C.3     1  UNL1        0.2292
     25 O         -30.7290   -1.8780   24.7210 O.3     1  UNL1       -0.2162
     26 C         -26.3540    0.5760   25.7770 C.3     1  UNL1        0.2441
     27 F         -25.8600   -0.6810   25.7950 F       1  UNL1       -0.2265
     28 O         -23.2551    2.8886   31.5357 O.2     1  UNL1       -0.2733
     29 N         -23.8866    1.3367   30.0834 N.am    1  UNL1       -0.1982
     30 C         -25.5950    2.1538   31.5261 C.3     1  UNL1        0.0796
     31 C         -25.9420    3.2625   32.4768 C.3     1  UNL1        0.0092
     32 C         -24.2702    0.8565   27.9073 C.2     1  UNL1       -0.0021
     33 C         -23.3831    2.0803   26.0226 C.2     1  UNL1        0.1363
     34 C         -25.2127    4.5807   32.2336 C.3     1  UNL1        0.0005
     35 C         -24.1602    2.3506   30.9836 C.2     1  UNL1        0.2415
     36 F         -23.6841    2.8174   24.9285 F       1  UNL1       -0.2045
     37 C         -24.3954    1.5223   26.7772 C.2     1  UNL1        0.0101
     38 C         -23.3354    1.1936   28.7793 C.3     1  UNL1        0.1390
     39 C         -22.0413    2.0176   26.1973 C.2     1  UNL1        0.0290
     40 C         -21.4171    1.6619   27.3471 C.2     1  UNL1       -0.0003
     41 C         -22.0130    1.3908   28.5301 C.2     1  UNL1       -0.0004
@<TRIPOS>BOND
     1     2     7    1
     2     2     1    1
     3     3     2    2
     4     4     3    1
     5     4     5    2
     6     5     6    1
     7     6     7    2
     8     8     1    1
     9     8     9    1
    10     8    12    1
    11     9    30    1
    12     9    10    1
    13    10    11    1
    14    12    11    1
    15    13    37    1
    16    14    13    1
    17    14    15    1
    18    15    18    2
    19    16    17    1
    20    16    15    1
    21    19    14    2
    22    20    21    2
    23    20    19    1
    24    21    26    1
    25    22    21    1
    26    23    22    1
    27    24    23    1
    28    24    25    1
    29    26    27    1
    30    26    13    1
    31    29    35    1
    32    30    31    1
    33    32    38    1
    34    33    39    2
    35    33    37    1
    36    34    31    1
    37    35    30    1
    38    35    28    2
    39    36    33    1
    40    37    32    2
    41    38    29    1
    42    39    40    1
    43    40    41    2
    44    41    38    1
