@<TRIPOS>MOLECULE
outputs/IAG933/test6/raw/output_7363_IAG933_linker_design_.xyz
 45 49 0 0 0
SMALL
GASTEIGER

@<TRIPOS>ATOM
      1 C         -24.8550   -1.0120   30.1430 C.3     1  UNL1        0.1143
      2 C         -24.9730   -2.5050   29.7880 C.2     1  UNL1       -0.0029
      3 C         -23.9060   -3.1730   29.1460 C.2     1  UNL1       -0.0026
      4 C         -23.9890   -4.5490   28.8530 C.2     1  UNL1       -0.0003
      5 C         -25.1370   -5.2800   29.2050 C.2     1  UNL1       -0.0000
      6 C         -26.2320   -4.6110   29.7840 C.2     1  UNL1       -0.0003
      7 C         -26.1550   -3.2320   30.0650 C.2     1  UNL1       -0.0026
      8 C         -25.3870   -0.6790   31.5710 C.3     1  UNL1        0.0951
      9 C         -25.1890    0.7730   32.0280 C.3     1  UNL1        0.0209
     10 C         -25.3360    0.6840   33.5440 C.3     1  UNL1        0.0203
     11 C         -24.8290   -0.7150   33.9050 C.3     1  UNL1        0.0888
     12 N         -24.7580   -1.4810   32.6460 N.3     1  UNL1       -0.2174
     13 C         -25.6880    1.6140   26.4610 C.2     1  UNL1        0.0264
     14 C         -26.2500    2.9200   26.3950 C.2     1  UNL1        0.0731
     15 C         -25.6420    4.0930   27.1230 C.2     1  UNL1        0.2661
     16 N         -25.6140    5.2520   26.4490 N.am    1  UNL1       -0.1997
     17 C         -25.0260    6.4790   26.9630 C.3     1  UNL1        0.1388
     18 O         -25.1430    3.9660   28.2430 O.2     1  UNL1       -0.2683
     19 C         -27.4380    3.0910   25.6450 C.2     1  UNL1        0.1064
     20 N         -28.0750    2.0890   25.0030 N.2     1  UNL1       -0.2081
     21 C         -27.5430    0.8490   25.0790 C.2     1  UNL1        0.2530
     22 O         -28.1930   -0.2080   24.4770 O.2     1  UNL1       -0.4558
     23 C         -29.4600    0.0050   23.8660 C.3     1  UNL1        0.2426
     24 C         -30.0650   -1.3770   23.5730 C.3     1  UNL1        0.2292
     25 O         -30.7290   -1.8780   24.7210 O.3     1  UNL1       -0.2162
     26 C         -26.3540    0.5760   25.7770 C.2     1  UNL1        0.1896
     27 F         -25.8600   -0.6810   25.7950 F       1  UNL1       -0.1996
     28 C         -23.9601    0.5459   27.8435 C.3     1  UNL1        0.0812
     29 C         -28.5995    1.9248   29.7723 C.2     1  UNL1        0.0013
     30 C         -27.7395   -0.6260   29.1616 C.2     1  UNL1        0.0146
     31 C         -24.4893    1.5073   27.0997 C.3     1  UNL1        0.1293
     32 C         -29.4631    0.8584   29.9481 C.2     1  UNL1        0.0001
     33 N         -25.3514   -0.0147   29.1769 N.pl3   1  UNL1       -0.2721
     34 C         -21.6896    1.6690   28.1461 C.3     1  UNL1        0.4079
     35 C         -27.3277    1.6725   29.2922 C.2     1  UNL1        0.0146
     36 C         -29.0452   -0.4076   29.5798 C.2     1  UNL1        0.0013
     37 O         -23.1157    2.2260   25.1770 O.2     1  UNL1       -0.2497
     38 C         -26.8405    0.3812   29.1865 C.2     1  UNL1        0.0505
     39 F         -20.4593    2.2062   27.9348 F       1  UNL1       -0.1777
     40 O         -22.8018   -0.2661   28.9921 O.2     1  UNL1       -0.4421
     41 O         -22.4874    2.6920   27.3602 O.3     1  UNL1       -0.4131
     42 C         -21.6244    0.2514   28.6275 C.2     1  UNL1        0.2978
     43 N         -20.4729   -0.1809   28.7287 N.2     1  UNL1       -0.1049
     44 C         -24.0520    0.0437   28.6093 C.3     1  UNL1        0.2472
     45 C         -23.3022    2.1884   26.3890 C.2     1  UNL1        0.3231
@<TRIPOS>BOND
     1     1    33    1
     2     2     7    1
     3     2     1    1
     4     3     2    2
     5     4     3    1
     6     4     5    2
     7     5     6    1
     8     6     7    2
     9     8     1    1
    10     8     9    1
    11     8    12    1
    12     9    10    1
    13    10    11    1
    14    12    11    1
    15    14    13    1
    16    14    15    1
    17    15    18    2
    18    16    17    1
    19    16    15    1
    20    19    14    2
    21    20    21    2
    22    20    19    1
    23    21    26    1
    24    22    21    1
    25    23    22    1
    26    24    23    1
    27    24    25    1
    28    26    27    1
    29    26    13    2
    30    28    44    1
    31    29    32    1
    32    30    38    2
    33    30    36    1
    34    31    13    1
    35    31    28    1
    36    33    38    1
    37    34    39    1
    38    34    42    1
    39    35    29    2
    40    36    32    2
    41    37    45    2
    42    38    35    1
    43    41    34    1
    44    42    43    2
    45    42    40    1
    46    44    40    1
    47    44    33    1
    48    45    31    1
    49    45    41    1
