@<TRIPOS>MOLECULE
outputs/IAG933/test6/raw/output_7364_IAG933_linker_design_.xyz
 42 45 0 0 0
SMALL
GASTEIGER

@<TRIPOS>ATOM
      1 C         -24.8550   -1.0120   30.1430 C.3     1  UNL1        0.0697
      2 C         -24.9730   -2.5050   29.7880 C.2     1  UNL1       -0.0184
      3 C         -23.9060   -3.1730   29.1460 C.2     1  UNL1       -0.0041
      4 C         -23.9890   -4.5490   28.8530 C.2     1  UNL1       -0.0003
      5 C         -25.1370   -5.2800   29.2050 C.2     1  UNL1       -0.0000
      6 C         -26.2320   -4.6110   29.7840 C.2     1  UNL1       -0.0003
      7 C         -26.1550   -3.2320   30.0650 C.2     1  UNL1       -0.0041
      8 C         -25.3870   -0.6790   31.5710 C.3     1  UNL1        0.0795
      9 C         -25.1890    0.7730   32.0280 C.3     1  UNL1        0.0193
     10 C         -25.3360    0.6840   33.5440 C.3     1  UNL1        0.0202
     11 C         -24.8290   -0.7150   33.9050 C.3     1  UNL1        0.0887
     12 N         -24.7580   -1.4810   32.6460 N.3     1  UNL1       -0.2190
     13 C         -25.6880    1.6140   26.4610 C.2     1  UNL1        0.0451
     14 C         -26.2500    2.9200   26.3950 C.2     1  UNL1        0.0771
     15 C         -25.6420    4.0930   27.1230 C.2     1  UNL1        0.2664
     16 N         -25.6140    5.2520   26.4490 N.am    1  UNL1       -0.1997
     17 C         -25.0260    6.4790   26.9630 C.3     1  UNL1        0.1388
     18 O         -25.1430    3.9660   28.2430 O.2     1  UNL1       -0.2683
     19 C         -27.4380    3.0910   25.6450 C.2     1  UNL1        0.1067
     20 N         -28.0750    2.0890   25.0030 N.2     1  UNL1       -0.2081
     21 C         -27.5430    0.8490   25.0790 C.2     1  UNL1        0.2533
     22 O         -28.1930   -0.2080   24.4770 O.2     1  UNL1       -0.4558
     23 C         -29.4600    0.0050   23.8660 C.3     1  UNL1        0.2426
     24 C         -30.0650   -1.3770   23.5730 C.3     1  UNL1        0.2292
     25 O         -30.7290   -1.8780   24.7210 O.3     1  UNL1       -0.2162
     26 C         -26.3540    0.5760   25.7770 C.2     1  UNL1        0.1936
     27 F         -25.8600   -0.6810   25.7950 F       1  UNL1       -0.1992
     28 C         -22.0234    0.9864   28.5864 C.3     1  UNL1        0.2346
     29 O         -29.5504    0.4255   28.4682 O.3     1  UNL1       -0.3220
     30 C         -28.4809    0.8748   29.4001 C.3     1  UNL1        0.1770
     31 O         -21.3968    1.7143   27.4885 O.2     1  UNL1       -0.4432
     32 F         -23.0879    2.6376   25.7294 F       1  UNL1       -0.1546
     33 C         -23.2491    0.5309   29.0359 C.2     1  UNL1        0.0194
     34 O         -26.8391   -0.4128   28.4986 O.3     1  UNL1       -0.3488
     35 C         -22.6040    1.8891   26.4791 C.2     1  UNL1        0.3213
     36 C         -27.7652   -0.3755   29.5351 C.3     1  UNL1        0.1746
     37 C         -24.4867    0.6105   28.4952 C.2     1  UNL1        0.0115
     38 C         -23.5074    1.5284   26.6466 C.1     1  UNL1       -0.0347
     39 C         -30.3165   -0.6860   28.8170 C.3     1  UNL1        0.3290
     40 C         -25.6275   -0.1544   29.1513 C.3     1  UNL1        0.1432
     41 C         -24.6299    1.2406   27.2108 C.2     1  UNL1        0.0402
     42 O         -31.2707   -1.6068   29.6592 O.3     1  UNL1       -0.1841
@<TRIPOS>BOND
     1     1    40    1
     2     2     7    1
     3     2     1    1
     4     3     2    2
     5     4     3    1
     6     4     5    2
     7     5     6    1
     8     6     7    2
     9     8     1    1
    10     8     9    1
    11     8    12    1
    12     9    10    1
    13    10    11    1
    14    12    11    1
    15    13    41    1
    16    14    13    1
    17    14    15    1
    18    15    18    2
    19    16    17    1
    20    16    15    1
    21    19    14    2
    22    20    21    2
    23    20    19    1
    24    21    26    1
    25    22    21    1
    26    23    22    1
    27    24    23    1
    28    24    25    1
    29    26    27    1
    30    26    13    2
    31    28    33    1
    32    29    39    1
    33    29    30    1
    34    30    36    1
    35    31    28    1
    36    32    35    1
    37    34    36    1
    38    35    38    2
    39    35    31    1
    40    37    33    2
    41    37    40    1
    42    38    41    2
    43    39    42    1
    44    40    34    1
    45    41    37    1
