@<TRIPOS>MOLECULE
outputs/IAG933/test6/raw/output_7366_IAG933_linker_design_.xyz
 41 43 0 0 0
SMALL
GASTEIGER

@<TRIPOS>ATOM
      1 C         -24.8550   -1.0120   30.1430 C.3     1  UNL1        0.0507
      2 C         -24.9730   -2.5050   29.7880 C.2     1  UNL1       -0.0206
      3 C         -23.9060   -3.1730   29.1460 C.2     1  UNL1       -0.0042
      4 C         -23.9890   -4.5490   28.8530 C.2     1  UNL1       -0.0003
      5 C         -25.1370   -5.2800   29.2050 C.2     1  UNL1       -0.0000
      6 C         -26.2320   -4.6110   29.7840 C.2     1  UNL1       -0.0003
      7 C         -26.1550   -3.2320   30.0650 C.2     1  UNL1       -0.0042
      8 C         -25.3870   -0.6790   31.5710 C.3     1  UNL1        0.0774
      9 C         -25.1890    0.7730   32.0280 C.3     1  UNL1        0.0192
     10 C         -25.3360    0.6840   33.5440 C.3     1  UNL1        0.0202
     11 C         -24.8290   -0.7150   33.9050 C.3     1  UNL1        0.0887
     12 N         -24.7580   -1.4810   32.6460 N.3     1  UNL1       -0.2191
     13 C         -25.6880    1.6140   26.4610 C.2     1  UNL1        0.0243
     14 C         -26.2500    2.9200   26.3950 C.2     1  UNL1        0.0730
     15 C         -25.6420    4.0930   27.1230 C.2     1  UNL1        0.2661
     16 N         -25.6140    5.2520   26.4490 N.am    1  UNL1       -0.1997
     17 C         -25.0260    6.4790   26.9630 C.3     1  UNL1        0.1388
     18 O         -25.1430    3.9660   28.2430 O.2     1  UNL1       -0.2683
     19 C         -27.4380    3.0910   25.6450 C.2     1  UNL1        0.1064
     20 N         -28.0750    2.0890   25.0030 N.2     1  UNL1       -0.2081
     21 C         -27.5430    0.8490   25.0790 C.2     1  UNL1        0.2530
     22 O         -28.1930   -0.2080   24.4770 O.2     1  UNL1       -0.4558
     23 C         -29.4600    0.0050   23.8660 C.3     1  UNL1        0.2426
     24 C         -30.0650   -1.3770   23.5730 C.3     1  UNL1        0.2292
     25 O         -30.7290   -1.8780   24.7210 O.3     1  UNL1       -0.2162
     26 C         -26.3540    0.5760   25.7770 C.2     1  UNL1        0.1896
     27 F         -25.8600   -0.6810   25.7950 F       1  UNL1       -0.1996
     28 O         -27.3993   -0.0185   28.7068 O.co2   1  UNL1       -0.2456
     29 C         -25.0838   -0.0487   28.9766 C.3     1  UNL1        0.1293
     30 C         -23.2584    2.1762   26.1224 C.2     1  UNL1        0.1895
     31 O         -26.3772    1.8855   29.3937 O.co2   1  UNL1       -0.2456
     32 C         -22.0700    1.1042   27.8283 C.2     1  UNL1        0.2043
     33 O         -22.6752    2.6373   24.1436 O.3     1  UNL1       -0.1713
     34 O         -22.1913    1.5200   25.9642 O.2     1  UNL1       -0.2929
     35 C         -26.3957    0.6665   29.1126 C.2     1  UNL1        0.3664
     36 C         -23.9373    0.8923   28.3186 C.3     1  UNL1        0.1163
     37 C         -24.3250    1.4883   27.0028 C.3     1  UNL1        0.1055
     38 F         -23.1623    1.5820   23.8532 F       1  UNL1       -0.0464
     39 C         -23.3552    3.1396   25.2692 C.3     1  UNL1        0.2518
     40 N         -22.6876    0.4275   28.2578 N.pl3   1  UNL1       -0.2169
     41 N         -20.8830    1.5614   28.1360 N.2     1  UNL1       -0.1271
@<TRIPOS>BOND
     1     1    29    1
     2     2     7    1
     3     2     1    1
     4     3     2    2
     5     4     3    1
     6     4     5    2
     7     5     6    1
     8     6     7    2
     9     8     1    1
    10     8     9    1
    11     8    12    1
    12     9    10    1
    13    10    11    1
    14    12    11    1
    15    13    37    1
    16    14    13    1
    17    14    15    1
    18    15    18    2
    19    16    17    1
    20    16    15    1
    21    19    14    2
    22    20    21    2
    23    20    19    1
    24    21    26    1
    25    22    21    1
    26    23    22    1
    27    24    23    1
    28    24    25    1
    29    26    27    1
    30    26    13    2
    31    28    35   ar
    32    29    35    1
    33    32    41    2
    34    32    40    1
    35    33    39    1
    36    34    30    2
    37    35    31   ar
    38    36    40    1
    39    36    29    1
    40    37    30    1
    41    37    36    1
    42    38    33    1
    43    39    30    1
