@<TRIPOS>MOLECULE
outputs/IAG933/test6/raw/output_7369_IAG933_linker_design_.xyz
 44 48 0 0 0
SMALL
GASTEIGER

@<TRIPOS>ATOM
      1 C         -24.8550   -1.0120   30.1430 C.3     1  UNL1        0.1983
      2 C         -24.9730   -2.5050   29.7880 C.2     1  UNL1        0.0213
      3 C         -23.9060   -3.1730   29.1460 C.2     1  UNL1       -0.0004
      4 C         -23.9890   -4.5490   28.8530 C.2     1  UNL1       -0.0002
      5 C         -25.1370   -5.2800   29.2050 C.2     1  UNL1       -0.0000
      6 C         -26.2320   -4.6110   29.7840 C.2     1  UNL1       -0.0002
      7 C         -26.1550   -3.2320   30.0650 C.2     1  UNL1       -0.0004
      8 C         -25.3870   -0.6790   31.5710 C.3     1  UNL1        0.1197
      9 C         -25.1890    0.7730   32.0280 C.3     1  UNL1        0.0233
     10 C         -25.3360    0.6840   33.5440 C.3     1  UNL1        0.0204
     11 C         -24.8290   -0.7150   33.9050 C.3     1  UNL1        0.0889
     12 N         -24.7580   -1.4810   32.6460 N.3     1  UNL1       -0.2150
     13 C         -25.6880    1.6140   26.4610 C.2     1  UNL1        0.0459
     14 C         -26.2500    2.9200   26.3950 C.2     1  UNL1        0.0768
     15 C         -25.6420    4.0930   27.1230 C.2     1  UNL1        0.2664
     16 N         -25.6140    5.2520   26.4490 N.am    1  UNL1       -0.1997
     17 C         -25.0260    6.4790   26.9630 C.3     1  UNL1        0.1388
     18 O         -25.1430    3.9660   28.2430 O.2     1  UNL1       -0.2683
     19 C         -27.4380    3.0910   25.6450 C.2     1  UNL1        0.1067
     20 N         -28.0750    2.0890   25.0030 N.2     1  UNL1       -0.2081
     21 C         -27.5430    0.8490   25.0790 C.2     1  UNL1        0.2533
     22 O         -28.1930   -0.2080   24.4770 O.2     1  UNL1       -0.4558
     23 C         -29.4600    0.0050   23.8660 C.3     1  UNL1        0.2426
     24 C         -30.0650   -1.3770   23.5730 C.3     1  UNL1        0.2292
     25 O         -30.7290   -1.8780   24.7210 O.3     1  UNL1       -0.2162
     26 C         -26.3540    0.5760   25.7770 C.2     1  UNL1        0.1933
     27 F         -25.8600   -0.6810   25.7950 F       1  UNL1       -0.1992
     28 C         -26.6164   -0.0582   28.5717 C.3     1  UNL1        0.2043
     29 C         -24.2648    0.5545   28.4270 C.2     1  UNL1        0.3152
     30 N         -26.9894    2.7434   29.4209 N.am    1  UNL1       -0.1665
     31 C         -21.9388    1.8580   26.8593 C.2     1  UNL1        0.0154
     32 C         -28.1435    1.9673   29.9006 C.3     1  UNL1        0.1465
     33 C         -21.8209    0.5907   28.8466 C.2     1  UNL1        0.2236
     34 N         -23.0746    0.4389   28.9189 N.pl3   1  UNL1       -0.0074
     35 CL        -23.1775    2.0324   24.7954 Cl      1  UNL1       -0.0820
     36 C         -24.4197    1.2879   27.1373 C.2     1  UNL1        0.0932
     37 C         -23.1565    1.6975   26.5267 C.2     1  UNL1        0.0648
     38 N         -25.1694   -0.1078   29.0255 N.pl3   1  UNL1       -0.1906
     39 O         -27.5399    3.7537   31.2855 O.3     1  UNL1       -0.4317
     40 C         -28.7676    2.9940   30.9741 C.3     1  UNL1        0.2318
     41 C         -26.5598    3.3648   30.3602 C.2     1  UNL1        0.4212
     42 O         -25.3502    3.8180   30.4381 O.2     1  UNL1       -0.2246
     43 C         -21.1413    1.2988   27.8458 C.2     1  UNL1        0.0490
     44 C         -27.8614    0.4028   29.3542 C.3     1  UNL1        0.0764
@<TRIPOS>BOND
     1     1    38    1
     2     2     7    1
     3     2     1    1
     4     3     2    2
     5     4     3    1
     6     4     5    2
     7     5     6    1
     8     6     7    2
     9     8     1    1
    10     8     9    1
    11     8    12    1
    12     9    10    1
    13    10    11    1
    14    12    11    1
    15    13    36    1
    16    14    13    1
    17    14    15    1
    18    15    18    2
    19    16    17    1
    20    16    15    1
    21    19    14    2
    22    20    21    2
    23    20    19    1
    24    21    26    1
    25    22    21    1
    26    23    22    1
    27    24    23    1
    28    24    25    1
    29    26    27    1
    30    26    13    2
    31    28    38    1
    32    28    44    1
    33    29    34    1
    34    29    38    1
    35    30    32    1
    36    30    41    1
    37    31    43    1
    38    32    44    1
    39    32    40    1
    40    33    34    1
    41    35    37    1
    42    36    29    2
    43    37    31    2
    44    37    36    1
    45    40    39    1
    46    41    42    2
    47    41    39    1
    48    43    33    2
