@<TRIPOS>MOLECULE
outputs/IAG933/test6/raw/output_7371_IAG933_linker_design_.xyz
 41 44 0 0 0
SMALL
GASTEIGER

@<TRIPOS>ATOM
      1 C         -24.8550   -1.0120   30.1430 C.3     1  UNL1        0.1533
      2 C         -24.9730   -2.5050   29.7880 C.2     1  UNL1        0.0059
      3 C         -23.9060   -3.1730   29.1460 C.2     1  UNL1       -0.0019
      4 C         -23.9890   -4.5490   28.8530 C.2     1  UNL1       -0.0002
      5 C         -25.1370   -5.2800   29.2050 C.2     1  UNL1       -0.0000
      6 C         -26.2320   -4.6110   29.7840 C.2     1  UNL1       -0.0002
      7 C         -26.1550   -3.2320   30.0650 C.2     1  UNL1       -0.0019
      8 C         -25.3870   -0.6790   31.5710 C.3     1  UNL1        0.1041
      9 C         -25.1890    0.7730   32.0280 C.3     1  UNL1        0.0217
     10 C         -25.3360    0.6840   33.5440 C.3     1  UNL1        0.0203
     11 C         -24.8290   -0.7150   33.9050 C.3     1  UNL1        0.0888
     12 N         -24.7580   -1.4810   32.6460 N.3     1  UNL1       -0.2166
     13 C         -25.6880    1.6140   26.4610 C.2     1  UNL1        0.0236
     14 C         -26.2500    2.9200   26.3950 C.2     1  UNL1        0.0730
     15 C         -25.6420    4.0930   27.1230 C.2     1  UNL1        0.2661
     16 N         -25.6140    5.2520   26.4490 N.am    1  UNL1       -0.1997
     17 C         -25.0260    6.4790   26.9630 C.3     1  UNL1        0.1388
     18 O         -25.1430    3.9660   28.2430 O.2     1  UNL1       -0.2683
     19 C         -27.4380    3.0910   25.6450 C.2     1  UNL1        0.1064
     20 N         -28.0750    2.0890   25.0030 N.2     1  UNL1       -0.2081
     21 C         -27.5430    0.8490   25.0790 C.2     1  UNL1        0.2530
     22 O         -28.1930   -0.2080   24.4770 O.2     1  UNL1       -0.4558
     23 C         -29.4600    0.0050   23.8660 C.3     1  UNL1        0.2426
     24 C         -30.0650   -1.3770   23.5730 C.3     1  UNL1        0.2292
     25 O         -30.7290   -1.8780   24.7210 O.3     1  UNL1       -0.2162
     26 C         -26.3540    0.5760   25.7770 C.2     1  UNL1        0.1895
     27 F         -25.8600   -0.6810   25.7950 F       1  UNL1       -0.1996
     28 C         -26.1198    4.7635   31.1890 C.3     1  UNL1        0.0964
     29 F         -23.4423    1.5365   24.7009 F       1  UNL1       -0.1931
     30 N         -22.2009    1.0947   27.7012 N.2     1  UNL1       -0.0459
     31 O         -21.5052    2.2413   26.0836 O.3     1  UNL1       -0.1091
     32 C         -25.6707    1.7317   29.5451 C.3     1  UNL1        0.1453
     33 C         -24.6281    1.2860   27.3776 C.3     1  UNL1        0.0985
     34 O         -21.2305    1.8868   27.4062 O.2     1  UNL1       -0.2146
     35 C         -22.5880    1.4443   25.8479 C.3     1  UNL1        0.3635
     36 O         -24.2014   -0.0814   29.3248 O.3     1  UNL1       -0.3504
     37 O         -24.4643    3.4517   32.2092 O.2     1  UNL1       -0.2733
     38 C         -23.2432    1.2897   26.9733 C.2     1  UNL1        0.1492
     39 N         -25.3372    2.7307   30.2962 N.am    1  UNL1       -0.2028
     40 C         -24.9206    1.0087   28.7427 C.3     1  UNL1        0.1467
     41 C         -25.2181    3.5660   31.2651 C.2     1  UNL1        0.2419
@<TRIPOS>BOND
     1     1    36    1
     2     2     7    1
     3     2     1    1
     4     3     2    2
     5     4     3    1
     6     4     5    2
     7     5     6    1
     8     6     7    2
     9     8     1    1
    10     8     9    1
    11     8    12    1
    12     9    10    1
    13    10    11    1
    14    12    11    1
    15    13    33    1
    16    14    13    1
    17    14    15    1
    18    15    18    2
    19    16    17    1
    20    16    15    1
    21    19    14    2
    22    20    21    2
    23    20    19    1
    24    21    26    1
    25    22    21    1
    26    23    22    1
    27    24    23    1
    28    24    25    1
    29    26    27    1
    30    26    13    2
    31    28    41    1
    32    31    34    1
    33    32    39    1
    34    33    40    1
    35    34    30    1
    36    35    29    1
    37    35    31    1
    38    35    38    1
    39    38    33    1
    40    38    30    2
    41    39    41    1
    42    40    36    1
    43    40    32    1
    44    41    37    2
