@<TRIPOS>MOLECULE
outputs/IAG933/test6/raw/output_7377_IAG933_linker_design_.xyz
 46 49 0 0 0
SMALL
GASTEIGER

@<TRIPOS>ATOM
      1 C         -24.8550   -1.0120   30.1430 C.3     1  UNL1        0.0438
      2 C         -24.9730   -2.5050   29.7880 C.2     1  UNL1       -0.0208
      3 C         -23.9060   -3.1730   29.1460 C.2     1  UNL1       -0.0042
      4 C         -23.9890   -4.5490   28.8530 C.2     1  UNL1       -0.0003
      5 C         -25.1370   -5.2800   29.2050 C.2     1  UNL1       -0.0000
      6 C         -26.2320   -4.6110   29.7840 C.2     1  UNL1       -0.0003
      7 C         -26.1550   -3.2320   30.0650 C.2     1  UNL1       -0.0042
      8 C         -25.3870   -0.6790   31.5710 C.3     1  UNL1        0.0795
      9 C         -25.1890    0.7730   32.0280 C.3     1  UNL1        0.0450
     10 C         -25.3360    0.6840   33.5440 C.3     1  UNL1        0.0226
     11 C         -24.8290   -0.7150   33.9050 C.3     1  UNL1        0.0888
     12 N         -24.7580   -1.4810   32.6460 N.3     1  UNL1       -0.2190
     13 C         -25.6880    1.6140   26.4610 C.3     1  UNL1        0.0702
     14 C         -26.2500    2.9200   26.3950 C.2     1  UNL1        0.0548
     15 C         -25.6420    4.0930   27.1230 C.2     1  UNL1        0.2624
     16 N         -25.6140    5.2520   26.4490 N.am    1  UNL1       -0.2000
     17 C         -25.0260    6.4790   26.9630 C.3     1  UNL1        0.1388
     18 O         -25.1430    3.9660   28.2430 O.2     1  UNL1       -0.2687
     19 C         -27.4380    3.0910   25.6450 C.2     1  UNL1        0.1021
     20 N         -28.0750    2.0890   25.0030 N.2     1  UNL1       -0.2119
     21 C         -27.5430    0.8490   25.0790 C.2     1  UNL1        0.2341
     22 O         -28.1930   -0.2080   24.4770 O.2     1  UNL1       -0.4585
     23 C         -29.4600    0.0050   23.8660 C.3     1  UNL1        0.2423
     24 C         -30.0650   -1.3770   23.5730 C.3     1  UNL1        0.2292
     25 O         -30.7290   -1.8780   24.7210 O.3     1  UNL1       -0.2162
     26 C         -26.3540    0.5760   25.7770 C.3     1  UNL1        0.2400
     27 F         -25.8600   -0.6810   25.7950 F       1  UNL1       -0.2269
     28 C         -24.9433    3.7651   33.3687 C.3     1  UNL1        0.0305
     29 C         -25.9869    5.9284   32.6176 C.3     1  UNL1        0.0305
     30 C         -25.1568    5.8214   35.0481 C.3     1  UNL1        0.0463
     31 C         -22.4716    1.4634   28.4505 C.3     1  UNL1        0.1420
     32 C         -25.6409    3.4932   32.0035 C.3     1  UNL1        0.0049
     33 O         -23.4632    5.5682   33.3186 O.3     1  UNL1       -0.2256
     34 C         -26.3261    4.7899   31.6974 C.3     1  UNL1        0.0027
     35 C         -22.3398    7.7611   34.2081 C.3     1  UNL1        0.0896
     36 C         -21.9354    7.6625   36.5708 C.3     1  UNL1        0.0896
     37 C         -23.4573    1.9897   27.3676 C.3     1  UNL1        0.0301
     38 C         -22.8236    2.2563   25.9490 C.3     1  UNL1        0.0026
     39 C         -24.9528    2.9738   30.8580 C.3     1  UNL1        0.0297
     40 N         -22.6409    6.9843   35.4689 N.3     1  UNL1       -0.2715
     41 C         -24.5223    1.6392   30.9584 C.3     1  UNL1        0.1165
     42 C         -24.7320    1.2436   27.4047 C.3     1  UNL1        0.0103
     43 O         -23.2842    1.3811   29.8779 O.3     1  UNL1       -0.3562
     44 C         -24.0907    6.8128   35.7962 C.3     1  UNL1        0.0601
     45 C         -24.8498    8.1274   36.2477 C.3     1  UNL1        0.0174
     46 C         -24.8680    5.3252   33.5664 C.3     1  UNL1        0.1279
@<TRIPOS>BOND
     1     2     7    1
     2     2     1    1
     3     3     2    2
     4     4     3    1
     5     4     5    2
     6     5     6    1
     7     6     7    2
     8     8     1    1
     9     8     9    1
    10     8    12    1
    11     9    41    1
    12     9    10    1
    13    10    11    1
    14    12    11    1
    15    13    42    1
    16    14    13    1
    17    14    15    1
    18    15    18    2
    19    16    17    1
    20    16    15    1
    21    19    14    2
    22    20    21    2
    23    20    19    1
    24    21    26    1
    25    22    21    1
    26    23    22    1
    27    24    23    1
    28    24    25    1
    29    26    27    1
    30    26    13    1
    31    28    46    1
    32    29    46    1
    33    30    44    1
    34    31    43    1
    35    32    39    1
    36    32    28    1
    37    34    32    1
    38    34    29    1
    39    35    40    1
    40    37    38    1
    41    37    42    1
    42    37    31    1
    43    40    44    1
    44    40    36    1
    45    41    39    1
    46    43    41    1
    47    44    45    1
    48    46    33    1
    49    46    30    1
