@<TRIPOS>MOLECULE
No_738-gen_results/8p0m/2024-11-27-11-27-31/
 16 16 0 0 0
SMALL
GASTEIGER

@<TRIPOS>ATOM
      1 C         -28.0162   -0.8135   28.8779 C.2     1  UNL1       -0.0085
      2 C         -27.0636   -0.1189   28.6079 C.2     1  UNL1       -0.0442
      3 C         -25.7647   -0.3897   29.0360 C.3     1  UNL1        0.0225
      4 C         -24.5516    0.4058   28.7646 C.3     1  UNL1        0.0135
      5 C         -24.6957    1.4480   27.7988 C.3     1  UNL1        0.0805
      6 C         -25.9755    1.7250   27.3077 C.3     1  UNL1        0.0135
      7 C         -27.0718    1.0134   27.6535 C.3     1  UNL1        0.0225
      8 C         -29.2099   -0.0501   29.3493 C.2     1  UNL1       -0.0006
      9 C         -30.3469   -0.8660   29.6614 C.2     1  UNL1       -0.0000
     10 C         -23.4889    2.1927   27.4888 C.2     1  UNL1        0.2603
     11 N         -22.2893    1.8060   27.9072 N.am    1  UNL1       -0.0878
     12 O         -23.5656    3.0960   26.5816 O.2     1  UNL1       -0.2717
     13 C         -31.5417   -0.5950   29.0828 C.2     1  UNL1       -0.0000
     14 C         -32.6040   -1.4375   29.2151 C.2     1  UNL1       -0.0000
     15 C         -32.4772   -2.5905   30.0516 C.2     1  UNL1        0.0000
     16 C         -31.2868   -2.8792   30.6704 C.2     1  UNL1        0.0000
@<TRIPOS>BOND
     1     1     2    2
     2     2     3    1
     3     3     4    1
     4     4     5    1
     5     5     6    1
     6     2     7    1
     7     6     7    1
     8     1     8    1
     9     8     9    2
    10     5    10    1
    11    10    11   am
    12    10    12    2
    13     9    13    1
    14    13    14    2
    15    14    15    1
    16    15    16    2
