@<TRIPOS>MOLECULE
outputs/IAG933/test6/raw/output_7386_IAG933_linker_design_.xyz
 45 49 0 0 0
SMALL
GASTEIGER

@<TRIPOS>ATOM
      1 C         -24.8550   -1.0120   30.1430 C.3     1  UNL1        0.0660
      2 C         -24.9730   -2.5050   29.7880 C.2     1  UNL1       -0.0171
      3 C         -23.9060   -3.1730   29.1460 C.2     1  UNL1       -0.0039
      4 C         -23.9890   -4.5490   28.8530 C.2     1  UNL1       -0.0003
      5 C         -25.1370   -5.2800   29.2050 C.2     1  UNL1       -0.0000
      6 C         -26.2320   -4.6110   29.7840 C.2     1  UNL1       -0.0003
      7 C         -26.1550   -3.2320   30.0650 C.2     1  UNL1       -0.0039
      8 C         -25.3870   -0.6790   31.5710 C.3     1  UNL1        0.0809
      9 C         -25.1890    0.7730   32.0280 C.3     1  UNL1        0.0195
     10 C         -25.3360    0.6840   33.5440 C.3     1  UNL1        0.0203
     11 C         -24.8290   -0.7150   33.9050 C.3     1  UNL1        0.0887
     12 N         -24.7580   -1.4810   32.6460 N.3     1  UNL1       -0.2188
     13 C         -25.6880    1.6140   26.4610 C.3     1  UNL1        0.2300
     14 C         -26.2500    2.9200   26.3950 C.2     1  UNL1        0.0973
     15 C         -25.6420    4.0930   27.1230 C.2     1  UNL1        0.2662
     16 N         -25.6140    5.2520   26.4490 N.am    1  UNL1       -0.1999
     17 C         -25.0260    6.4790   26.9630 C.3     1  UNL1        0.1388
     18 O         -25.1430    3.9660   28.2430 O.2     1  UNL1       -0.2685
     19 C         -27.4380    3.0910   25.6450 C.2     1  UNL1        0.1060
     20 N         -28.0750    2.0890   25.0030 N.2     1  UNL1       -0.2116
     21 C         -27.5430    0.8490   25.0790 C.2     1  UNL1        0.2383
     22 O         -28.1930   -0.2080   24.4770 O.2     1  UNL1       -0.4584
     23 C         -29.4600    0.0050   23.8660 C.3     1  UNL1        0.2423
     24 C         -30.0650   -1.3770   23.5730 C.3     1  UNL1        0.2292
     25 O         -30.7290   -1.8780   24.7210 O.3     1  UNL1       -0.2162
     26 C         -26.3540    0.5760   25.7770 C.3     1  UNL1        0.2824
     27 F         -25.8600   -0.6810   25.7950 F       1  UNL1       -0.2225
     28 C         -23.4648    1.4042   26.9806 C.3     1  UNL1        0.2051
     29 C         -25.3460    0.3436   28.4301 C.2     1  UNL1        0.3040
     30 C         -28.3517    1.8194   29.0784 C.3     1  UNL1        0.0614
     31 N         -26.7407   -0.2362   28.6843 N.pl3   1  UNL1       -0.0335
     32 C         -28.1138    0.3697   28.8282 C.3     1  UNL1        0.2635
     33 C         -30.3320   -0.5488   28.4547 C.3     1  UNL1        0.2104
     34 C         -23.2627    0.2872   29.1437 C.3     1  UNL1        0.1815
     35 C         -22.5157    1.4266   28.1384 C.3     1  UNL1        0.0814
     36 C         -21.0181    1.4526   27.7768 C.3     1  UNL1        0.0073
     37 C         -28.9964   -0.6802   29.0225 C.2     1  UNL1        0.2267
     38 O         -30.1714    0.3553   27.3557 O.3     1  UNL1       -0.3458
     39 O         -28.6585   -1.8260   29.4343 O.2     1  UNL1       -0.2891
     40 O         -22.3122   -0.0786   29.9389 O.3     1  UNL1       -0.2182
     41 C         -30.5419    1.6524   27.8258 C.3     1  UNL1        0.1428
     42 C         -29.9256    3.7244   29.1933 C.3     1  UNL1        0.0027
     43 C         -24.5172    0.0686   29.1529 C.2     1  UNL1        0.0704
     44 N         -24.8141    1.1330   27.4915 N.pl3   1  UNL1       -0.1894
     45 C         -29.8190    2.1848   29.0386 C.3     1  UNL1        0.0343
@<TRIPOS>BOND
     1     1    43    1
     2     2     7    1
     3     2     1    1
     4     3     2    2
     5     4     3    1
     6     4     5    2
     7     5     6    1
     8     6     7    2
     9     8     1    1
    10     8     9    1
    11     8    12    1
    12     9    10    1
    13    10    11    1
    14    12    11    1
    15    13    44    1
    16    14    13    1
    17    14    15    1
    18    15    18    2
    19    16    17    1
    20    16    15    1
    21    19    14    2
    22    20    21    2
    23    20    19    1
    24    21    26    1
    25    22    21    1
    26    23    22    1
    27    24    23    1
    28    24    25    1
    29    26    27    1
    30    26    13    1
    31    28    44    1
    32    28    35    1
    33    29    31    1
    34    29    43    2
    35    32    31    1
    36    32    37    1
    37    32    30    1
    38    33    37    1
    39    34    43    1
    40    34    40    1
    41    35    36    1
    42    35    34    1
    43    37    39    2
    44    38    41    1
    45    38    33    1
    46    41    45    1
    47    44    29    1
    48    45    30    1
    49    45    42    1
