@<TRIPOS>MOLECULE
outputs/IAG933/test6/raw/output_7388_IAG933_linker_design_.xyz
 41 45 0 0 0
SMALL
GASTEIGER

@<TRIPOS>ATOM
      1 C         -24.8550   -1.0120   30.1430 C.3     1  UNL1        0.1483
      2 C         -24.9730   -2.5050   29.7880 C.2     1  UNL1        0.0014
      3 C         -23.9060   -3.1730   29.1460 C.2     1  UNL1       -0.0024
      4 C         -23.9890   -4.5490   28.8530 C.2     1  UNL1       -0.0003
      5 C         -25.1370   -5.2800   29.2050 C.2     1  UNL1       -0.0000
      6 C         -26.2320   -4.6110   29.7840 C.2     1  UNL1       -0.0003
      7 C         -26.1550   -3.2320   30.0650 C.2     1  UNL1       -0.0024
      8 C         -25.3870   -0.6790   31.5710 C.3     1  UNL1        0.1035
      9 C         -25.1890    0.7730   32.0280 C.3     1  UNL1        0.0420
     10 C         -25.3360    0.6840   33.5440 C.3     1  UNL1        0.0246
     11 C         -24.8290   -0.7150   33.9050 C.3     1  UNL1        0.0891
     12 N         -24.7580   -1.4810   32.6460 N.3     1  UNL1       -0.2168
     13 C         -25.6880    1.6140   26.4610 C.3     1  UNL1        0.1642
     14 C         -26.2500    2.9200   26.3950 C.2     1  UNL1        0.0759
     15 C         -25.6420    4.0930   27.1230 C.2     1  UNL1        0.2642
     16 N         -25.6140    5.2520   26.4490 N.am    1  UNL1       -0.1999
     17 C         -25.0260    6.4790   26.9630 C.3     1  UNL1        0.1388
     18 O         -25.1430    3.9660   28.2430 O.2     1  UNL1       -0.2686
     19 C         -27.4380    3.0910   25.6450 C.2     1  UNL1        0.1040
     20 N         -28.0750    2.0890   25.0030 N.2     1  UNL1       -0.2117
     21 C         -27.5430    0.8490   25.0790 C.2     1  UNL1        0.2361
     22 O         -28.1930   -0.2080   24.4770 O.2     1  UNL1       -0.4585
     23 C         -29.4600    0.0050   23.8660 C.3     1  UNL1        0.2423
     24 C         -30.0650   -1.3770   23.5730 C.3     1  UNL1        0.2292
     25 O         -30.7290   -1.8780   24.7210 O.3     1  UNL1       -0.2162
     26 C         -26.3540    0.5760   25.7770 C.3     1  UNL1        0.2609
     27 F         -25.8600   -0.6810   25.7950 F       1  UNL1       -0.2248
     28 C         -25.5389    0.6667   28.5565 C.ar    1  UNL1        0.3512
     29 O         -26.7558    0.6155   28.6778 O.2     1  UNL1       -0.2446
     30 C         -24.9610    3.2764   32.2265 C.2     1  UNL1       -0.0042
     31 C         -22.1408    2.2279   25.9675 C.3     1  UNL1        0.2559
     32 C         -26.9210    4.6711   32.5486 C.2     1  UNL1       -0.0000
     33 C         -27.7217    3.6411   32.0822 C.2     1  UNL1       -0.0003
     34 N         -23.3618    0.6628   28.9799 N.ar    1  UNL1       -0.1107
     35 C         -27.1642    2.4124   31.7089 C.2     1  UNL1       -0.0042
     36 C         -23.6148    1.3995   27.8763 C.ar    1  UNL1        0.3213
     37 O         -22.7403    2.2456   27.3138 O.3     1  UNL1       -0.4427
     38 N         -24.8781    1.2876   27.5510 N.ar    1  UNL1       -0.2285
     39 C         -25.5313    4.4964   32.5774 C.2     1  UNL1       -0.0003
     40 N         -24.5908    0.1124   29.3652 N.ar    1  UNL1       -0.1944
     41 C         -25.8069    2.2264   31.8972 C.2     1  UNL1       -0.0210
@<TRIPOS>BOND
     1     1     2    1
     2     2     7    1
     3     3     2    2
     4     4     3    1
     5     4     5    2
     6     5     6    1
     7     6     7    2
     8     8     1    1
     9     8     9    1
    10     8    12    1
    11     9    41    1
    12     9    10    1
    13    10    11    1
    14    12    11    1
    15    13    38    1
    16    14    13    1
    17    14    15    1
    18    15    18    2
    19    16    17    1
    20    16    15    1
    21    19    14    2
    22    20    21    2
    23    20    19    1
    24    21    26    1
    25    22    21    1
    26    23    22    1
    27    24    23    1
    28    24    25    1
    29    26    27    1
    30    26    13    1
    31    28    29    2
    32    28    40   ar
    33    30    39    1
    34    31    37    1
    35    32    39    2
    36    33    32    1
    37    34    40   ar
    38    35    41    1
    39    35    33    2
    40    36    34   ar
    41    37    36    1
    42    38    36   ar
    43    38    28   ar
    44    40     1    1
    45    41    30    2
