@<TRIPOS>MOLECULE
outputs/IAG933/test6/raw/output_7390_IAG933_linker_design_.xyz
 45 50 0 0 0
SMALL
GASTEIGER

@<TRIPOS>ATOM
      1 C         -24.8550   -1.0120   30.1430 C.3     1  UNL1        0.0964
      2 C         -24.9730   -2.5050   29.7880 C.2     1  UNL1       -0.0064
      3 C         -23.9060   -3.1730   29.1460 C.2     1  UNL1       -0.0029
      4 C         -23.9890   -4.5490   28.8530 C.2     1  UNL1       -0.0003
      5 C         -25.1370   -5.2800   29.2050 C.2     1  UNL1       -0.0000
      6 C         -26.2320   -4.6110   29.7840 C.2     1  UNL1       -0.0003
      7 C         -26.1550   -3.2320   30.0650 C.2     1  UNL1       -0.0029
      8 C         -25.3870   -0.6790   31.5710 C.3     1  UNL1        0.0916
      9 C         -25.1890    0.7730   32.0280 C.3     1  UNL1        0.0216
     10 C         -25.3360    0.6840   33.5440 C.3     1  UNL1        0.0203
     11 C         -24.8290   -0.7150   33.9050 C.3     1  UNL1        0.0888
     12 N         -24.7580   -1.4810   32.6460 N.3     1  UNL1       -0.2178
     13 C         -25.6880    1.6140   26.4610 C.2     1  UNL1        0.0595
     14 C         -26.2500    2.9200   26.3950 C.2     1  UNL1        0.0763
     15 C         -25.6420    4.0930   27.1230 C.2     1  UNL1        0.2662
     16 N         -25.6140    5.2520   26.4490 N.am    1  UNL1       -0.1997
     17 C         -25.0260    6.4790   26.9630 C.3     1  UNL1        0.1388
     18 O         -25.1430    3.9660   28.2430 O.2     1  UNL1       -0.2683
     19 C         -27.4380    3.0910   25.6450 C.2     1  UNL1        0.1065
     20 N         -28.0750    2.0890   25.0030 N.2     1  UNL1       -0.2081
     21 C         -27.5430    0.8490   25.0790 C.2     1  UNL1        0.2531
     22 O         -28.1930   -0.2080   24.4770 O.2     1  UNL1       -0.4558
     23 C         -29.4600    0.0050   23.8660 C.3     1  UNL1        0.2426
     24 C         -30.0650   -1.3770   23.5730 C.3     1  UNL1        0.2292
     25 O         -30.7290   -1.8780   24.7210 O.3     1  UNL1       -0.2162
     26 C         -26.3540    0.5760   25.7770 C.2     1  UNL1        0.1929
     27 F         -25.8600   -0.6810   25.7950 F       1  UNL1       -0.1994
     28 C         -22.2831    1.0762   27.4608 C.2     1  UNL1        0.3503
     29 N         -24.4291    0.0227   29.4041 N.3     1  UNL1       -0.2662
     30 C         -22.1603    0.1523   28.6509 C.3     1  UNL1        0.1375
     31 C         -24.5628    2.0053   31.1562 C.3     1  UNL1        0.0326
     32 N         -23.3498    1.5165   26.7713 N.pl3   1  UNL1       -0.1474
     33 O         -21.6467    2.2647   25.7370 O.2     1  UNL1       -0.2259
     34 N         -21.2164    1.5747   26.9394 N.2     1  UNL1        0.1542
     35 C         -25.4060    3.2904   30.8142 C.3     1  UNL1        0.1476
     36 C         -23.3319    1.8835   30.1900 C.3     1  UNL1        0.0191
     37 C         -24.7784   -0.1188   27.9911 C.3     1  UNL1        0.1245
     38 C         -24.6198    1.1130   27.1118 C.3     1  UNL1        0.2045
     39 C         -25.6336    4.8661   32.3219 C.3     1  UNL1        0.3659
     40 C         -22.8997    2.1575   25.6377 C.3     1  UNL1        0.4759
     41 C         -23.0651    0.4139   29.8438 C.3     1  UNL1        0.0702
     42 C         -25.3516    5.9264   31.1983 C.3     1  UNL1        0.1068
     43 F         -26.2436    5.0704   33.5279 F       1  UNL1       -0.1746
     44 F         -24.3564    4.5246   32.7560 F       1  UNL1       -0.1746
     45 O         -26.3413    3.8915   31.7276 O.3     1  UNL1       -0.3060
@<TRIPOS>BOND
     1     1     2    1
     2     1     8    1
     3     2     7    1
     4     3     2    2
     5     4     3    1
     6     4     5    2
     7     5     6    1
     8     6     7    2
     9     8     9    1
    10     8    12    1
    11     9    10    1
    12    10    11    1
    13    12    11    1
    14    14    13    1
    15    14    15    1
    16    15    18    2
    17    16    17    1
    18    16    15    1
    19    19    14    2
    20    20    21    2
    21    20    19    1
    22    21    26    1
    23    22    21    1
    24    23    22    1
    25    24    23    1
    26    24    25    1
    27    26    27    1
    28    26    13    2
    29    28    30    1
    30    29    37    1
    31    29    41    1
    32    29     1    1
    33    31    35    1
    34    31     9    1
    35    32    38    1
    36    32    28    1
    37    33    34    1
    38    34    28    2
    39    35    45    1
    40    36    31    1
    41    38    13    1
    42    38    37    1
    43    39    44    1
    44    39    43    1
    45    40    33    1
    46    40    32    1
    47    41    30    1
    48    41    36    1
    49    42    39    1
    50    45    39    1
