@<TRIPOS>MOLECULE
outputs/IAG933/test6/raw/output_7393_IAG933_linker_design_.xyz
 41 45 0 0 0
SMALL
GASTEIGER

@<TRIPOS>ATOM
      1 C         -24.8550   -1.0120   30.1430 C.3     1  UNL1        0.1149
      2 C         -24.9730   -2.5050   29.7880 C.2     1  UNL1       -0.0125
      3 C         -23.9060   -3.1730   29.1460 C.2     1  UNL1       -0.0038
      4 C         -23.9890   -4.5490   28.8530 C.2     1  UNL1       -0.0003
      5 C         -25.1370   -5.2800   29.2050 C.2     1  UNL1       -0.0000
      6 C         -26.2320   -4.6110   29.7840 C.2     1  UNL1       -0.0003
      7 C         -26.1550   -3.2320   30.0650 C.2     1  UNL1       -0.0038
      8 C         -25.3870   -0.6790   31.5710 C.3     1  UNL1        0.0855
      9 C         -25.1890    0.7730   32.0280 C.3     1  UNL1        0.0197
     10 C         -25.3360    0.6840   33.5440 C.3     1  UNL1        0.0203
     11 C         -24.8290   -0.7150   33.9050 C.3     1  UNL1        0.0887
     12 N         -24.7580   -1.4810   32.6460 N.3     1  UNL1       -0.2186
     13 C         -25.6880    1.6140   26.4610 C.2     1  UNL1        0.0358
     14 C         -26.2500    2.9200   26.3950 C.2     1  UNL1        0.0742
     15 C         -25.6420    4.0930   27.1230 C.2     1  UNL1        0.2662
     16 N         -25.6140    5.2520   26.4490 N.am    1  UNL1       -0.1997
     17 C         -25.0260    6.4790   26.9630 C.3     1  UNL1        0.1388
     18 O         -25.1430    3.9660   28.2430 O.2     1  UNL1       -0.2683
     19 C         -27.4380    3.0910   25.6450 C.2     1  UNL1        0.1065
     20 N         -28.0750    2.0890   25.0030 N.2     1  UNL1       -0.2081
     21 C         -27.5430    0.8490   25.0790 C.2     1  UNL1        0.2530
     22 O         -28.1930   -0.2080   24.4770 O.2     1  UNL1       -0.4558
     23 C         -29.4600    0.0050   23.8660 C.3     1  UNL1        0.2426
     24 C         -30.0650   -1.3770   23.5730 C.3     1  UNL1        0.2292
     25 O         -30.7290   -1.8780   24.7210 O.3     1  UNL1       -0.2162
     26 C         -26.3540    0.5760   25.7770 C.2     1  UNL1        0.1907
     27 F         -25.8600   -0.6810   25.7950 F       1  UNL1       -0.1995
     28 C         -20.6503   -0.0863   28.6472 C.3     1  UNL1        0.0233
     29 N         -22.3348    1.3152   27.7913 N.3     1  UNL1       -0.2263
     30 O         -23.6194    3.3132   25.1261 O.co2   1  UNL1       -0.2441
     31 O         -21.7322    2.1503   25.1453 O.co2   1  UNL1       -0.2441
     32 O         -26.3708   -0.2204   28.6024 O.2     1  UNL1       -0.2744
     33 C         -23.1031    1.7882   26.7612 C.3     1  UNL1        0.1876
     34 C         -25.2847   -0.0575   29.0975 C.2     1  UNL1        0.2334
     35 C         -21.9639   -0.2383   29.4407 C.3     1  UNL1        0.0680
     36 C         -22.9450    0.9571   28.9911 C.3     1  UNL1        0.2400
     37 O         -22.8796    1.8849   30.0277 O.3     1  UNL1       -0.1873
     38 N         -24.2739    0.7482   28.5440 N.am    1  UNL1       -0.2421
     39 C         -22.8348    2.4248   25.6567 C.2     1  UNL1        0.3811
     40 C         -20.8777    1.2196   27.7867 C.3     1  UNL1        0.0765
     41 C         -24.4368    1.4755   27.3998 C.3     1  UNL1        0.1293
@<TRIPOS>BOND
     1     1    34    1
     2     2     7    1
     3     2     1    1
     4     3     2    2
     5     4     3    1
     6     4     5    2
     7     5     6    1
     8     6     7    2
     9     8     1    1
    10     8     9    1
    11     8    12    1
    12     9    10    1
    13    10    11    1
    14    12    11    1
    15    14    13    1
    16    14    15    1
    17    15    18    2
    18    16    17    1
    19    16    15    1
    20    19    14    2
    21    20    21    2
    22    20    19    1
    23    21    26    1
    24    22    21    1
    25    23    22    1
    26    24    23    1
    27    24    25    1
    28    26    27    1
    29    26    13    2
    30    28    35    1
    31    29    40    1
    32    29    36    1
    33    30    39   ar
    34    31    39   ar
    35    32    34    2
    36    33    39    1
    37    33    41    1
    38    33    29    1
    39    36    35    1
    40    36    37    1
    41    38    36    1
    42    38    34   am
    43    40    28    1
    44    41    13    1
    45    41    38    1
