@<TRIPOS>MOLECULE
outputs/IAG933/test6/raw/output_7395_IAG933_linker_design_.xyz
 41 45 0 0 0
SMALL
GASTEIGER

@<TRIPOS>ATOM
      1 C         -24.8550   -1.0120   30.1430 C.3     1  UNL1        0.0604
      2 C         -24.9730   -2.5050   29.7880 C.2     1  UNL1       -0.0194
      3 C         -23.9060   -3.1730   29.1460 C.2     1  UNL1       -0.0042
      4 C         -23.9890   -4.5490   28.8530 C.2     1  UNL1       -0.0003
      5 C         -25.1370   -5.2800   29.2050 C.2     1  UNL1       -0.0000
      6 C         -26.2320   -4.6110   29.7840 C.2     1  UNL1       -0.0003
      7 C         -26.1550   -3.2320   30.0650 C.2     1  UNL1       -0.0042
      8 C         -25.3870   -0.6790   31.5710 C.3     1  UNL1        0.0785
      9 C         -25.1890    0.7730   32.0280 C.3     1  UNL1        0.0192
     10 C         -25.3360    0.6840   33.5440 C.3     1  UNL1        0.0202
     11 C         -24.8290   -0.7150   33.9050 C.3     1  UNL1        0.0887
     12 N         -24.7580   -1.4810   32.6460 N.3     1  UNL1       -0.2191
     13 C         -25.6880    1.6140   26.4610 C.2     1  UNL1        0.0909
     14 C         -26.2500    2.9200   26.3950 C.2     1  UNL1        0.0902
     15 C         -25.6420    4.0930   27.1230 C.2     1  UNL1        0.2676
     16 N         -25.6140    5.2520   26.4490 N.am    1  UNL1       -0.1997
     17 C         -25.0260    6.4790   26.9630 C.3     1  UNL1        0.1388
     18 O         -25.1430    3.9660   28.2430 O.2     1  UNL1       -0.2683
     19 C         -27.4380    3.0910   25.6450 C.2     1  UNL1        0.1080
     20 N         -28.0750    2.0890   25.0030 N.2     1  UNL1       -0.2080
     21 C         -27.5430    0.8490   25.0790 C.2     1  UNL1        0.2546
     22 O         -28.1930   -0.2080   24.4770 O.2     1  UNL1       -0.4558
     23 C         -29.4600    0.0050   23.8660 C.3     1  UNL1        0.2426
     24 C         -30.0650   -1.3770   23.5730 C.3     1  UNL1        0.2292
     25 O         -30.7290   -1.8780   24.7210 O.3     1  UNL1       -0.2162
     26 C         -26.3540    0.5760   25.7770 C.2     1  UNL1        0.2066
     27 F         -25.8600   -0.6810   25.7950 F       1  UNL1       -0.1979
     28 C         -24.5517    0.5888   28.3031 C.3     1  UNL1        0.1208
     29 O         -28.8703   -0.5184   28.2653 O.co2   1  UNL1       -0.2207
     30 C         -23.3493    1.7687   26.6192 C.2     1  UNL1        0.1106
     31 N         -24.6003    1.3541   27.1128 N.pl3   1  UNL1       -0.2721
     32 C         -22.4272    1.1609   27.4722 C.2     1  UNL1        0.0222
     33 C         -25.4843    0.0226   29.1659 C.3     1  UNL1        0.1267
     34 C         -22.3838   -0.1364   29.4711 C.2     1  UNL1       -0.0025
     35 C         -21.0908    0.9568   27.8102 C.2     1  UNL1        0.0018
     36 C         -28.0966    0.2171   28.8512 C.2     1  UNL1        0.4629
     37 O         -28.4282    1.0920   29.6610 O.co2   1  UNL1       -0.2207
     38 CL        -22.9282    2.8467   25.3710 Cl      1  UNL1       -0.0658
     39 N         -26.7800   -0.0397   28.5249 N.am    1  UNL1       -0.1651
     40 C         -23.1320    0.4640   28.5159 C.2     1  UNL1       -0.0003
     41 C         -21.0698    0.0957   28.9462 C.2     1  UNL1       -0.0002
@<TRIPOS>BOND
     1     1    33    1
     2     2     7    1
     3     2     1    1
     4     3     2    2
     5     4     3    1
     6     4     5    2
     7     5     6    1
     8     6     7    2
     9     8     1    1
    10     8     9    1
    11     8    12    1
    12     9    10    1
    13    10    11    1
    14    12    11    1
    15    13    31    1
    16    14    13    1
    17    14    15    1
    18    15    18    2
    19    16    17    1
    20    16    15    1
    21    19    14    2
    22    20    21    2
    23    20    19    1
    24    21    26    1
    25    22    21    1
    26    23    22    1
    27    24    23    1
    28    24    25    1
    29    26    27    1
    30    26    13    2
    31    28    40    1
    32    28    33    1
    33    29    36   ar
    34    30    31    1
    35    30    32    2
    36    31    28    1
    37    32    35    1
    38    32    40    1
    39    33    39    1
    40    35    41    2
    41    36    37   ar
    42    38    30    1
    43    39    36    1
    44    40    34    2
    45    41    34    1
