@<TRIPOS>MOLECULE
outputs/IAG933/test6/raw/output_7396_IAG933_linker_design_.xyz
 43 47 0 0 0
SMALL
GASTEIGER

@<TRIPOS>ATOM
      1 C         -24.8550   -1.0120   30.1430 C.3     1  UNL1        0.0775
      2 C         -24.9730   -2.5050   29.7880 C.2     1  UNL1       -0.0178
      3 C         -23.9060   -3.1730   29.1460 C.2     1  UNL1       -0.0041
      4 C         -23.9890   -4.5490   28.8530 C.2     1  UNL1       -0.0003
      5 C         -25.1370   -5.2800   29.2050 C.2     1  UNL1       -0.0000
      6 C         -26.2320   -4.6110   29.7840 C.2     1  UNL1       -0.0003
      7 C         -26.1550   -3.2320   30.0650 C.2     1  UNL1       -0.0041
      8 C         -25.3870   -0.6790   31.5710 C.3     1  UNL1        0.0801
      9 C         -25.1890    0.7730   32.0280 C.3     1  UNL1        0.0193
     10 C         -25.3360    0.6840   33.5440 C.3     1  UNL1        0.0202
     11 C         -24.8290   -0.7150   33.9050 C.3     1  UNL1        0.0887
     12 N         -24.7580   -1.4810   32.6460 N.3     1  UNL1       -0.2190
     13 C         -25.6880    1.6140   26.4610 C.3     1  UNL1        0.0868
     14 C         -26.2500    2.9200   26.3950 C.2     1  UNL1        0.0540
     15 C         -25.6420    4.0930   27.1230 C.2     1  UNL1        0.2180
     16 N         -25.6140    5.2520   26.4490 N.2     1  UNL1       -0.2359
     17 C         -25.0260    6.4790   26.9630 C.3     1  UNL1        0.1550
     18 O         -25.1430    3.9660   28.2430 O.2     1  UNL1       -0.4573
     19 C         -27.4380    3.0910   25.6450 C.2     1  UNL1        0.1022
     20 N         -28.0750    2.0890   25.0030 N.2     1  UNL1       -0.2119
     21 C         -27.5430    0.8490   25.0790 C.2     1  UNL1        0.2341
     22 O         -28.1930   -0.2080   24.4770 O.2     1  UNL1       -0.4585
     23 C         -29.4600    0.0050   23.8660 C.3     1  UNL1        0.2423
     24 C         -30.0650   -1.3770   23.5730 C.3     1  UNL1        0.2292
     25 O         -30.7290   -1.8780   24.7210 O.3     1  UNL1       -0.2162
     26 C         -26.3540    0.5760   25.7770 C.3     1  UNL1        0.2414
     27 F         -25.8600   -0.6810   25.7950 F       1  UNL1       -0.2268
     28 C         -24.4390   -0.0453   29.1821 C.3     1  UNL1        0.1840
     29 N         -22.9631    0.1061   28.8623 N.2     1  UNL1       -0.2222
     30 C         -23.1194    2.1839   26.2066 C.3     1  UNL1        0.2062
     31 O         -26.1567    4.9195   31.6274 O.3     1  UNL1       -0.2110
     32 C         -22.5664    0.9611   27.8559 C.2     1  UNL1        0.2430
     33 C         -27.6709    3.7319   30.2117 C.2     1  UNL1        0.2176
     34 C         -24.8778    1.2603   27.4971 C.3     1  UNL1        0.0935
     35 O         -21.3975    1.3928   27.2633 O.2     1  UNL1       -0.3186
     36 O         -27.9052    1.2270   29.8146 O.3     1  UNL1       -0.2118
     37 O         -21.7717    1.8949   26.1030 O.3     1  UNL1       -0.1709
     38 O         -28.5996    4.3182   30.7239 O.2     1  UNL1       -0.2905
     39 N         -25.3866    0.7610   28.6984 N.3     1  UNL1       -0.1965
     40 C         -25.2662    4.5428   29.5007 C.3     1  UNL1        0.2475
     41 C         -23.5475    1.5162   27.1846 C.3     1  UNL1        0.1300
     42 C         -26.1844    3.9396   30.5561 C.3     1  UNL1        0.2546
     43 C         -27.9894    2.5808   29.2949 C.3     1  UNL1        0.2487
@<TRIPOS>BOND
     1     1     2    1
     2     2     7    1
     3     3     2    2
     4     4     3    1
     5     4     5    2
     6     5     6    1
     7     6     7    2
     8     8     1    1
     9     8     9    1
    10     8    12    1
    11     9    10    1
    12    10    11    1
    13    12    11    1
    14    13    14    1
    15    13    34    1
    16    14    15    1
    17    15    18    1
    18    16    17    1
    19    16    15    2
    20    18    40    1
    21    19    14    2
    22    20    21    2
    23    20    19    1
    24    21    26    1
    25    22    21    1
    26    23    22    1
    27    24    23    1
    28    24    25    1
    29    26    27    1
    30    26    13    1
    31    28     1    1
    32    29    28    1
    33    32    29    2
    34    33    42    1
    35    33    38    2
    36    34    39    1
    37    35    32    1
    38    37    30    1
    39    37    35    1
    40    39    28    1
    41    40    42    1
    42    41    30    1
    43    41    34    1
    44    41    32    1
    45    42    31    1
    46    43    36    1
    47    43    33    1
