@<TRIPOS>MOLECULE
outputs/IAG933/test6/raw/output_74_IAG933_linker_design_.xyz
 41 45 0 0 0
SMALL
GASTEIGER

@<TRIPOS>ATOM
      1 C         -24.8550   -1.0120   30.1430 C.3     1  UNL1        0.1254
      2 C         -24.9730   -2.5050   29.7880 C.2     1  UNL1       -0.0041
      3 C         -23.9060   -3.1730   29.1460 C.2     1  UNL1       -0.0029
      4 C         -23.9890   -4.5490   28.8530 C.2     1  UNL1       -0.0003
      5 C         -25.1370   -5.2800   29.2050 C.2     1  UNL1       -0.0000
      6 C         -26.2320   -4.6110   29.7840 C.2     1  UNL1       -0.0003
      7 C         -26.1550   -3.2320   30.0650 C.2     1  UNL1       -0.0029
      8 C         -25.3870   -0.6790   31.5710 C.3     1  UNL1        0.0939
      9 C         -25.1890    0.7730   32.0280 C.3     1  UNL1        0.0207
     10 C         -25.3360    0.6840   33.5440 C.3     1  UNL1        0.0203
     11 C         -24.8290   -0.7150   33.9050 C.3     1  UNL1        0.0888
     12 N         -24.7580   -1.4810   32.6460 N.3     1  UNL1       -0.2177
     13 C         -25.6880    1.6140   26.4610 C.2     1  UNL1        0.0455
     14 C         -26.2500    2.9200   26.3950 C.2     1  UNL1        0.0749
     15 C         -25.6420    4.0930   27.1230 C.2     1  UNL1        0.2662
     16 N         -25.6140    5.2520   26.4490 N.am    1  UNL1       -0.1997
     17 C         -25.0260    6.4790   26.9630 C.3     1  UNL1        0.1388
     18 O         -25.1430    3.9660   28.2430 O.2     1  UNL1       -0.2683
     19 C         -27.4380    3.0910   25.6450 C.2     1  UNL1        0.1065
     20 N         -28.0750    2.0890   25.0030 N.2     1  UNL1       -0.2081
     21 C         -27.5430    0.8490   25.0790 C.2     1  UNL1        0.2530
     22 O         -28.1930   -0.2080   24.4770 O.2     1  UNL1       -0.4558
     23 C         -29.4600    0.0050   23.8660 C.3     1  UNL1        0.2426
     24 C         -30.0650   -1.3770   23.5730 C.3     1  UNL1        0.2292
     25 O         -30.7290   -1.8780   24.7210 O.3     1  UNL1       -0.2162
     26 C         -26.3540    0.5760   25.7770 C.2     1  UNL1        0.1915
     27 F         -25.8600   -0.6810   25.7950 F       1  UNL1       -0.1995
     28 O         -20.6598   -0.4397   28.6518 O.2     1  UNL1       -0.2836
     29 C         -21.0537    1.7576   27.5655 C.2     1  UNL1        0.2864
     30 C         -22.3141    1.2421   28.0840 C.2     1  UNL1        0.0831
     31 C         -23.3335    1.5241   27.1544 C.3     1  UNL1        0.1604
     32 C         -22.8128    2.2873   26.2323 C.2     1  UNL1        0.3296
     33 C         -22.8078    0.4346   29.2808 C.3     1  UNL1        0.2739
     34 F         -19.8986    1.7944   28.0573 F       1  UNL1       -0.1633
     35 O         -24.6948   -0.1100   28.0004 O.3     1  UNL1       -0.2764
     36 C         -21.6329   -0.6016   29.3787 C.2     1  UNL1        0.2591
     37 O         -22.9602    1.3779   30.2780 O.3     1  UNL1       -0.1941
     38 C         -24.5692    1.0378   27.2485 C.3     1  UNL1        0.1770
     39 O         -23.5041    3.1088   25.4192 O.2     1  UNL1       -0.2492
     40 O         -21.4460    2.3338   26.2670 O.3     1  UNL1       -0.3978
     41 N         -24.0815   -0.2259   29.2040 N.3     1  UNL1       -0.1267
@<TRIPOS>BOND
     1     1     2    1
     2     2     7    1
     3     3     2    2
     4     4     3    1
     5     4     5    2
     6     5     6    1
     7     6     7    2
     8     8     1    1
     9     8     9    1
    10     8    12    1
    11     9    10    1
    12    10    11    1
    13    12    11    1
    14    14    13    1
    15    14    15    1
    16    15    18    2
    17    16    17    1
    18    16    15    1
    19    19    14    2
    20    20    21    2
    21    20    19    1
    22    21    26    1
    23    22    21    1
    24    23    22    1
    25    24    23    1
    26    24    25    1
    27    26    27    1
    28    26    13    2
    29    28    36    2
    30    29    34    1
    31    29    30    2
    32    30    33    1
    33    31    32    1
    34    31    38    1
    35    31    30    1
    36    32    40    1
    37    33    36    1
    38    33    37    1
    39    35    41    1
    40    38    13    1
    41    38    35    1
    42    39    32    2
    43    40    29    1
    44    41    33    1
    45    41     1    1
