@<TRIPOS>MOLECULE
outputs/IAG933/test6/raw/output_7407_IAG933_linker_design_.xyz
 47 51 0 0 0
SMALL
GASTEIGER

@<TRIPOS>ATOM
      1 C         -24.8550   -1.0120   30.1430 C.3     1  UNL1        0.0695
      2 C         -24.9730   -2.5050   29.7880 C.2     1  UNL1       -0.0186
      3 C         -23.9060   -3.1730   29.1460 C.2     1  UNL1       -0.0042
      4 C         -23.9890   -4.5490   28.8530 C.2     1  UNL1       -0.0003
      5 C         -25.1370   -5.2800   29.2050 C.2     1  UNL1       -0.0000
      6 C         -26.2320   -4.6110   29.7840 C.2     1  UNL1       -0.0003
      7 C         -26.1550   -3.2320   30.0650 C.2     1  UNL1       -0.0042
      8 C         -25.3870   -0.6790   31.5710 C.3     1  UNL1        0.0793
      9 C         -25.1890    0.7730   32.0280 C.3     1  UNL1        0.0193
     10 C         -25.3360    0.6840   33.5440 C.3     1  UNL1        0.0202
     11 C         -24.8290   -0.7150   33.9050 C.3     1  UNL1        0.0887
     12 N         -24.7580   -1.4810   32.6460 N.3     1  UNL1       -0.2190
     13 C         -25.6880    1.6140   26.4610 C.2     1  UNL1        0.0407
     14 C         -26.2500    2.9200   26.3950 C.2     1  UNL1        0.0765
     15 C         -25.6420    4.0930   27.1230 C.2     1  UNL1        0.2664
     16 N         -25.6140    5.2520   26.4490 N.am    1  UNL1       -0.1997
     17 C         -25.0260    6.4790   26.9630 C.3     1  UNL1        0.1388
     18 O         -25.1430    3.9660   28.2430 O.2     1  UNL1       -0.2683
     19 C         -27.4380    3.0910   25.6450 C.2     1  UNL1        0.1067
     20 N         -28.0750    2.0890   25.0030 N.2     1  UNL1       -0.2081
     21 C         -27.5430    0.8490   25.0790 C.2     1  UNL1        0.2533
     22 O         -28.1930   -0.2080   24.4770 O.2     1  UNL1       -0.4558
     23 C         -29.4600    0.0050   23.8660 C.3     1  UNL1        0.2426
     24 C         -30.0650   -1.3770   23.5730 C.3     1  UNL1        0.2292
     25 O         -30.7290   -1.8780   24.7210 O.3     1  UNL1       -0.2162
     26 C         -26.3540    0.5760   25.7770 C.2     1  UNL1        0.1930
     27 F         -25.8600   -0.6810   25.7950 F       1  UNL1       -0.1992
     28 O         -23.0550    2.8129   25.8641 O.2     1  UNL1       -0.2843
     29 C         -24.1021    0.4572   28.4785 C.3     1  UNL1        0.2189
     30 C         -27.9787    5.0822   31.1010 C.3     1  UNL1        0.1422
     31 C         -28.8072    1.0185   30.3758 C.3     1  UNL1        0.2300
     32 C         -27.4961   -0.0837   28.5488 C.3     1  UNL1        0.2367
     33 C         -28.2188    2.4291   30.7094 C.3     1  UNL1        0.0772
     34 O         -27.1284    4.3388   30.3222 O.3     1  UNL1       -0.3536
     35 C         -27.7978    3.3259   29.5121 C.3     1  UNL1        0.1461
     36 C         -21.9934    1.5858   27.4929 C.2     1  UNL1        0.2153
     37 C         -21.8053    0.6981   28.5024 C.2     1  UNL1        0.2054
     38 C         -24.3389    1.3240   27.1726 C.2     1  UNL1        0.0635
     39 O         -22.8844    0.1157   29.0391 O.2     1  UNL1       -0.4666
     40 O         -29.7150    1.2550   29.4772 O.3     1  UNL1       -0.2035
     41 O         -26.1547   -0.2646   28.1395 O.3     1  UNL1       -0.3344
     42 F         -20.9272    2.2401   27.1124 F       1  UNL1       -0.1975
     43 C         -25.0755   -0.1373   28.8796 C.3     1  UNL1        0.1663
     44 C         -28.4682    4.1210   32.2442 C.3     1  UNL1        0.0323
     45 N         -27.9811    0.4003   29.7325 N.3     1  UNL1       -0.1587
     46 C         -29.3260    2.8889   31.6529 C.3     1  UNL1        0.0091
     47 C         -23.1791    1.8962   26.8643 C.2     1  UNL1        0.2255
@<TRIPOS>BOND
     1     1    43    1
     2     2     7    1
     3     2     1    1
     4     3     2    2
     5     4     3    1
     6     4     5    2
     7     5     6    1
     8     6     7    2
     9     8     1    1
    10     8     9    1
    11     8    12    1
    12     9    10    1
    13    10    11    1
    14    12    11    1
    15    13    38    1
    16    14    13    1
    17    14    15    1
    18    15    18    2
    19    16    17    1
    20    16    15    1
    21    19    14    2
    22    20    21    2
    23    20    19    1
    24    21    26    1
    25    22    21    1
    26    23    22    1
    27    24    23    1
    28    24    25    1
    29    26    27    1
    30    26    13    2
    31    28    47    1
    32    29    43    1
    33    29    39    1
    34    30    44    1
    35    31    40    1
    36    32    45    1
    37    33    31    1
    38    33    46    1
    39    34    30    1
    40    35    34    1
    41    35    33    1
    42    36    37    2
    43    37    39    1
    44    38    29    1
    45    41    32    1
    46    42    36    1
    47    43    41    1
    48    45    31    1
    49    46    44    1
    50    47    38    2
    51    47    36    1
