@<TRIPOS>MOLECULE
outputs/IAG933/test6/raw/output_7411_IAG933_linker_design_.xyz
 43 47 0 0 0
SMALL
GASTEIGER

@<TRIPOS>ATOM
      1 C         -24.8550   -1.0120   30.1430 C.3     1  UNL1        0.1144
      2 C         -24.9730   -2.5050   29.7880 C.2     1  UNL1       -0.0029
      3 C         -23.9060   -3.1730   29.1460 C.2     1  UNL1       -0.0026
      4 C         -23.9890   -4.5490   28.8530 C.2     1  UNL1       -0.0003
      5 C         -25.1370   -5.2800   29.2050 C.2     1  UNL1       -0.0000
      6 C         -26.2320   -4.6110   29.7840 C.2     1  UNL1       -0.0003
      7 C         -26.1550   -3.2320   30.0650 C.2     1  UNL1       -0.0026
      8 C         -25.3870   -0.6790   31.5710 C.3     1  UNL1        0.0951
      9 C         -25.1890    0.7730   32.0280 C.3     1  UNL1        0.0209
     10 C         -25.3360    0.6840   33.5440 C.3     1  UNL1        0.0203
     11 C         -24.8290   -0.7150   33.9050 C.3     1  UNL1        0.0888
     12 N         -24.7580   -1.4810   32.6460 N.3     1  UNL1       -0.2174
     13 C         -25.6880    1.6140   26.4610 C.3     1  UNL1        0.0793
     14 C         -26.2500    2.9200   26.3950 C.2     1  UNL1        0.0553
     15 C         -25.6420    4.0930   27.1230 C.2     1  UNL1        0.2625
     16 N         -25.6140    5.2520   26.4490 N.am    1  UNL1       -0.2000
     17 C         -25.0260    6.4790   26.9630 C.3     1  UNL1        0.1388
     18 O         -25.1430    3.9660   28.2430 O.2     1  UNL1       -0.2687
     19 C         -27.4380    3.0910   25.6450 C.2     1  UNL1        0.1022
     20 N         -28.0750    2.0890   25.0030 N.2     1  UNL1       -0.2119
     21 C         -27.5430    0.8490   25.0790 C.2     1  UNL1        0.2341
     22 O         -28.1930   -0.2080   24.4770 O.2     1  UNL1       -0.4585
     23 C         -29.4600    0.0050   23.8660 C.3     1  UNL1        0.2423
     24 C         -30.0650   -1.3770   23.5730 C.3     1  UNL1        0.2292
     25 O         -30.7290   -1.8780   24.7210 O.3     1  UNL1       -0.2162
     26 C         -26.3540    0.5760   25.7770 C.3     1  UNL1        0.2405
     27 F         -25.8600   -0.6810   25.7950 F       1  UNL1       -0.2269
     28 C         -27.3524    1.9853   30.0337 C.3     1  UNL1        0.0233
     29 O         -21.0576    1.2639   28.0366 O.2     1  UNL1       -0.2788
     30 C         -29.6894    1.1215   29.3826 C.3     1  UNL1        0.0050
     31 C         -25.3399    0.7624   28.7481 C.3     1  UNL1        0.1019
     32 O         -22.0654   -0.2040   30.0959 O.2     1  UNL1       -0.2663
     33 C         -29.1432   -0.2572   28.9258 C.3     1  UNL1        0.0254
     34 N         -24.2576    0.0004   29.3495 N.am    1  UNL1       -0.2676
     35 C         -27.6822   -0.1616   28.4877 C.2     1  UNL1       -0.0330
     36 O         -23.1719    2.1207   26.0319 O.2     1  UNL1       -0.4722
     37 C         -28.8170    1.7131   30.4860 C.3     1  UNL1        0.0047
     38 C         -26.8140    0.8236   29.0318 C.2     1  UNL1       -0.0303
     39 C         -22.3788    1.0139   28.1388 C.2     1  UNL1        0.2781
     40 C         -22.3017    2.0300   25.0293 C.3     1  UNL1        0.2521
     41 C         -22.8608    0.2492   29.2203 C.2     1  UNL1        0.2914
     42 C         -23.3112    1.4761   27.2813 C.2     1  UNL1        0.1614
     43 C         -24.7562    1.2986   27.5410 C.3     1  UNL1        0.0897
@<TRIPOS>BOND
     1     1     2    1
     2     2     7    1
     3     3     2    2
     4     4     3    1
     5     4     5    2
     6     5     6    1
     7     6     7    2
     8     8     1    1
     9     8     9    1
    10     8    12    1
    11     9    10    1
    12    10    11    1
    13    12    11    1
    14    13    14    1
    15    13    43    1
    16    14    15    1
    17    15    18    2
    18    16    17    1
    19    16    15    1
    20    19    14    2
    21    20    21    2
    22    20    19    1
    23    21    26    1
    24    22    21    1
    25    23    22    1
    26    24    23    1
    27    24    25    1
    28    26    27    1
    29    26    13    1
    30    28    37    1
    31    29    39    1
    32    30    37    1
    33    31    38    1
    34    31    34    1
    35    33    30    1
    36    34     1    1
    37    35    33    1
    38    35    38    2
    39    36    42    1
    40    38    28    1
    41    39    41    1
    42    40    36    1
    43    41    34   am
    44    41    32    2
    45    42    39    2
    46    43    42    1
    47    43    31    1
