@<TRIPOS>MOLECULE
outputs/IAG933/test6/raw/output_7417_IAG933_linker_design_.xyz
 45 49 0 0 0
SMALL
GASTEIGER

@<TRIPOS>ATOM
      1 C         -24.8550   -1.0120   30.1430 C.3     1  UNL1        0.1001
      2 C         -24.9730   -2.5050   29.7880 C.2     1  UNL1       -0.0139
      3 C         -23.9060   -3.1730   29.1460 C.2     1  UNL1       -0.0038
      4 C         -23.9890   -4.5490   28.8530 C.2     1  UNL1       -0.0003
      5 C         -25.1370   -5.2800   29.2050 C.2     1  UNL1       -0.0000
      6 C         -26.2320   -4.6110   29.7840 C.2     1  UNL1       -0.0003
      7 C         -26.1550   -3.2320   30.0650 C.2     1  UNL1       -0.0038
      8 C         -25.3870   -0.6790   31.5710 C.3     1  UNL1        0.0858
      9 C         -25.1890    0.7730   32.0280 C.3     1  UNL1        0.0400
     10 C         -25.3360    0.6840   33.5440 C.3     1  UNL1        0.0220
     11 C         -24.8290   -0.7150   33.9050 C.3     1  UNL1        0.0888
     12 N         -24.7580   -1.4810   32.6460 N.3     1  UNL1       -0.2186
     13 C         -25.6880    1.6140   26.4610 C.2     1  UNL1        0.0404
     14 C         -26.2500    2.9200   26.3950 C.2     1  UNL1        0.0766
     15 C         -25.6420    4.0930   27.1230 C.2     1  UNL1        0.2664
     16 N         -25.6140    5.2520   26.4490 N.am    1  UNL1       -0.1997
     17 C         -25.0260    6.4790   26.9630 C.3     1  UNL1        0.1388
     18 O         -25.1430    3.9660   28.2430 O.2     1  UNL1       -0.2683
     19 C         -27.4380    3.0910   25.6450 C.2     1  UNL1        0.1067
     20 N         -28.0750    2.0890   25.0030 N.2     1  UNL1       -0.2081
     21 C         -27.5430    0.8490   25.0790 C.2     1  UNL1        0.2533
     22 O         -28.1930   -0.2080   24.4770 O.2     1  UNL1       -0.4558
     23 C         -29.4600    0.0050   23.8660 C.3     1  UNL1        0.2426
     24 C         -30.0650   -1.3770   23.5730 C.3     1  UNL1        0.2292
     25 O         -30.7290   -1.8780   24.7210 O.3     1  UNL1       -0.2162
     26 C         -26.3540    0.5760   25.7770 C.2     1  UNL1        0.1931
     27 F         -25.8600   -0.6810   25.7950 F       1  UNL1       -0.1992
     28 O         -26.4600   -0.5838   28.4608 O.2     1  UNL1       -0.2910
     29 C         -25.5777    3.2059   31.8302 C.2     1  UNL1       -0.0049
     30 F         -22.9007    2.0138   25.4666 F       1  UNL1       -0.2018
     31 C         -22.0889    1.4683   27.5992 C.2     1  UNL1        0.1674
     32 C         -23.1895    1.6096   26.7519 C.2     1  UNL1        0.1675
     33 C         -22.0367    0.8902   28.8360 C.2     1  UNL1        0.0321
     34 C         -24.4568    1.3112   27.2755 C.2     1  UNL1        0.0350
     35 C         -25.7353    1.8875   31.0863 C.3     1  UNL1        0.1153
     36 F         -20.9461    1.9903   27.1222 F       1  UNL1       -0.2018
     37 C         -24.8342    5.6672   33.0903 C.2     1  UNL1       -0.0000
     38 C         -25.0612    5.5850   31.7253 C.2     1  UNL1       -0.0003
     39 C         -25.5059    3.3396   33.2298 C.2     1  UNL1       -0.0029
     40 N         -26.8215    1.9800   30.0287 N.3     1  UNL1       -0.1281
     41 C         -25.4050   -0.2164   29.0514 C.2     1  UNL1        0.1781
     42 C         -23.2797    0.5966   29.3950 C.2     1  UNL1        0.0053
     43 C         -24.4259    0.6659   28.5761 C.2     1  UNL1        0.0374
     44 C         -25.0943    4.5306   33.8474 C.2     1  UNL1       -0.0003
     45 C         -25.4608    4.4000   31.1144 C.2     1  UNL1       -0.0029
@<TRIPOS>BOND
     1     1    41    1
     2     2     7    1
     3     2     1    1
     4     3     2    2
     5     4     3    1
     6     4     5    2
     7     5     6    1
     8     6     7    2
     9     8     1    1
    10     8     9    1
    11     8    12    1
    12     9    35    1
    13     9    10    1
    14    10    11    1
    15    12    11    1
    16    13    34    1
    17    14    13    1
    18    14    15    1
    19    15    18    2
    20    16    17    1
    21    16    15    1
    22    19    14    2
    23    20    21    2
    24    20    19    1
    25    21    26    1
    26    22    21    1
    27    23    22    1
    28    24    23    1
    29    24    25    1
    30    26    27    1
    31    26    13    2
    32    28    41    2
    33    29    39    1
    34    30    32    1
    35    31    33    1
    36    32    34    1
    37    32    31    2
    38    33    42    2
    39    34    43    2
    40    35    40    1
    41    35    29    1
    42    36    31    1
    43    37    44    1
    44    38    37    2
    45    39    44    2
    46    43    41    1
    47    43    42    1
    48    45    38    1
    49    45    29    2
