@<TRIPOS>MOLECULE
outputs/IAG933/test6/raw/output_7418_IAG933_linker_design_.xyz
 41 44 0 0 0
SMALL
GASTEIGER

@<TRIPOS>ATOM
      1 C         -24.8550   -1.0120   30.1430 C.3     1  UNL1        0.0508
      2 C         -24.9730   -2.5050   29.7880 C.2     1  UNL1       -0.0204
      3 C         -23.9060   -3.1730   29.1460 C.2     1  UNL1       -0.0042
      4 C         -23.9890   -4.5490   28.8530 C.2     1  UNL1       -0.0003
      5 C         -25.1370   -5.2800   29.2050 C.2     1  UNL1       -0.0000
      6 C         -26.2320   -4.6110   29.7840 C.2     1  UNL1       -0.0003
      7 C         -26.1550   -3.2320   30.0650 C.2     1  UNL1       -0.0042
      8 C         -25.3870   -0.6790   31.5710 C.3     1  UNL1        0.0776
      9 C         -25.1890    0.7730   32.0280 C.3     1  UNL1        0.0192
     10 C         -25.3360    0.6840   33.5440 C.3     1  UNL1        0.0202
     11 C         -24.8290   -0.7150   33.9050 C.3     1  UNL1        0.0887
     12 N         -24.7580   -1.4810   32.6460 N.3     1  UNL1       -0.2191
     13 C         -25.6880    1.6140   26.4610 C.2     1  UNL1        0.0300
     14 C         -26.2500    2.9200   26.3950 C.2     1  UNL1        0.0734
     15 C         -25.6420    4.0930   27.1230 C.2     1  UNL1        0.2661
     16 N         -25.6140    5.2520   26.4490 N.am    1  UNL1       -0.1997
     17 C         -25.0260    6.4790   26.9630 C.3     1  UNL1        0.1388
     18 O         -25.1430    3.9660   28.2430 O.2     1  UNL1       -0.2683
     19 C         -27.4380    3.0910   25.6450 C.2     1  UNL1        0.1064
     20 N         -28.0750    2.0890   25.0030 N.2     1  UNL1       -0.2081
     21 C         -27.5430    0.8490   25.0790 C.2     1  UNL1        0.2530
     22 O         -28.1930   -0.2080   24.4770 O.2     1  UNL1       -0.4558
     23 C         -29.4600    0.0050   23.8660 C.3     1  UNL1        0.2426
     24 C         -30.0650   -1.3770   23.5730 C.3     1  UNL1        0.2292
     25 O         -30.7290   -1.8780   24.7210 O.3     1  UNL1       -0.2162
     26 C         -26.3540    0.5760   25.7770 C.2     1  UNL1        0.1899
     27 F         -25.8600   -0.6810   25.7950 F       1  UNL1       -0.1996
     28 C         -21.2422    1.3305   27.3765 C.2     1  UNL1        0.1828
     29 C         -29.4751    1.8974   29.1170 C.3     1  UNL1        0.0252
     30 C         -21.8372    0.8632   28.4458 C.2     1  UNL1        0.0402
     31 C         -23.2602    2.0353   26.3059 C.2     1  UNL1        0.3291
     32 O         -27.5910   -0.6276   28.7997 O.2     1  UNL1       -0.2730
     33 C         -23.0581    0.4852   28.8557 C.2     1  UNL1       -0.0040
     34 C         -24.3676    1.3822   27.0307 C.3     1  UNL1        0.1429
     35 C         -28.2298    2.3473   29.8827 C.3     1  UNL1        0.1152
     36 O         -21.9132    1.8110   26.2880 O.3     1  UNL1       -0.4205
     37 O         -23.5032    2.9996   25.4166 O.2     1  UNL1       -0.2490
     38 C         -24.3227    0.6242   28.2463 C.2     1  UNL1       -0.0211
     39 N         -27.0800    1.6664   29.2666 N.am    1  UNL1       -0.2052
     40 C         -25.3214    0.0019   29.0448 C.3     1  UNL1        0.1026
     41 C         -26.8176    0.3130   29.0388 C.2     1  UNL1        0.2451
@<TRIPOS>BOND
     1     1    40    1
     2     2     7    1
     3     2     1    1
     4     3     2    2
     5     4     3    1
     6     4     5    2
     7     5     6    1
     8     6     7    2
     9     8     1    1
    10     8     9    1
    11     8    12    1
    12     9    10    1
    13    10    11    1
    14    12    11    1
    15    14    13    1
    16    14    15    1
    17    15    18    2
    18    16    17    1
    19    16    15    1
    20    19    14    2
    21    20    21    2
    22    20    19    1
    23    21    26    1
    24    22    21    1
    25    23    22    1
    26    24    23    1
    27    24    25    1
    28    26    27    1
    29    26    13    2
    30    28    30    2
    31    29    35    1
    32    30    33    1
    33    31    34    1
    34    32    41    2
    35    34    13    1
    36    34    38    1
    37    36    31    1
    38    36    28    1
    39    37    31    2
    40    38    33    2
    41    38    40    1
    42    39    35    1
    43    40    41    1
    44    41    39    1
