@<TRIPOS>MOLECULE
outputs/IAG933/test6/raw/output_742_IAG933_linker_design_.xyz
 45 51 0 0 0
SMALL
GASTEIGER

@<TRIPOS>ATOM
      1 C         -24.8550   -1.0120   30.1430 C.3     1  UNL1        0.0438
      2 C         -24.9730   -2.5050   29.7880 C.2     1  UNL1       -0.0208
      3 C         -23.9060   -3.1730   29.1460 C.2     1  UNL1       -0.0042
      4 C         -23.9890   -4.5490   28.8530 C.2     1  UNL1       -0.0003
      5 C         -25.1370   -5.2800   29.2050 C.2     1  UNL1       -0.0000
      6 C         -26.2320   -4.6110   29.7840 C.2     1  UNL1       -0.0003
      7 C         -26.1550   -3.2320   30.0650 C.2     1  UNL1       -0.0042
      8 C         -25.3870   -0.6790   31.5710 C.3     1  UNL1        0.0795
      9 C         -25.1890    0.7730   32.0280 C.3     1  UNL1        0.0451
     10 C         -25.3360    0.6840   33.5440 C.3     1  UNL1        0.0226
     11 C         -24.8290   -0.7150   33.9050 C.3     1  UNL1        0.0888
     12 N         -24.7580   -1.4810   32.6460 N.3     1  UNL1       -0.2190
     13 C         -25.6880    1.6140   26.4610 C.2     1  UNL1        0.0935
     14 C         -26.2500    2.9200   26.3950 C.2     1  UNL1        0.0903
     15 C         -25.6420    4.0930   27.1230 C.2     1  UNL1        0.2676
     16 N         -25.6140    5.2520   26.4490 N.am    1  UNL1       -0.1997
     17 C         -25.0260    6.4790   26.9630 C.3     1  UNL1        0.1388
     18 O         -25.1430    3.9660   28.2430 O.2     1  UNL1       -0.2683
     19 C         -27.4380    3.0910   25.6450 C.2     1  UNL1        0.1080
     20 N         -28.0750    2.0890   25.0030 N.2     1  UNL1       -0.2080
     21 C         -27.5430    0.8490   25.0790 C.2     1  UNL1        0.2546
     22 O         -28.1930   -0.2080   24.4770 O.2     1  UNL1       -0.4558
     23 C         -29.4600    0.0050   23.8660 C.3     1  UNL1        0.2426
     24 C         -30.0650   -1.3770   23.5730 C.3     1  UNL1        0.2292
     25 O         -30.7290   -1.8780   24.7210 O.3     1  UNL1       -0.2162
     26 C         -26.3540    0.5760   25.7770 C.2     1  UNL1        0.2067
     27 F         -25.8600   -0.6810   25.7950 F       1  UNL1       -0.1979
     28 C         -25.0126    4.8897   33.5168 C.3     1  UNL1        0.2033
     29 C         -21.6489    1.4917   27.5824 C.3     1  UNL1        0.1699
     30 O         -24.5857    3.0070   31.9613 O.3     1  UNL1       -0.3311
     31 C         -22.3310    0.8147   29.8558 C.3     1  UNL1        0.0282
     32 C         -26.7116    4.8762   31.3972 C.3     1  UNL1        0.1768
     33 F         -23.4856    2.8188   25.1725 F       1  UNL1       -0.1797
     34 C         -22.6310    1.0800   28.5500 C.2     1  UNL1       -0.0050
     35 C         -27.0484    4.0496   32.7042 C.3     1  UNL1        0.1744
     36 C         -23.2512    2.0619   26.1905 C.3     1  UNL1        0.3689
     37 C         -24.7552    1.8444   31.0105 C.3     1  UNL1        0.1198
     38 O         -25.3053    5.0251   31.1722 O.3     1  UNL1       -0.3259
     39 O         -21.9984    1.9115   26.4777 O.3     1  UNL1       -0.3063
     40 C         -23.7872    0.9912   30.1844 C.3     1  UNL1        0.0371
     41 C         -23.9049    0.8831   28.1209 C.2     1  UNL1        0.0278
     42 O         -26.0842    3.9658   33.8343 O.3     1  UNL1       -0.3458
     43 C         -24.6934    0.1566   29.1482 C.3     1  UNL1        0.0437
     44 N         -24.3209    1.4832   26.9450 N.pl3   1  UNL1       -0.2383
     45 C         -24.5689    4.2889   32.3641 C.3     1  UNL1        0.2660
@<TRIPOS>BOND
     1     1     2    1
     2     1     8    1
     3     2     7    1
     4     3     2    2
     5     4     3    1
     6     4     5    2
     7     5     6    1
     8     6     7    2
     9     8     9    1
    10     8    12    1
    11     9    10    1
    12    10    11    1
    13    12    11    1
    14    13    44    1
    15    14    13    1
    16    14    15    1
    17    15    18    2
    18    16    17    1
    19    16    15    1
    20    19    14    2
    21    20    21    2
    22    20    19    1
    23    21    26    1
    24    22    21    1
    25    23    22    1
    26    24    23    1
    27    24    25    1
    28    26    27    1
    29    26    13    2
    30    28    42    1
    31    29    34    1
    32    32    35    1
    33    34    31    1
    34    35    42    1
    35    36    33    1
    36    36    39    1
    37    36    44    1
    38    37    30    1
    39    37     9    1
    40    38    32    1
    41    38    45    1
    42    39    29    1
    43    40    31    1
    44    40    37    1
    45    41    34    2
    46    43    41    1
    47    43     1    1
    48    43    40    1
    49    44    41    1
    50    45    30    1
    51    45    28    1
