@<TRIPOS>MOLECULE
outputs/IAG933/test6/raw/output_7420_IAG933_linker_design_.xyz
 48 51 0 0 0
SMALL
GASTEIGER

@<TRIPOS>ATOM
      1 C         -24.8550   -1.0120   30.1430 C.3     1  UNL1        0.0720
      2 C         -24.9730   -2.5050   29.7880 C.2     1  UNL1       -0.0161
      3 C         -23.9060   -3.1730   29.1460 C.2     1  UNL1       -0.0039
      4 C         -23.9890   -4.5490   28.8530 C.2     1  UNL1       -0.0003
      5 C         -25.1370   -5.2800   29.2050 C.2     1  UNL1       -0.0000
      6 C         -26.2320   -4.6110   29.7840 C.2     1  UNL1       -0.0003
      7 C         -26.1550   -3.2320   30.0650 C.2     1  UNL1       -0.0039
      8 C         -25.3870   -0.6790   31.5710 C.3     1  UNL1        0.0818
      9 C         -25.1890    0.7730   32.0280 C.3     1  UNL1        0.0196
     10 C         -25.3360    0.6840   33.5440 C.3     1  UNL1        0.0203
     11 C         -24.8290   -0.7150   33.9050 C.3     1  UNL1        0.0887
     12 N         -24.7580   -1.4810   32.6460 N.3     1  UNL1       -0.2188
     13 C         -25.6880    1.6140   26.4610 C.3     1  UNL1        0.0702
     14 C         -26.2500    2.9200   26.3950 C.2     1  UNL1        0.0548
     15 C         -25.6420    4.0930   27.1230 C.2     1  UNL1        0.2624
     16 N         -25.6140    5.2520   26.4490 N.am    1  UNL1       -0.2000
     17 C         -25.0260    6.4790   26.9630 C.3     1  UNL1        0.1388
     18 O         -25.1430    3.9660   28.2430 O.2     1  UNL1       -0.2687
     19 C         -27.4380    3.0910   25.6450 C.2     1  UNL1        0.1021
     20 N         -28.0750    2.0890   25.0030 N.2     1  UNL1       -0.2119
     21 C         -27.5430    0.8490   25.0790 C.2     1  UNL1        0.2341
     22 O         -28.1930   -0.2080   24.4770 O.2     1  UNL1       -0.4585
     23 C         -29.4600    0.0050   23.8660 C.3     1  UNL1        0.2423
     24 C         -30.0650   -1.3770   23.5730 C.3     1  UNL1        0.2292
     25 O         -30.7290   -1.8780   24.7210 O.3     1  UNL1       -0.2162
     26 C         -26.3540    0.5760   25.7770 C.3     1  UNL1        0.2400
     27 F         -25.8600   -0.6810   25.7950 F       1  UNL1       -0.2269
     28 C         -34.3416    2.3968   28.7678 C.2     1  UNL1        0.0030
     29 C         -32.2627    3.0633   29.7998 C.2     1  UNL1        0.1938
     30 N         -26.4532    0.1158   28.6324 N.am    1  UNL1       -0.1876
     31 O         -31.4823    3.6516   30.8148 O.2     1  UNL1       -0.2868
     32 C         -30.0384    2.8501   28.6812 C.3     1  UNL1        0.1775
     33 C         -23.1755    1.5287   27.9097 C.3     1  UNL1        0.0058
     34 O         -28.1359   -1.0877   29.8600 O.2     1  UNL1       -0.2730
     35 N         -31.9701    3.7436   25.6882 N.3     1  UNL1       -0.1262
     36 C         -29.1765    1.8493   29.4153 C.3     1  UNL1        0.0472
     37 C         -33.6611    2.1272   27.6054 C.2     1  UNL1       -0.0029
     38 C         -21.6078    1.5021   27.7114 C.3     1  UNL1        0.0004
     39 C         -24.1538    1.6520   26.6301 C.3     1  UNL1        0.0082
     40 C         -24.9681    0.0110   28.9653 C.2     1  UNL1        0.0339
     41 O         -29.5260    4.1205   28.6771 O.3     1  UNL1       -0.2182
     42 C         -23.4333    0.0556   28.3988 C.3     1  UNL1        0.0392
     43 C         -27.7230   -0.2104   29.1104 C.2     1  UNL1        0.2451
     44 C         -31.7141    2.3600   26.0892 C.3     1  UNL1        0.1355
     45 C         -33.6321    2.8623   29.8716 C.2     1  UNL1        0.0418
     46 C         -31.5790    2.7229   28.6392 C.2     1  UNL1        0.0441
     47 C         -28.8050    0.6576   28.3846 C.3     1  UNL1        0.0901
     48 C         -32.2747    2.3709   27.4877 C.2     1  UNL1       -0.0017
@<TRIPOS>BOND
     1     1    40    1
     2     2     7    1
     3     2     1    1
     4     3     2    2
     5     4     3    1
     6     4     5    2
     7     5     6    1
     8     6     7    2
     9     8     1    1
    10     8     9    1
    11     8    12    1
    12     9    10    1
    13    10    11    1
    14    12    11    1
    15    13    39    1
    16    14    13    1
    17    14    15    1
    18    15    18    2
    19    16    17    1
    20    16    15    1
    21    19    14    2
    22    20    21    2
    23    20    19    1
    24    21    26    1
    25    22    21    1
    26    23    22    1
    27    24    23    1
    28    24    25    1
    29    26    27    1
    30    26    13    1
    31    28    45    1
    32    29    45    2
    33    29    31    1
    34    30    40    2
    35    30    43    1
    36    32    41    1
    37    32    36    1
    38    33    38    1
    39    33    42    1
    40    35    44    1
    41    37    28    2
    42    39    33    1
    43    42    40    1
    44    43    34    2
    45    44    48    1
    46    46    32    1
    47    46    29    1
    48    47    43    1
    49    47    36    1
    50    48    37    1
    51    48    46    2
