@<TRIPOS>MOLECULE
outputs/IAG933/test6/raw/output_7423_IAG933_linker_design_.xyz
 40 44 0 0 0
SMALL
GASTEIGER

@<TRIPOS>ATOM
      1 C         -24.8550   -1.0120   30.1430 C.3     1  UNL1        0.0744
      2 C         -24.9730   -2.5050   29.7880 C.2     1  UNL1       -0.0158
      3 C         -23.9060   -3.1730   29.1460 C.2     1  UNL1       -0.0039
      4 C         -23.9890   -4.5490   28.8530 C.2     1  UNL1       -0.0003
      5 C         -25.1370   -5.2800   29.2050 C.2     1  UNL1       -0.0000
      6 C         -26.2320   -4.6110   29.7840 C.2     1  UNL1       -0.0003
      7 C         -26.1550   -3.2320   30.0650 C.2     1  UNL1       -0.0039
      8 C         -25.3870   -0.6790   31.5710 C.3     1  UNL1        0.0849
      9 C         -25.1890    0.7730   32.0280 C.3     1  UNL1        0.0523
     10 C         -25.3360    0.6840   33.5440 C.3     1  UNL1        0.0231
     11 C         -24.8290   -0.7150   33.9050 C.3     1  UNL1        0.0888
     12 N         -24.7580   -1.4810   32.6460 N.3     1  UNL1       -0.2187
     13 C         -25.6880    1.6140   26.4610 C.2     1  UNL1        0.0526
     14 C         -26.2500    2.9200   26.3950 C.2     1  UNL1        0.0778
     15 C         -25.6420    4.0930   27.1230 C.2     1  UNL1        0.2665
     16 N         -25.6140    5.2520   26.4490 N.am    1  UNL1       -0.1997
     17 C         -25.0260    6.4790   26.9630 C.3     1  UNL1        0.1388
     18 O         -25.1430    3.9660   28.2430 O.2     1  UNL1       -0.2683
     19 C         -27.4380    3.0910   25.6450 C.2     1  UNL1        0.1068
     20 N         -28.0750    2.0890   25.0030 N.2     1  UNL1       -0.2081
     21 C         -27.5430    0.8490   25.0790 C.2     1  UNL1        0.2533
     22 O         -28.1930   -0.2080   24.4770 O.2     1  UNL1       -0.4558
     23 C         -29.4600    0.0050   23.8660 C.3     1  UNL1        0.2426
     24 C         -30.0650   -1.3770   23.5730 C.3     1  UNL1        0.2292
     25 O         -30.7290   -1.8780   24.7210 O.3     1  UNL1       -0.2162
     26 C         -26.3540    0.5760   25.7770 C.2     1  UNL1        0.1943
     27 F         -25.8600   -0.6810   25.7950 F       1  UNL1       -0.1992
     28 N         -25.6465    3.1160   32.6357 N.3     1  UNL1       -0.1136
     29 C         -21.9125    0.7522   28.6283 C.2     1  UNL1        0.0315
     30 C         -22.0414    1.4932   27.5046 C.2     1  UNL1        0.1518
     31 F         -20.9457    2.1290   27.1089 F       1  UNL1       -0.2032
     32 C         -24.5625    1.2983   27.3194 C.2     1  UNL1        0.0678
     33 CL        -22.9759    2.5022   25.3018 Cl      1  UNL1       -0.0786
     34 C         -26.1836    1.5212   29.3704 C.3     1  UNL1        0.1885
     35 C         -23.2582    1.6983   26.8417 C.2     1  UNL1        0.0987
     36 N         -25.0841    0.9681   28.5581 N.pl3   1  UNL1       -0.2739
     37 N         -26.0178    2.4737   30.3564 N.3     1  UNL1       -0.1793
     38 C         -24.1954    0.0542   29.3905 C.2     1  UNL1        0.0352
     39 C         -25.1260    2.3180   31.5777 C.3     1  UNL1        0.1669
     40 C         -22.8388    0.1252   29.4900 C.2     1  UNL1        0.0131
@<TRIPOS>BOND
     1     1     2    1
     2     1     8    1
     3     2     7    1
     4     3     2    2
     5     4     3    1
     6     4     5    2
     7     5     6    1
     8     6     7    2
     9     8     9    1
    10     8    12    1
    11     9    10    1
    12    10    11    1
    13    12    11    1
    14    13    32    1
    15    14    13    1
    16    14    15    1
    17    15    18    2
    18    16    17    1
    19    16    15    1
    20    19    14    2
    21    20    21    2
    22    20    19    1
    23    21    26    1
    24    22    21    1
    25    23    22    1
    26    24    23    1
    27    24    25    1
    28    26    27    1
    29    26    13    2
    30    29    40    1
    31    30    29    2
    32    31    30    1
    33    32    36    1
    34    33    35    1
    35    34    37    1
    36    35    32    2
    37    35    30    1
    38    36    34    1
    39    36    38    1
    40    37    39    1
    41    38    40    2
    42    38     1    1
    43    39     9    1
    44    39    28    1
