@<TRIPOS>MOLECULE
outputs/IAG933/test6/raw/output_7425_IAG933_linker_design_.xyz
 45 49 0 0 0
SMALL
GASTEIGER

@<TRIPOS>ATOM
      1 C         -24.8550   -1.0120   30.1430 C.3     1  UNL1        0.0814
      2 C         -24.9730   -2.5050   29.7880 C.2     1  UNL1       -0.0152
      3 C         -23.9060   -3.1730   29.1460 C.2     1  UNL1       -0.0038
      4 C         -23.9890   -4.5490   28.8530 C.2     1  UNL1       -0.0003
      5 C         -25.1370   -5.2800   29.2050 C.2     1  UNL1       -0.0000
      6 C         -26.2320   -4.6110   29.7840 C.2     1  UNL1       -0.0003
      7 C         -26.1550   -3.2320   30.0650 C.2     1  UNL1       -0.0038
      8 C         -25.3870   -0.6790   31.5710 C.3     1  UNL1        0.0827
      9 C         -25.1890    0.7730   32.0280 C.3     1  UNL1        0.0196
     10 C         -25.3360    0.6840   33.5440 C.3     1  UNL1        0.0203
     11 C         -24.8290   -0.7150   33.9050 C.3     1  UNL1        0.0887
     12 N         -24.7580   -1.4810   32.6460 N.3     1  UNL1       -0.2187
     13 C         -25.6880    1.6140   26.4610 C.2     1  UNL1        0.0337
     14 C         -26.2500    2.9200   26.3950 C.2     1  UNL1        0.0741
     15 C         -25.6420    4.0930   27.1230 C.2     1  UNL1        0.2662
     16 N         -25.6140    5.2520   26.4490 N.am    1  UNL1       -0.1997
     17 C         -25.0260    6.4790   26.9630 C.3     1  UNL1        0.1388
     18 O         -25.1430    3.9660   28.2430 O.2     1  UNL1       -0.2683
     19 C         -27.4380    3.0910   25.6450 C.2     1  UNL1        0.1065
     20 N         -28.0750    2.0890   25.0030 N.2     1  UNL1       -0.2081
     21 C         -27.5430    0.8490   25.0790 C.2     1  UNL1        0.2530
     22 O         -28.1930   -0.2080   24.4770 O.2     1  UNL1       -0.4558
     23 C         -29.4600    0.0050   23.8660 C.3     1  UNL1        0.2426
     24 C         -30.0650   -1.3770   23.5730 C.3     1  UNL1        0.2292
     25 O         -30.7290   -1.8780   24.7210 O.3     1  UNL1       -0.2162
     26 C         -26.3540    0.5760   25.7770 C.2     1  UNL1        0.1907
     27 F         -25.8600   -0.6810   25.7950 F       1  UNL1       -0.1995
     28 C         -23.1392    0.1963   28.9278 C.3     1  UNL1        0.0913
     29 O         -30.1933    3.2219   31.4108 O.2     1  UNL1       -0.2713
     30 C         -27.1898   -0.0343   29.1746 C.1     1  UNL1       -0.0912
     31 N         -24.5249    0.4726   28.3478 N.pl3   1  UNL1       -0.3026
     32 C         -24.4473    1.4774   27.2396 C.3     1  UNL1        0.0980
     33 C         -30.8051    2.3096   31.9805 C.2     1  UNL1        0.2648
     34 C         -23.2563    1.6210   26.4697 C.3     1  UNL1        0.0244
     35 C         -31.5434   -0.0423   29.1513 C.3     1  UNL1        0.0485
     36 C         -25.6800   -0.1013   29.1622 C.2     1  UNL1        0.0654
     37 C         -31.6250    1.3069   31.2424 C.3     1  UNL1        0.1109
     38 C         -29.4056   -0.6827   28.1322 C.2     1  UNL1        0.0034
     39 C         -30.8682    0.5621   30.2204 C.2     1  UNL1       -0.0301
     40 C         -30.7982   -0.6337   28.1210 C.2     1  UNL1       -0.0211
     41 C         -29.4641    0.5230   30.2853 C.2     1  UNL1       -0.0000
     42 C         -28.7098   -0.0591   29.2237 C.2     1  UNL1        0.0344
     43 C         -22.0315    1.0884   28.5272 C.3     1  UNL1        0.0215
     44 C         -21.9782    1.6684   27.1580 C.3     1  UNL1        0.0038
     45 N         -30.7808    2.1161   33.2857 N.am    1  UNL1       -0.0875
@<TRIPOS>BOND
     1     1    36    1
     2     2     7    1
     3     2     1    1
     4     3     2    2
     5     4     3    1
     6     4     5    2
     7     5     6    1
     8     6     7    2
     9     8     1    1
    10     8     9    1
    11     8    12    1
    12     9    10    1
    13    10    11    1
    14    12    11    1
    15    14    13    1
    16    14    15    1
    17    15    18    2
    18    16    17    1
    19    16    15    1
    20    19    14    2
    21    20    21    2
    22    20    19    1
    23    21    26    1
    24    22    21    1
    25    23    22    1
    26    24    23    1
    27    24    25    1
    28    26    27    1
    29    26    13    2
    30    29    33    2
    31    30    42    2
    32    31    28    1
    33    31    36    1
    34    32    13    1
    35    32    31    1
    36    33    45    1
    37    34    44    1
    38    34    32    1
    39    35    39    1
    40    36    30    2
    41    37    33    1
    42    38    42    1
    43    39    41    2
    44    39    37    1
    45    40    38    2
    46    40    35    1
    47    42    41    1
    48    43    28    1
    49    44    43    1
