@<TRIPOS>MOLECULE
outputs/IAG933/test6/raw/output_7429_IAG933_linker_design_.xyz
 48 53 0 0 0
SMALL
GASTEIGER

@<TRIPOS>ATOM
      1 C         -24.8550   -1.0120   30.1430 C.3     1  UNL1        0.0399
      2 C         -24.9730   -2.5050   29.7880 C.2     1  UNL1       -0.0211
      3 C         -23.9060   -3.1730   29.1460 C.2     1  UNL1       -0.0042
      4 C         -23.9890   -4.5490   28.8530 C.2     1  UNL1       -0.0003
      5 C         -25.1370   -5.2800   29.2050 C.2     1  UNL1       -0.0000
      6 C         -26.2320   -4.6110   29.7840 C.2     1  UNL1       -0.0003
      7 C         -26.1550   -3.2320   30.0650 C.2     1  UNL1       -0.0042
      8 C         -25.3870   -0.6790   31.5710 C.3     1  UNL1        0.0769
      9 C         -25.1890    0.7730   32.0280 C.3     1  UNL1        0.0192
     10 C         -25.3360    0.6840   33.5440 C.3     1  UNL1        0.0202
     11 C         -24.8290   -0.7150   33.9050 C.3     1  UNL1        0.0887
     12 N         -24.7580   -1.4810   32.6460 N.3     1  UNL1       -0.2191
     13 C         -25.6880    1.6140   26.4610 C.2     1  UNL1        0.0863
     14 C         -26.2500    2.9200   26.3950 C.2     1  UNL1        0.0899
     15 C         -25.6420    4.0930   27.1230 C.2     1  UNL1        0.2676
     16 N         -25.6140    5.2520   26.4490 N.am    1  UNL1       -0.1997
     17 C         -25.0260    6.4790   26.9630 C.3     1  UNL1        0.1388
     18 O         -25.1430    3.9660   28.2430 O.2     1  UNL1       -0.2683
     19 C         -27.4380    3.0910   25.6450 C.2     1  UNL1        0.1080
     20 N         -28.0750    2.0890   25.0030 N.2     1  UNL1       -0.2080
     21 C         -27.5430    0.8490   25.0790 C.2     1  UNL1        0.2546
     22 O         -28.1930   -0.2080   24.4770 O.2     1  UNL1       -0.4558
     23 C         -29.4600    0.0050   23.8660 C.3     1  UNL1        0.2426
     24 C         -30.0650   -1.3770   23.5730 C.3     1  UNL1        0.2292
     25 O         -30.7290   -1.8780   24.7210 O.3     1  UNL1       -0.2162
     26 C         -26.3540    0.5760   25.7770 C.2     1  UNL1        0.2062
     27 F         -25.8600   -0.6810   25.7950 F       1  UNL1       -0.1979
     28 C         -22.9989    0.3427   28.7771 C.3     1  UNL1        0.0405
     29 C         -31.5034   -0.1532   28.1114 C.3     1  UNL1        0.0219
     30 C         -30.8414    4.6220   26.8137 C.2     1  UNL1       -0.0003
     31 N         -24.4917    1.2443   27.2109 N.pl3   1  UNL1       -0.3056
     32 C         -29.2141    0.3106   28.9175 C.3     1  UNL1        0.0731
     33 C         -25.4828    0.0033   29.1566 C.3     1  UNL1        0.0236
     34 C         -22.4419    1.6012   28.0721 C.3     1  UNL1        0.1131
     35 C         -30.9579    4.2520   25.4876 C.2     1  UNL1       -0.0000
     36 C         -31.2474    2.3202   27.5239 C.2     1  UNL1       -0.0065
     37 C         -31.0084    3.6819   27.8160 C.2     1  UNL1       -0.0029
     38 C         -27.8602    0.9401   29.1005 C.3     1  UNL1        0.0175
     39 C         -31.2217    1.2505   28.6019 C.3     1  UNL1        0.0949
     40 C         -31.1332   -1.2203   29.1575 C.3     1  UNL1        0.0032
     41 C         -24.3432    0.1261   28.0872 C.3     1  UNL1        0.0747
     42 C         -31.2827    2.9321   25.1942 C.2     1  UNL1       -0.0003
     43 C         -31.4192    1.9699   26.1968 C.2     1  UNL1       -0.0029
     44 C         -29.6563   -1.0032   29.5495 C.3     1  UNL1        0.0175
     45 C         -27.0142   -0.2796   29.1459 C.3     1  UNL1        0.0034
     46 C         -23.1930    1.7300   26.7517 C.3     1  UNL1        0.1098
     47 N         -30.1626    1.3467   29.3871 N.3     1  UNL1       -0.2165
     48 N         -21.0118    1.4127   27.8429 N.3     1  UNL1       -0.1310
@<TRIPOS>BOND
     1     1    33    1
     2     2     7    1
     3     2     1    1
     4     3     2    2
     5     4     3    1
     6     4     5    2
     7     5     6    1
     8     6     7    2
     9     8     1    1
    10     8     9    1
    11     8    12    1
    12     9    10    1
    13    10    11    1
    14    12    11    1
    15    13    31    1
    16    14    13    1
    17    14    15    1
    18    15    18    2
    19    16    17    1
    20    16    15    1
    21    19    14    2
    22    20    21    2
    23    20    19    1
    24    21    26    1
    25    22    21    1
    26    23    22    1
    27    24    23    1
    28    24    25    1
    29    26    27    1
    30    26    13    2
    31    29    39    1
    32    29    40    1
    33    30    37    1
    34    31    41    1
    35    32    38    1
    36    32    47    1
    37    32    44    1
    38    33    45    1
    39    34    48    1
    40    34    28    1
    41    35    30    2
    42    36    37    2
    43    38    45    1
    44    39    36    1
    45    39    47    1
    46    40    44    1
    47    41    28    1
    48    41    33    1
    49    42    35    1
    50    42    43    2
    51    43    36    1
    52    46    31    1
    53    46    34    1
