@<TRIPOS>MOLECULE
outputs/IAG933/test6/raw/output_7430_IAG933_linker_design_.xyz
 41 45 0 0 0
SMALL
GASTEIGER

@<TRIPOS>ATOM
      1 C         -24.8550   -1.0120   30.1430 C.3     1  UNL1        0.2040
      2 C         -24.9730   -2.5050   29.7880 C.2     1  UNL1        0.0186
      3 C         -23.9060   -3.1730   29.1460 C.2     1  UNL1       -0.0008
      4 C         -23.9890   -4.5490   28.8530 C.2     1  UNL1       -0.0002
      5 C         -25.1370   -5.2800   29.2050 C.2     1  UNL1       -0.0000
      6 C         -26.2320   -4.6110   29.7840 C.2     1  UNL1       -0.0002
      7 C         -26.1550   -3.2320   30.0650 C.2     1  UNL1       -0.0008
      8 C         -25.3870   -0.6790   31.5710 C.3     1  UNL1        0.1169
      9 C         -25.1890    0.7730   32.0280 C.3     1  UNL1        0.0214
     10 C         -25.3360    0.6840   33.5440 C.3     1  UNL1        0.0203
     11 C         -24.8290   -0.7150   33.9050 C.3     1  UNL1        0.0888
     12 N         -24.7580   -1.4810   32.6460 N.3     1  UNL1       -0.2154
     13 C         -25.6880    1.6140   26.4610 C.2     1  UNL1        0.0417
     14 C         -26.2500    2.9200   26.3950 C.2     1  UNL1        0.0767
     15 C         -25.6420    4.0930   27.1230 C.2     1  UNL1        0.2664
     16 N         -25.6140    5.2520   26.4490 N.am    1  UNL1       -0.1997
     17 C         -25.0260    6.4790   26.9630 C.3     1  UNL1        0.1388
     18 O         -25.1430    3.9660   28.2430 O.2     1  UNL1       -0.2683
     19 C         -27.4380    3.0910   25.6450 C.2     1  UNL1        0.1067
     20 N         -28.0750    2.0890   25.0030 N.2     1  UNL1       -0.2081
     21 C         -27.5430    0.8490   25.0790 C.2     1  UNL1        0.2533
     22 O         -28.1930   -0.2080   24.4770 O.2     1  UNL1       -0.4558
     23 C         -29.4600    0.0050   23.8660 C.3     1  UNL1        0.2426
     24 C         -30.0650   -1.3770   23.5730 C.3     1  UNL1        0.2292
     25 O         -30.7290   -1.8780   24.7210 O.3     1  UNL1       -0.2162
     26 C         -26.3540    0.5760   25.7770 C.2     1  UNL1        0.1932
     27 F         -25.8600   -0.6810   25.7950 F       1  UNL1       -0.1992
     28 F         -21.0575    1.7014   27.4516 F       1  UNL1       -0.2240
     29 CL        -22.8085    2.5741   25.2761 Cl      1  UNL1       -0.0836
     30 C         -26.9445    1.7916   29.9790 C.3     1  UNL1        0.0000
     31 C         -23.2617    1.7973   26.7542 C.2     1  UNL1        0.0773
     32 C         -26.5040    1.6022   31.4755 C.3     1  UNL1        0.0015
     33 O         -25.2157   -0.2490   29.0020 O.2     1  UNL1       -0.4713
     34 C         -24.2968    0.6372   28.3309 C.2     1  UNL1        0.1657
     35 C         -23.0056    0.8309   28.7263 C.2     1  UNL1        0.1888
     36 C         -26.4307    3.0311   31.9656 C.3     1  UNL1        0.0000
     37 C         -27.1553    3.9459   31.0205 C.3     1  UNL1        0.0000
     38 C         -24.4745    1.3632   27.1499 C.2     1  UNL1        0.0481
     39 C         -27.7234    3.1199   29.9572 C.3     1  UNL1        0.0000
     40 C         -22.3478    1.4714   27.6694 C.3     1  UNL1        0.2461
     41 F         -22.4339    0.5514   29.9134 F       1  UNL1       -0.2024
@<TRIPOS>BOND
     1     1    33    1
     2     2     7    1
     3     2     1    1
     4     3     2    2
     5     4     3    1
     6     4     5    2
     7     5     6    1
     8     6     7    2
     9     8     1    1
    10     8     9    1
    11     8    12    1
    12     9    32    1
    13     9    10    1
    14    10    11    1
    15    12    11    1
    16    13    38    1
    17    14    13    1
    18    14    15    1
    19    15    18    2
    20    16    17    1
    21    16    15    1
    22    19    14    2
    23    20    21    2
    24    20    19    1
    25    21    26    1
    26    22    21    1
    27    23    22    1
    28    24    23    1
    29    24    25    1
    30    26    27    1
    31    26    13    2
    32    29    31    1
    33    30    32    1
    34    31    38    2
    35    31    40    1
    36    32    36    1
    37    34    35    2
    38    34    33    1
    39    35    41    1
    40    37    36    1
    41    38    34    1
    42    39    30    1
    43    39    37    1
    44    40    28    1
    45    40    35    1
