@<TRIPOS>MOLECULE
outputs/IAG933/test6/raw/output_7431_IAG933_linker_design_.xyz
 45 48 0 0 0
SMALL
GASTEIGER

@<TRIPOS>ATOM
      1 C         -24.8550   -1.0120   30.1430 C.3     1  UNL1        0.0437
      2 C         -24.9730   -2.5050   29.7880 C.2     1  UNL1       -0.0208
      3 C         -23.9060   -3.1730   29.1460 C.2     1  UNL1       -0.0042
      4 C         -23.9890   -4.5490   28.8530 C.2     1  UNL1       -0.0003
      5 C         -25.1370   -5.2800   29.2050 C.2     1  UNL1       -0.0000
      6 C         -26.2320   -4.6110   29.7840 C.2     1  UNL1       -0.0003
      7 C         -26.1550   -3.2320   30.0650 C.2     1  UNL1       -0.0042
      8 C         -25.3870   -0.6790   31.5710 C.3     1  UNL1        0.0773
      9 C         -25.1890    0.7730   32.0280 C.3     1  UNL1        0.0219
     10 C         -25.3360    0.6840   33.5440 C.3     1  UNL1        0.0203
     11 C         -24.8290   -0.7150   33.9050 C.3     1  UNL1        0.0887
     12 N         -24.7580   -1.4810   32.6460 N.3     1  UNL1       -0.2191
     13 C         -25.6880    1.6140   26.4610 C.3     1  UNL1        0.1222
     14 C         -26.2500    2.9200   26.3950 C.2     1  UNL1        0.0592
     15 C         -25.6420    4.0930   27.1230 C.2     1  UNL1        0.2626
     16 N         -25.6140    5.2520   26.4490 N.am    1  UNL1       -0.2000
     17 C         -25.0260    6.4790   26.9630 C.3     1  UNL1        0.1388
     18 O         -25.1430    3.9660   28.2430 O.2     1  UNL1       -0.2687
     19 C         -27.4380    3.0910   25.6450 C.2     1  UNL1        0.1023
     20 N         -28.0750    2.0890   25.0030 N.2     1  UNL1       -0.2119
     21 C         -27.5430    0.8490   25.0790 C.2     1  UNL1        0.2342
     22 O         -28.1930   -0.2080   24.4770 O.2     1  UNL1       -0.4585
     23 C         -29.4600    0.0050   23.8660 C.3     1  UNL1        0.2423
     24 C         -30.0650   -1.3770   23.5730 C.3     1  UNL1        0.2292
     25 O         -30.7290   -1.8780   24.7210 O.3     1  UNL1       -0.2162
     26 C         -26.3540    0.5760   25.7770 C.3     1  UNL1        0.2443
     27 F         -25.8600   -0.6810   25.7950 F       1  UNL1       -0.2267
     28 C         -22.4495    7.4624   33.8042 C.3     1  UNL1        0.0217
     29 C         -24.0067    2.8706   30.7677 C.3     1  UNL1        0.2142
     30 O         -24.6992    5.3150   32.4681 O.2     1  UNL1       -0.2732
     31 C         -23.5989    5.0611   31.9571 C.2     1  UNL1        0.2456
     32 C         -25.0205    2.1492   31.6492 C.3     1  UNL1        0.0529
     33 C         -21.9341    6.1479   33.2755 C.3     1  UNL1        0.1151
     34 C         -23.2101    2.0156   26.1948 C.3     1  UNL1        0.2322
     35 C         -22.5084    8.6288   32.8837 C.3     1  UNL1        0.0018
     36 N         -24.2050    1.3972   28.2648 N.2     1  UNL1       -0.0631
     37 N         -23.0722    2.1555   30.0412 N.pl3   1  UNL1       -0.0356
     38 C         -21.8426    1.8087   28.0786 C.2     1  UNL1        0.0910
     39 C         -21.3983    7.9628   34.8061 C.3     1  UNL1        0.0018
     40 F         -23.3468    2.6088   25.0426 F       1  UNL1       -0.2277
     41 C         -23.0343    1.7417   28.8139 C.2     1  UNL1        0.3558
     42 C         -24.3390    1.5887   26.9490 C.3     1  UNL1        0.2586
     43 C         -21.9221    1.9585   26.7074 C.2     1  UNL1        0.0206
     44 N         -22.5000    5.9498   31.9275 N.am    1  UNL1       -0.2053
     45 C         -23.1816    3.8752   31.3911 C.3     1  UNL1        0.1375
@<TRIPOS>BOND
     1     2     7    1
     2     2     1    1
     3     3     2    2
     4     4     3    1
     5     4     5    2
     6     5     6    1
     7     6     7    2
     8     8     1    1
     9     8     9    1
    10     8    12    1
    11     9    32    1
    12     9    10    1
    13    10    11    1
    14    12    11    1
    15    13    14    1
    16    13    42    1
    17    14    15    1
    18    15    18    2
    19    16    17    1
    20    16    15    1
    21    19    14    2
    22    20    21    2
    23    20    19    1
    24    21    26    1
    25    22    21    1
    26    23    22    1
    27    24    23    1
    28    24    25    1
    29    26    27    1
    30    26    13    1
    31    28    39    1
    32    29    45    1
    33    29    32    1
    34    31    30    2
    35    33    28    1
    36    34    40    1
    37    34    43    1
    38    34    42    1
    39    35    28    1
    40    36    41    2
    41    37    29    1
    42    38    41    1
    43    41    37    1
    44    42    36    1
    45    43    38    2
    46    44    31    1
    47    44    33    1
    48    45    31    1
