@<TRIPOS>MOLECULE
outputs/IAG933/test6/raw/output_7432_IAG933_linker_design_.xyz
 42 46 0 0 0
SMALL
GASTEIGER

@<TRIPOS>ATOM
      1 C         -24.8550   -1.0120   30.1430 C.3     1  UNL1        0.0650
      2 C         -24.9730   -2.5050   29.7880 C.2     1  UNL1       -0.0189
      3 C         -23.9060   -3.1730   29.1460 C.2     1  UNL1       -0.0042
      4 C         -23.9890   -4.5490   28.8530 C.2     1  UNL1       -0.0003
      5 C         -25.1370   -5.2800   29.2050 C.2     1  UNL1       -0.0000
      6 C         -26.2320   -4.6110   29.7840 C.2     1  UNL1       -0.0003
      7 C         -26.1550   -3.2320   30.0650 C.2     1  UNL1       -0.0042
      8 C         -25.3870   -0.6790   31.5710 C.3     1  UNL1        0.0790
      9 C         -25.1890    0.7730   32.0280 C.3     1  UNL1        0.0193
     10 C         -25.3360    0.6840   33.5440 C.3     1  UNL1        0.0202
     11 C         -24.8290   -0.7150   33.9050 C.3     1  UNL1        0.0887
     12 N         -24.7580   -1.4810   32.6460 N.3     1  UNL1       -0.2191
     13 C         -25.6880    1.6140   26.4610 C.2     1  UNL1        0.0379
     14 C         -26.2500    2.9200   26.3950 C.2     1  UNL1        0.0765
     15 C         -25.6420    4.0930   27.1230 C.2     1  UNL1        0.2664
     16 N         -25.6140    5.2520   26.4490 N.am    1  UNL1       -0.1997
     17 C         -25.0260    6.4790   26.9630 C.3     1  UNL1        0.1388
     18 O         -25.1430    3.9660   28.2430 O.2     1  UNL1       -0.2683
     19 C         -27.4380    3.0910   25.6450 C.2     1  UNL1        0.1067
     20 N         -28.0750    2.0890   25.0030 N.2     1  UNL1       -0.2081
     21 C         -27.5430    0.8490   25.0790 C.2     1  UNL1        0.2533
     22 O         -28.1930   -0.2080   24.4770 O.2     1  UNL1       -0.4558
     23 C         -29.4600    0.0050   23.8660 C.3     1  UNL1        0.2426
     24 C         -30.0650   -1.3770   23.5730 C.3     1  UNL1        0.2292
     25 O         -30.7290   -1.8780   24.7210 O.3     1  UNL1       -0.2162
     26 C         -26.3540    0.5760   25.7770 C.2     1  UNL1        0.1930
     27 F         -25.8600   -0.6810   25.7950 F       1  UNL1       -0.1992
     28 O         -30.0635   -0.5441   28.3152 O.3     1  UNL1       -0.3530
     29 C         -30.0496    0.8009   28.4715 C.3     1  UNL1        0.1481
     30 O         -22.3248   -0.4735   29.2925 O.2     1  UNL1       -0.2868
     31 C         -27.7955    0.3725   29.3714 C.2     1  UNL1        0.0368
     32 C         -29.5256   -1.2418   29.2088 C.3     1  UNL1        0.1481
     33 C         -28.8188    1.3267   29.0255 C.3     1  UNL1        0.0730
     34 C         -22.7041    0.3889   28.3979 C.2     1  UNL1        0.1935
     35 C         -24.3640    1.4053   26.9894 C.2     1  UNL1        0.0034
     36 C         -22.0071    1.8631   26.5594 C.2     1  UNL1        0.0033
     37 C         -25.1798    0.1184   29.0790 C.3     1  UNL1        0.1330
     38 N         -26.4863    0.6955   29.1611 N.2     1  UNL1       -0.2759
     39 C         -24.1212    0.6240   28.1740 C.2     1  UNL1        0.0392
     40 C         -28.2022   -0.8706   29.8465 C.3     1  UNL1        0.0730
     41 C         -21.6711    1.0733   27.6726 C.2     1  UNL1        0.0418
     42 C         -23.3397    2.0232   26.1852 C.2     1  UNL1        0.0000
@<TRIPOS>BOND
     1     1    37    1
     2     2     7    1
     3     2     1    1
     4     3     2    2
     5     4     3    1
     6     4     5    2
     7     5     6    1
     8     6     7    2
     9     8     1    1
    10     8     9    1
    11     8    12    1
    12     9    10    1
    13    10    11    1
    14    12    11    1
    15    13    35    1
    16    14    13    1
    17    14    15    1
    18    15    18    2
    19    16    17    1
    20    16    15    1
    21    19    14    2
    22    20    21    2
    23    20    19    1
    24    21    26    1
    25    22    21    1
    26    23    22    1
    27    24    23    1
    28    24    25    1
    29    26    27    1
    30    26    13    2
    31    28    29    1
    32    28    32    1
    33    29    33    1
    34    31    40    1
    35    32    40    1
    36    33    31    1
    37    34    30    1
    38    35    39    2
    39    36    41    1
    40    37    38    1
    41    38    31    2
    42    39    34    1
    43    39    37    1
    44    41    34    2
    45    42    36    2
    46    42    35    1
