@<TRIPOS>MOLECULE
outputs/IAG933/test6/raw/output_7439_IAG933_linker_design_.xyz
 40 43 0 0 0
SMALL
GASTEIGER

@<TRIPOS>ATOM
      1 C         -24.8550   -1.0120   30.1430 C.3     1  UNL1        0.0532
      2 C         -24.9730   -2.5050   29.7880 C.2     1  UNL1       -0.0203
      3 C         -23.9060   -3.1730   29.1460 C.2     1  UNL1       -0.0042
      4 C         -23.9890   -4.5490   28.8530 C.2     1  UNL1       -0.0003
      5 C         -25.1370   -5.2800   29.2050 C.2     1  UNL1       -0.0000
      6 C         -26.2320   -4.6110   29.7840 C.2     1  UNL1       -0.0003
      7 C         -26.1550   -3.2320   30.0650 C.2     1  UNL1       -0.0042
      8 C         -25.3870   -0.6790   31.5710 C.3     1  UNL1        0.0777
      9 C         -25.1890    0.7730   32.0280 C.3     1  UNL1        0.0192
     10 C         -25.3360    0.6840   33.5440 C.3     1  UNL1        0.0202
     11 C         -24.8290   -0.7150   33.9050 C.3     1  UNL1        0.0887
     12 N         -24.7580   -1.4810   32.6460 N.3     1  UNL1       -0.2191
     13 C         -25.6880    1.6140   26.4610 C.2     1  UNL1        0.0401
     14 C         -26.2500    2.9200   26.3950 C.2     1  UNL1        0.0766
     15 C         -25.6420    4.0930   27.1230 C.2     1  UNL1        0.2664
     16 N         -25.6140    5.2520   26.4490 N.am    1  UNL1       -0.1997
     17 C         -25.0260    6.4790   26.9630 C.3     1  UNL1        0.1388
     18 O         -25.1430    3.9660   28.2430 O.2     1  UNL1       -0.2683
     19 C         -27.4380    3.0910   25.6450 C.2     1  UNL1        0.1067
     20 N         -28.0750    2.0890   25.0030 N.2     1  UNL1       -0.2081
     21 C         -27.5430    0.8490   25.0790 C.2     1  UNL1        0.2533
     22 O         -28.1930   -0.2080   24.4770 O.2     1  UNL1       -0.4558
     23 C         -29.4600    0.0050   23.8660 C.3     1  UNL1        0.2426
     24 C         -30.0650   -1.3770   23.5730 C.3     1  UNL1        0.2292
     25 O         -30.7290   -1.8780   24.7210 O.3     1  UNL1       -0.2162
     26 C         -26.3540    0.5760   25.7770 C.2     1  UNL1        0.1931
     27 F         -25.8600   -0.6810   25.7950 F       1  UNL1       -0.1992
     28 C         -21.7298    0.9677   27.7311 C.2     1  UNL1        0.0736
     29 C         -23.3473    1.8842   26.2676 C.2     1  UNL1        0.1673
     30 C         -22.7433    0.6396   28.6143 C.2     1  UNL1        0.1946
     31 O         -27.0800    1.0980   28.9454 O.co2   1  UNL1       -0.2453
     32 C         -22.0622    1.5843   26.5545 C.2     1  UNL1        0.1706
     33 C         -24.1120    0.6536   28.2636 C.2     1  UNL1        0.0299
     34 O         -22.3160    0.2364   29.8876 O.2     1  UNL1       -0.2868
     35 C         -24.3752    1.3472   27.0532 C.2     1  UNL1        0.0319
     36 O         -27.1222   -0.9028   28.2115 O.co2   1  UNL1       -0.2453
     37 F         -23.5301    2.8147   25.3215 F       1  UNL1       -0.2018
     38 C         -25.0920   -0.0302   29.0749 C.3     1  UNL1        0.1341
     39 F         -21.1523    1.8432   25.6167 F       1  UNL1       -0.2017
     40 C         -26.5114    0.0487   28.7403 C.2     1  UNL1        0.3688
@<TRIPOS>BOND
     1     1    38    1
     2     2     7    1
     3     2     1    1
     4     3     2    2
     5     4     3    1
     6     4     5    2
     7     5     6    1
     8     6     7    2
     9     8     1    1
    10     8     9    1
    11     8    12    1
    12     9    10    1
    13    10    11    1
    14    12    11    1
    15    13    35    1
    16    14    13    1
    17    14    15    1
    18    15    18    2
    19    16    17    1
    20    16    15    1
    21    19    14    2
    22    20    21    2
    23    20    19    1
    24    21    26    1
    25    22    21    1
    26    23    22    1
    27    24    23    1
    28    24    25    1
    29    26    27    1
    30    26    13    2
    31    28    30    1
    32    29    32    1
    33    29    35    2
    34    30    34    1
    35    32    28    2
    36    33    30    2
    37    33    38    1
    38    35    33    1
    39    36    40   ar
    40    37    29    1
    41    38    40    1
    42    39    32    1
    43    40    31   ar
