@<TRIPOS>MOLECULE
outputs/IAG933/test6/raw/output_744_IAG933_linker_design_.xyz
 43 46 0 0 0
SMALL
GASTEIGER

@<TRIPOS>ATOM
      1 C         -24.8550   -1.0120   30.1430 C.3     1  UNL1        0.1193
      2 C         -24.9730   -2.5050   29.7880 C.2     1  UNL1       -0.0026
      3 C         -23.9060   -3.1730   29.1460 C.2     1  UNL1       -0.0026
      4 C         -23.9890   -4.5490   28.8530 C.2     1  UNL1       -0.0003
      5 C         -25.1370   -5.2800   29.2050 C.2     1  UNL1       -0.0000
      6 C         -26.2320   -4.6110   29.7840 C.2     1  UNL1       -0.0003
      7 C         -26.1550   -3.2320   30.0650 C.2     1  UNL1       -0.0026
      8 C         -25.3870   -0.6790   31.5710 C.3     1  UNL1        0.0955
      9 C         -25.1890    0.7730   32.0280 C.3     1  UNL1        0.0209
     10 C         -25.3360    0.6840   33.5440 C.3     1  UNL1        0.0203
     11 C         -24.8290   -0.7150   33.9050 C.3     1  UNL1        0.0888
     12 N         -24.7580   -1.4810   32.6460 N.3     1  UNL1       -0.2174
     13 C         -25.6880    1.6140   26.4610 C.2     1  UNL1        0.0250
     14 C         -26.2500    2.9200   26.3950 C.2     1  UNL1        0.0732
     15 C         -25.6420    4.0930   27.1230 C.2     1  UNL1        0.2661
     16 N         -25.6140    5.2520   26.4490 N.am    1  UNL1       -0.1997
     17 C         -25.0260    6.4790   26.9630 C.3     1  UNL1        0.1388
     18 O         -25.1430    3.9660   28.2430 O.2     1  UNL1       -0.2683
     19 C         -27.4380    3.0910   25.6450 C.2     1  UNL1        0.1064
     20 N         -28.0750    2.0890   25.0030 N.2     1  UNL1       -0.2081
     21 C         -27.5430    0.8490   25.0790 C.2     1  UNL1        0.2530
     22 O         -28.1930   -0.2080   24.4770 O.2     1  UNL1       -0.4558
     23 C         -29.4600    0.0050   23.8660 C.3     1  UNL1        0.2426
     24 C         -30.0650   -1.3770   23.5730 C.3     1  UNL1        0.2292
     25 O         -30.7290   -1.8780   24.7210 O.3     1  UNL1       -0.2162
     26 C         -26.3540    0.5760   25.7770 C.2     1  UNL1        0.1898
     27 F         -25.8600   -0.6810   25.7950 F       1  UNL1       -0.1996
     28 C         -23.3754    2.0071   26.2010 C.2     1  UNL1       -0.0163
     29 O         -29.9509    4.6280   29.0166 O.co2   1  UNL1       -0.2456
     30 C         -28.2646    1.4935   29.4922 C.3     1  UNL1        0.1286
     31 C         -22.8466    0.4581   28.8047 C.2     1  UNL1        0.0112
     32 O         -27.8470    4.3499   29.4645 O.co2   1  UNL1       -0.2456
     33 C         -21.9587    2.0823   26.3305 C.2     1  UNL1       -0.0039
     34 C         -21.5131    0.8704   28.4732 C.2     1  UNL1        0.0010
     35 N         -26.8469    1.3786   29.1850 N.am    1  UNL1       -0.1876
     36 C         -24.3375    1.3937   27.0451 C.3     1  UNL1        0.0828
     37 C         -24.1580    0.6079   28.2580 C.2     1  UNL1        0.0409
     38 C         -26.3907    0.1376   28.8757 C.2     1  UNL1        0.3270
     39 O         -27.2099   -0.7050   28.4811 O.2     1  UNL1       -0.2504
     40 C         -28.9023    3.9159   29.0390 C.2     1  UNL1        0.3667
     41 N         -25.1062   -0.0755   29.0489 N.am    1  UNL1       -0.2413
     42 C         -21.1000    1.6063   27.3504 C.2     1  UNL1       -0.0003
     43 C         -28.9944    2.4731   28.5780 C.3     1  UNL1        0.1374
@<TRIPOS>BOND
     1     1    41    1
     2     2     7    1
     3     2     1    1
     4     3     2    2
     5     4     3    1
     6     4     5    2
     7     5     6    1
     8     6     7    2
     9     8     1    1
    10     8     9    1
    11     8    12    1
    12     9    10    1
    13    10    11    1
    14    12    11    1
    15    14    13    1
    16    14    15    1
    17    15    18    2
    18    16    17    1
    19    16    15    1
    20    19    14    2
    21    20    21    2
    22    20    19    1
    23    21    26    1
    24    22    21    1
    25    23    22    1
    26    24    23    1
    27    24    25    1
    28    26    27    1
    29    26    13    2
    30    28    33    2
    31    28    36    1
    32    29    40   ar
    33    33    42    1
    34    34    31    1
    35    35    30    1
    36    36    13    1
    37    36    37    1
    38    37    31    2
    39    37    41    1
    40    38    41   am
    41    38    35    1
    42    39    38    2
    43    40    32   ar
    44    42    34    2
    45    43    40    1
    46    43    30    1
