@<TRIPOS>MOLECULE
outputs/IAG933/test6/raw/output_7441_IAG933_linker_design_.xyz
 45 48 0 0 0
SMALL
GASTEIGER

@<TRIPOS>ATOM
      1 C         -24.8550   -1.0120   30.1430 C.3     1  UNL1        0.0451
      2 C         -24.9730   -2.5050   29.7880 C.2     1  UNL1       -0.0207
      3 C         -23.9060   -3.1730   29.1460 C.2     1  UNL1       -0.0042
      4 C         -23.9890   -4.5490   28.8530 C.2     1  UNL1       -0.0003
      5 C         -25.1370   -5.2800   29.2050 C.2     1  UNL1       -0.0000
      6 C         -26.2320   -4.6110   29.7840 C.2     1  UNL1       -0.0003
      7 C         -26.1550   -3.2320   30.0650 C.2     1  UNL1       -0.0042
      8 C         -25.3870   -0.6790   31.5710 C.3     1  UNL1        0.0931
      9 C         -25.1890    0.7730   32.0280 C.3     1  UNL1        0.0908
     10 C         -25.3360    0.6840   33.5440 C.3     1  UNL1        0.0376
     11 C         -24.8290   -0.7150   33.9050 C.3     1  UNL1        0.0902
     12 N         -24.7580   -1.4810   32.6460 N.3     1  UNL1       -0.2177
     13 C         -25.6880    1.6140   26.4610 C.3     1  UNL1        0.0861
     14 C         -26.2500    2.9200   26.3950 C.2     1  UNL1        0.0562
     15 C         -25.6420    4.0930   27.1230 C.2     1  UNL1        0.2625
     16 N         -25.6140    5.2520   26.4490 N.am    1  UNL1       -0.2000
     17 C         -25.0260    6.4790   26.9630 C.3     1  UNL1        0.1388
     18 O         -25.1430    3.9660   28.2430 O.2     1  UNL1       -0.2687
     19 C         -27.4380    3.0910   25.6450 C.2     1  UNL1        0.1022
     20 N         -28.0750    2.0890   25.0030 N.2     1  UNL1       -0.2119
     21 C         -27.5430    0.8490   25.0790 C.2     1  UNL1        0.2341
     22 O         -28.1930   -0.2080   24.4770 O.2     1  UNL1       -0.4585
     23 C         -29.4600    0.0050   23.8660 C.3     1  UNL1        0.2423
     24 C         -30.0650   -1.3770   23.5730 C.3     1  UNL1        0.2292
     25 O         -30.7290   -1.8780   24.7210 O.3     1  UNL1       -0.2162
     26 C         -26.3540    0.5760   25.7770 C.3     1  UNL1        0.2413
     27 F         -25.8600   -0.6810   25.7950 F       1  UNL1       -0.2268
     28 C         -26.2503    6.3601   31.6033 C.2     1  UNL1        0.1385
     29 C         -25.4201    4.0597   32.9199 C.2     1  UNL1       -0.0027
     30 F         -21.6696    1.8076   26.5933 F       1  UNL1       -0.1849
     31 C         -26.9713    8.6775   31.6489 C.3     1  UNL1        0.2525
     32 C         -24.3010    1.9523   29.1617 C.3     1  UNL1        0.0743
     33 C         -25.9715    3.9502   31.6267 C.2     1  UNL1       -0.0034
     34 C         -25.6286    2.2759   29.6505 C.3     1  UNL1        0.0392
     35 C         -26.4459    5.1163   31.0098 C.2     1  UNL1        0.0340
     36 O         -26.6510    7.5054   30.8515 O.2     1  UNL1       -0.4714
     37 N         -26.0441    1.5535   31.3949 N.3     1  UNL1       -0.2149
     38 C         -25.6506    6.4544   32.8379 C.2     1  UNL1        0.0369
     39 C         -22.6232    0.5169   28.6202 C.3     1  UNL1        0.1519
     40 C         -24.2355    1.3866   26.6904 C.3     1  UNL1        0.0803
     41 C         -21.5694    1.1603   27.7363 C.2     1  UNL1        0.2351
     42 N         -23.8761    1.0571   28.0440 N.3     1  UNL1       -0.2651
     43 C         -25.9792    2.6994   30.9027 C.3     1  UNL1        0.0964
     44 C         -25.2060    5.3040   33.5046 C.2     1  UNL1        0.0028
     45 N         -20.4394    1.0380   28.0347 N.2     1  UNL1       -0.1191
@<TRIPOS>BOND
     1     2     7    1
     2     2     1    1
     3     3     2    2
     4     4     3    1
     5     4     5    2
     6     5     6    1
     7     6     7    2
     8     8     1    1
     9     8     9    1
    10     8    12    1
    11     9    37    1
    12     9    10    1
    13    10    11    1
    14    12    11    1
    15    13    40    1
    16    14    13    1
    17    14    15    1
    18    15    18    2
    19    16    17    1
    20    16    15    1
    21    19    14    2
    22    20    21    2
    23    20    19    1
    24    21    26    1
    25    22    21    1
    26    23    22    1
    27    24    23    1
    28    24    25    1
    29    26    27    1
    30    26    13    1
    31    28    38    1
    32    29    44    1
    33    30    41    1
    34    32    34    1
    35    33    29    2
    36    35    28    2
    37    35    33    1
    38    36    28    1
    39    36    31    1
    40    38    44    2
    41    40    42    1
    42    41    45    2
    43    41    39    1
    44    42    39    1
    45    42    32    1
    46    43    34    1
    47    43    37    1
    48    43    33    1
