@<TRIPOS>MOLECULE
outputs/IAG933/test6/raw/output_7443_IAG933_linker_design_.xyz
 43 48 0 0 0
SMALL
GASTEIGER

@<TRIPOS>ATOM
      1 C         -24.8550   -1.0120   30.1430 C.3     1  UNL1        0.2039
      2 C         -24.9730   -2.5050   29.7880 C.2     1  UNL1        0.0186
      3 C         -23.9060   -3.1730   29.1460 C.2     1  UNL1       -0.0008
      4 C         -23.9890   -4.5490   28.8530 C.2     1  UNL1       -0.0002
      5 C         -25.1370   -5.2800   29.2050 C.2     1  UNL1       -0.0000
      6 C         -26.2320   -4.6110   29.7840 C.2     1  UNL1       -0.0002
      7 C         -26.1550   -3.2320   30.0650 C.2     1  UNL1       -0.0008
      8 C         -25.3870   -0.6790   31.5710 C.3     1  UNL1        0.1176
      9 C         -25.1890    0.7730   32.0280 C.3     1  UNL1        0.0294
     10 C         -25.3360    0.6840   33.5440 C.3     1  UNL1        0.0210
     11 C         -24.8290   -0.7150   33.9050 C.3     1  UNL1        0.0889
     12 N         -24.7580   -1.4810   32.6460 N.3     1  UNL1       -0.2154
     13 C         -25.6880    1.6140   26.4610 C.2     1  UNL1        0.0441
     14 C         -26.2500    2.9200   26.3950 C.2     1  UNL1        0.0767
     15 C         -25.6420    4.0930   27.1230 C.2     1  UNL1        0.2664
     16 N         -25.6140    5.2520   26.4490 N.am    1  UNL1       -0.1997
     17 C         -25.0260    6.4790   26.9630 C.3     1  UNL1        0.1388
     18 O         -25.1430    3.9660   28.2430 O.2     1  UNL1       -0.2683
     19 C         -27.4380    3.0910   25.6450 C.2     1  UNL1        0.1067
     20 N         -28.0750    2.0890   25.0030 N.2     1  UNL1       -0.2081
     21 C         -27.5430    0.8490   25.0790 C.2     1  UNL1        0.2533
     22 O         -28.1930   -0.2080   24.4770 O.2     1  UNL1       -0.4558
     23 C         -29.4600    0.0050   23.8660 C.3     1  UNL1        0.2426
     24 C         -30.0650   -1.3770   23.5730 C.3     1  UNL1        0.2292
     25 O         -30.7290   -1.8780   24.7210 O.3     1  UNL1       -0.2162
     26 C         -26.3540    0.5760   25.7770 C.2     1  UNL1        0.1932
     27 F         -25.8600   -0.6810   25.7950 F       1  UNL1       -0.1992
     28 C         -25.5881    2.0752   31.5165 C.3     1  UNL1        0.0451
     29 C         -25.7270    4.4201   32.5415 C.2     1  UNL1       -0.0257
     30 C         -21.9680    1.9812   27.0489 C.2     1  UNL1        0.0422
     31 C         -28.5019    4.0303   31.4754 C.2     1  UNL1       -0.0046
     32 O         -25.0939   -0.0479   29.0812 O.2     1  UNL1       -0.4732
     33 C         -22.8196    0.6711   28.8540 C.2     1  UNL1        0.0371
     34 C         -26.7703    5.2294   32.6350 C.3     1  UNL1        0.0517
     35 C         -24.3483    1.4211   27.1114 C.2     1  UNL1        0.0754
     36 C         -28.0087    5.1004   32.1256 C.2     1  UNL1       -0.0214
     37 C         -27.9724    2.9029   31.0914 C.2     1  UNL1       -0.0046
     38 C         -26.6865    2.6907   31.3407 C.2     1  UNL1       -0.0224
     39 C         -24.1075    0.6963   28.3323 C.2     1  UNL1        0.1420
     40 C         -21.7602    1.2924   28.2396 C.2     1  UNL1        0.0064
     41 C         -25.8829    3.2798   31.7852 C.2     1  UNL1       -0.0260
     42 O         -23.4124    2.5597   25.2576 O.2     1  UNL1       -0.2865
     43 C         -23.2353    1.9845   26.4689 C.2     1  UNL1        0.1986
@<TRIPOS>BOND
     1     1    32    1
     2     2     7    1
     3     2     1    1
     4     3     2    2
     5     4     3    1
     6     4     5    2
     7     5     6    1
     8     6     7    2
     9     8     1    1
    10     8     9    1
    11     8    12    1
    12     9    10    1
    13    10    11    1
    14    12    11    1
    15    13    35    1
    16    14    13    1
    17    14    15    1
    18    15    18    2
    19    16    17    1
    20    16    15    1
    21    19    14    2
    22    20    21    2
    23    20    19    1
    24    21    26    1
    25    22    21    1
    26    23    22    1
    27    24    23    1
    28    24    25    1
    29    26    27    1
    30    26    13    2
    31    28    38    1
    32    28    41    1
    33    28     9    1
    34    29    34    1
    35    30    40    1
    36    31    36    2
    37    35    39    2
    38    36    34    1
    39    37    38    2
    40    37    31    1
    41    38    41    1
    42    39    33    1
    43    39    32    1
    44    40    33    2
    45    41    29    2
    46    42    43    1
    47    43    30    2
    48    43    35    1
