@<TRIPOS>MOLECULE
outputs/IAG933/test6/raw/output_7450_IAG933_linker_design_.xyz
 46 50 0 0 0
SMALL
GASTEIGER

@<TRIPOS>ATOM
      1 C         -24.8550   -1.0120   30.1430 C.3     1  UNL1        0.1491
      2 C         -24.9730   -2.5050   29.7880 C.2     1  UNL1        0.0017
      3 C         -23.9060   -3.1730   29.1460 C.2     1  UNL1       -0.0023
      4 C         -23.9890   -4.5490   28.8530 C.2     1  UNL1       -0.0003
      5 C         -25.1370   -5.2800   29.2050 C.2     1  UNL1       -0.0000
      6 C         -26.2320   -4.6110   29.7840 C.2     1  UNL1       -0.0003
      7 C         -26.1550   -3.2320   30.0650 C.2     1  UNL1       -0.0023
      8 C         -25.3870   -0.6790   31.5710 C.3     1  UNL1        0.0998
      9 C         -25.1890    0.7730   32.0280 C.3     1  UNL1        0.0212
     10 C         -25.3360    0.6840   33.5440 C.3     1  UNL1        0.0203
     11 C         -24.8290   -0.7150   33.9050 C.3     1  UNL1        0.0888
     12 N         -24.7580   -1.4810   32.6460 N.3     1  UNL1       -0.2171
     13 C         -25.6880    1.6140   26.4610 C.3     1  UNL1        0.0703
     14 C         -26.2500    2.9200   26.3950 C.2     1  UNL1        0.0526
     15 C         -25.6420    4.0930   27.1230 C.2     1  UNL1        0.2181
     16 N         -25.6140    5.2520   26.4490 N.2     1  UNL1       -0.2359
     17 C         -25.0260    6.4790   26.9630 C.3     1  UNL1        0.1550
     18 O         -25.1430    3.9660   28.2430 O.2     1  UNL1       -0.4556
     19 C         -27.4380    3.0910   25.6450 C.2     1  UNL1        0.1022
     20 N         -28.0750    2.0890   25.0030 N.2     1  UNL1       -0.2119
     21 C         -27.5430    0.8490   25.0790 C.2     1  UNL1        0.2341
     22 O         -28.1930   -0.2080   24.4770 O.2     1  UNL1       -0.4585
     23 C         -29.4600    0.0050   23.8660 C.3     1  UNL1        0.2423
     24 C         -30.0650   -1.3770   23.5730 C.3     1  UNL1        0.2292
     25 O         -30.7290   -1.8780   24.7210 O.3     1  UNL1       -0.2162
     26 C         -26.3540    0.5760   25.7770 C.3     1  UNL1        0.2400
     27 F         -25.8600   -0.6810   25.7950 F       1  UNL1       -0.2269
     28 C         -22.6556   -0.4092   29.7929 C.2     1  UNL1        0.1891
     29 C         -22.9682    1.9611   28.3206 C.3     1  UNL1        0.2218
     30 N         -30.1503    6.0302   28.5164 N.3     1  UNL1       -0.2047
     31 C         -27.6164    4.0216   29.8215 C.2     1  UNL1        0.0009
     32 C         -26.7544    6.2543   29.8432 C.2     1  UNL1        0.0009
     33 C         -29.0377    5.8756   29.2841 C.2     1  UNL1        0.0850
     34 O         -24.0631    1.3613   29.1707 O.3     1  UNL1       -0.2489
     35 C         -24.2456    1.2757   26.2391 C.3     1  UNL1        0.0109
     36 O         -20.5474    1.6559   27.6804 O.2     1  UNL1       -0.2702
     37 O         -30.0067    6.4657   27.3824 O.3     1  UNL1       -0.0841
     38 C         -21.5631    1.2717   28.3651 C.2     1  UNL1        0.2768
     39 C         -26.5537    4.8785   29.8250 C.2     1  UNL1        0.0213
     40 C         -28.8335    4.5668   29.5663 C.2     1  UNL1        0.0190
     41 N         -21.5935    0.2757   29.2322 N.am    1  UNL1       -0.1554
     42 C         -28.0169    6.7594   29.5855 C.2     1  UNL1        0.0190
     43 C         -25.2679    4.2017   29.5782 C.3     1  UNL1        0.2337
     44 N         -23.8519   -0.0475   29.6949 N.3     1  UNL1       -0.2169
     45 C         -23.1143    2.1009   26.8100 C.3     1  UNL1        0.0423
     46 C         -31.3315    5.4497   28.8995 C.3     1  UNL1        0.1621
@<TRIPOS>BOND
     1     1     2    1
     2     2     7    1
     3     3     2    2
     4     4     3    1
     5     4     5    2
     6     5     6    1
     7     6     7    2
     8     8     1    1
     9     8     9    1
    10     8    12    1
    11     9    10    1
    12    10    11    1
    13    12    11    1
    14    13    35    1
    15    14    13    1
    16    14    15    1
    17    15    18    1
    18    16    17    1
    19    16    15    2
    20    18    43    1
    21    19    14    2
    22    20    21    2
    23    20    19    1
    24    21    26    1
    25    22    21    1
    26    23    22    1
    27    24    23    1
    28    24    25    1
    29    26    27    1
    30    26    13    1
    31    29    45    1
    32    29    38    1
    33    29    34    1
    34    30    46    1
    35    30    33    1
    36    31    39    1
    37    33    40    1
    38    33    42    2
    39    34    44    1
    40    35    45    1
    41    36    38    2
    42    37    30    1
    43    38    41    1
    44    39    32    2
    45    40    31    2
    46    41    28    2
    47    42    32    1
    48    43    39    1
    49    44    28    1
    50    44     1    1
