@<TRIPOS>MOLECULE
outputs/IAG933/test6/raw/output_7455_IAG933_linker_design_.xyz
 59 65 0 0 0
SMALL
GASTEIGER

@<TRIPOS>ATOM
      1 C         -24.8550   -1.0120   30.1430 C.3     1  UNL1        0.1334
      2 C         -24.9730   -2.5050   29.7880 C.2     1  UNL1       -0.0012
      3 C         -23.9060   -3.1730   29.1460 C.2     1  UNL1       -0.0026
      4 C         -23.9890   -4.5490   28.8530 C.2     1  UNL1       -0.0003
      5 C         -25.1370   -5.2800   29.2050 C.2     1  UNL1       -0.0000
      6 C         -26.2320   -4.6110   29.7840 C.2     1  UNL1       -0.0003
      7 C         -26.1550   -3.2320   30.0650 C.2     1  UNL1       -0.0026
      8 C         -25.3870   -0.6790   31.5710 C.3     1  UNL1        0.0969
      9 C         -25.1890    0.7730   32.0280 C.3     1  UNL1        0.0210
     10 C         -25.3360    0.6840   33.5440 C.3     1  UNL1        0.0203
     11 C         -24.8290   -0.7150   33.9050 C.3     1  UNL1        0.0888
     12 N         -24.7580   -1.4810   32.6460 N.3     1  UNL1       -0.2174
     13 C         -25.6880    1.6140   26.4610 C.2     1  UNL1        0.0407
     14 C         -26.2500    2.9200   26.3950 C.2     1  UNL1        0.0745
     15 C         -25.6420    4.0930   27.1230 C.2     1  UNL1        0.2240
     16 N         -25.6140    5.2520   26.4490 N.2     1  UNL1       -0.2356
     17 C         -25.0260    6.4790   26.9630 C.3     1  UNL1        0.1550
     18 O         -25.1430    3.9660   28.2430 O.2     1  UNL1       -0.4361
     19 C         -27.4380    3.0910   25.6450 C.2     1  UNL1        0.1068
     20 N         -28.0750    2.0890   25.0030 N.2     1  UNL1       -0.2081
     21 C         -27.5430    0.8490   25.0790 C.2     1  UNL1        0.2533
     22 O         -28.1930   -0.2080   24.4770 O.2     1  UNL1       -0.4558
     23 C         -29.4600    0.0050   23.8660 C.3     1  UNL1        0.2426
     24 C         -30.0650   -1.3770   23.5730 C.3     1  UNL1        0.2292
     25 O         -30.7290   -1.8780   24.7210 O.3     1  UNL1       -0.2162
     26 C         -26.3540    0.5760   25.7770 C.2     1  UNL1        0.1931
     27 F         -25.8600   -0.6810   25.7950 F       1  UNL1       -0.1992
     28 C         -22.4381    1.1365   28.6197 C.3     1  UNL1        0.2242
     29 C         -26.9813    4.1368   30.2184 C.3     1  UNL1        0.0927
     30 O         -24.3614    5.0852   32.2550 O.3     1  UNL1       -0.3535
     31 C         -28.7940    1.4893   30.0181 C.2     1  UNL1       -0.0003
     32 C         -27.8807    2.6201   30.1748 C.2     1  UNL1       -0.0041
     33 C         -29.2260    8.0809   35.2955 C.3     1  UNL1        0.0188
     34 C         -28.9931    4.3312   34.4710 C.3     1  UNL1        0.0014
     35 C         -30.1116    2.9493   28.7471 C.2     1  UNL1       -0.0003
     36 O         -21.1250    1.1529   28.2269 O.3     1  UNL1       -0.3396
     37 O         -22.2871   -0.3238   30.2202 O.2     1  UNL1       -0.2706
     38 C         -27.8934    3.8107   32.2682 C.3     1  UNL1        0.0007
     39 C         -23.2363    2.1356   28.2253 C.3     1  UNL1        0.1766
     40 C         -26.4071    6.1896   33.5120 C.3     1  UNL1        0.0774
     41 C         -25.0801    6.2064   31.8029 C.3     1  UNL1        0.1180
     42 C         -26.5555    5.9984   31.9781 C.3     1  UNL1        0.0439
     43 C         -25.4377    3.5694   29.7514 C.3     1  UNL1        0.2933
     44 C         -28.8422    6.8011   34.3981 C.3     1  UNL1        0.0728
     45 N         -27.7103    6.4269   33.8628 N.3     1  UNL1       -0.2207
     46 C         -20.7037    1.8577   27.0810 C.3     1  UNL1        0.1688
     47 C         -23.0743    0.2124   29.4334 C.2     1  UNL1        0.2717
     48 C         -29.2291    5.7959   34.1510 C.3     1  UNL1        0.0174
     49 C         -29.1067    3.9339   28.8975 C.2     1  UNL1       -0.0041
     50 C         -27.7991    3.8036   33.6080 C.3     1  UNL1        0.0001
     51 C         -22.9573    2.6794   26.9564 C.2     1  UNL1        0.0039
     52 N         -24.3808   -0.0172   29.4538 N.am    1  UNL1       -0.1991
     53 C         -23.5274    5.3046   33.3556 C.3     1  UNL1        0.1740
     54 O         -24.1303    2.6453   29.2610 O.3     1  UNL1       -0.3153
     55 C         -21.7189    2.4683   26.3794 C.2     1  UNL1        0.0036
     56 C         -27.1754    4.5499   31.5327 C.3     1  UNL1        0.0138
     57 C         -27.9710    3.5823   29.6633 C.2     1  UNL1       -0.0164
     58 C         -25.2379    7.1783   33.1167 C.3     1  UNL1        0.0470
     59 C         -29.9279    1.6236   29.2718 C.2     1  UNL1       -0.0000
@<TRIPOS>BOND
     1     1    52    1
     2     2     7    1
     3     2     1    1
     4     3     2    2
     5     4     3    1
     6     4     5    2
     7     5     6    1
     8     6     7    2
     9     8     1    1
    10     8     9    1
    11     8    12    1
    12     9    10    1
    13    10    11    1
    14    12    11    1
    15    14    13    1
    16    14    15    1
    17    15    18    1
    18    16    17    1
    19    16    15    2
    20    18    43    1
    21    19    14    2
    22    20    21    2
    23    20    19    1
    24    21    26    1
    25    22    21    1
    26    23    22    1
    27    24    23    1
    28    24    25    1
    29    26    27    1
    30    26    13    2
    31    28    47    1
    32    29    43    1
    33    29    56    1
    34    30    53    1
    35    31    32    1
    36    35    49    2
    37    35    59    1
    38    36    28    1
    39    38    50    1
    40    39    28    1
    41    39    54    1
    42    40    58    1
    43    40    45    1
    44    41    42    1
    45    41    30    1
    46    41    58    1
    47    42    40    1
    48    44    33    1
    49    45    44    1
    50    46    36    1
    51    47    52    1
    52    47    37    2
    53    48    44    1
    54    48    34    1
    55    49    57    1
    56    50    34    1
    57    51    39    1
    58    54    43    1
    59    55    51    2
    60    55    46    1
    61    56    42    1
    62    56    38    1
    63    57    32    2
    64    57    29    1
    65    59    31    2
