@<TRIPOS>MOLECULE
outputs/IAG933/test6/raw/output_7457_IAG933_linker_design_.xyz
 44 48 0 0 0
SMALL
GASTEIGER

@<TRIPOS>ATOM
      1 C         -24.8550   -1.0120   30.1430 C.3     1  UNL1        0.0488
      2 C         -24.9730   -2.5050   29.7880 C.2     1  UNL1       -0.0203
      3 C         -23.9060   -3.1730   29.1460 C.2     1  UNL1       -0.0042
      4 C         -23.9890   -4.5490   28.8530 C.2     1  UNL1       -0.0003
      5 C         -25.1370   -5.2800   29.2050 C.2     1  UNL1       -0.0000
      6 C         -26.2320   -4.6110   29.7840 C.2     1  UNL1       -0.0003
      7 C         -26.1550   -3.2320   30.0650 C.2     1  UNL1       -0.0042
      8 C         -25.3870   -0.6790   31.5710 C.3     1  UNL1        0.0776
      9 C         -25.1890    0.7730   32.0280 C.3     1  UNL1        0.0192
     10 C         -25.3360    0.6840   33.5440 C.3     1  UNL1        0.0202
     11 C         -24.8290   -0.7150   33.9050 C.3     1  UNL1        0.0887
     12 N         -24.7580   -1.4810   32.6460 N.3     1  UNL1       -0.2191
     13 C         -25.6880    1.6140   26.4610 C.2     1  UNL1        0.0157
     14 C         -26.2500    2.9200   26.3950 C.2     1  UNL1        0.0726
     15 C         -25.6420    4.0930   27.1230 C.2     1  UNL1        0.2661
     16 N         -25.6140    5.2520   26.4490 N.am    1  UNL1       -0.1997
     17 C         -25.0260    6.4790   26.9630 C.3     1  UNL1        0.1388
     18 O         -25.1430    3.9660   28.2430 O.2     1  UNL1       -0.2683
     19 C         -27.4380    3.0910   25.6450 C.2     1  UNL1        0.1064
     20 N         -28.0750    2.0890   25.0030 N.2     1  UNL1       -0.2081
     21 C         -27.5430    0.8490   25.0790 C.2     1  UNL1        0.2530
     22 O         -28.1930   -0.2080   24.4770 O.2     1  UNL1       -0.4558
     23 C         -29.4600    0.0050   23.8660 C.3     1  UNL1        0.2426
     24 C         -30.0650   -1.3770   23.5730 C.3     1  UNL1        0.2292
     25 O         -30.7290   -1.8780   24.7210 O.3     1  UNL1       -0.2162
     26 C         -26.3540    0.5760   25.7770 C.2     1  UNL1        0.1891
     27 F         -25.8600   -0.6810   25.7950 F       1  UNL1       -0.1996
     28 N         -20.9501    1.8307   27.7057 N.3     1  UNL1       -0.1187
     29 C         -24.7049    0.5122   28.8689 C.3     1  UNL1        0.0177
     30 C         -31.6790    1.3005   26.4313 C.3     1  UNL1        0.0035
     31 S         -27.2465   -0.5705   28.8656 S.3     1  UNL1       -0.0577
     32 C         -22.8893    2.8622   24.9554 C.1     1  UNL1       -0.0127
     33 C         -22.5983    2.3222   26.0388 C.1     1  UNL1       -0.0595
     34 C         -25.5972   -0.2003   29.0620 C.3     1  UNL1        0.0619
     35 N         -29.8528    0.6581   28.3888 N.am    1  UNL1       -0.2711
     36 C         -30.3650    2.0076   28.4211 C.3     1  UNL1        0.0942
     37 C         -31.2896    2.4443   27.2922 C.3     1  UNL1        0.0216
     38 C         -22.2664    1.7099   27.2758 C.3     1  UNL1        0.1561
     39 O         -28.5438    0.8191   30.2462 O.2     1  UNL1       -0.2627
     40 C         -28.6255    0.3646   29.1445 C.2     1  UNL1        0.2763
     41 C         -32.1166    0.2016   27.2523 C.3     1  UNL1        0.0216
     42 C         -24.7598    1.3786   27.2126 C.3     1  UNL1        0.0282
     43 C         -30.8614   -0.3751   28.1407 C.3     1  UNL1        0.0942
     44 C         -23.3083    1.1065   28.2665 C.3     1  UNL1        0.0353
@<TRIPOS>BOND
     1     1    34    1
     2     2     7    1
     3     2     1    1
     4     3     2    2
     5     4     3    1
     6     4     5    2
     7     5     6    1
     8     6     7    2
     9     8     1    1
    10     8     9    1
    11     8    12    1
    12     9    10    1
    13    10    11    1
    14    12    11    1
    15    14    13    1
    16    14    15    1
    17    15    18    2
    18    16    17    1
    19    16    15    1
    20    19    14    2
    21    20    21    2
    22    20    19    1
    23    21    26    1
    24    22    21    1
    25    23    22    1
    26    24    23    1
    27    24    25    1
    28    26    27    1
    29    26    13    2
    30    29    34    1
    31    30    41    1
    32    30    37    1
    33    31    40    1
    34    32    33    3
    35    33    38    1
    36    34    31    1
    37    35    36    1
    38    35    40   am
    39    37    36    1
    40    38    28    1
    41    40    39    2
    42    41    43    1
    43    42    13    1
    44    42    44    1
    45    42    29    1
    46    43    35    1
    47    44    38    1
    48    44    29    1
