@<TRIPOS>MOLECULE
outputs/IAG933/test6/raw/output_7458_IAG933_linker_design_.xyz
 41 44 0 0 0
SMALL
GASTEIGER

@<TRIPOS>ATOM
      1 C         -24.8550   -1.0120   30.1430 C.3     1  UNL1        0.0583
      2 C         -24.9730   -2.5050   29.7880 C.2     1  UNL1       -0.0195
      3 C         -23.9060   -3.1730   29.1460 C.2     1  UNL1       -0.0042
      4 C         -23.9890   -4.5490   28.8530 C.2     1  UNL1       -0.0003
      5 C         -25.1370   -5.2800   29.2050 C.2     1  UNL1       -0.0000
      6 C         -26.2320   -4.6110   29.7840 C.2     1  UNL1       -0.0003
      7 C         -26.1550   -3.2320   30.0650 C.2     1  UNL1       -0.0042
      8 C         -25.3870   -0.6790   31.5710 C.3     1  UNL1        0.0785
      9 C         -25.1890    0.7730   32.0280 C.3     1  UNL1        0.0192
     10 C         -25.3360    0.6840   33.5440 C.3     1  UNL1        0.0202
     11 C         -24.8290   -0.7150   33.9050 C.3     1  UNL1        0.0887
     12 N         -24.7580   -1.4810   32.6460 N.3     1  UNL1       -0.2191
     13 C         -25.6880    1.6140   26.4610 C.2     1  UNL1        0.0413
     14 C         -26.2500    2.9200   26.3950 C.2     1  UNL1        0.0766
     15 C         -25.6420    4.0930   27.1230 C.2     1  UNL1        0.2664
     16 N         -25.6140    5.2520   26.4490 N.am    1  UNL1       -0.1997
     17 C         -25.0260    6.4790   26.9630 C.3     1  UNL1        0.1388
     18 O         -25.1430    3.9660   28.2430 O.2     1  UNL1       -0.2683
     19 C         -27.4380    3.0910   25.6450 C.2     1  UNL1        0.1067
     20 N         -28.0750    2.0890   25.0030 N.2     1  UNL1       -0.2081
     21 C         -27.5430    0.8490   25.0790 C.2     1  UNL1        0.2533
     22 O         -28.1930   -0.2080   24.4770 O.2     1  UNL1       -0.4558
     23 C         -29.4600    0.0050   23.8660 C.3     1  UNL1        0.2426
     24 C         -30.0650   -1.3770   23.5730 C.3     1  UNL1        0.2292
     25 O         -30.7290   -1.8780   24.7210 O.3     1  UNL1       -0.2162
     26 C         -26.3540    0.5760   25.7770 C.2     1  UNL1        0.1931
     27 F         -25.8600   -0.6810   25.7950 F       1  UNL1       -0.1992
     28 N         -26.4906   -0.4818   28.5741 N.3     1  UNL1       -0.1825
     29 C         -21.6830    0.9623   28.2339 C.2     1  UNL1        0.0334
     30 C         -27.5536    0.1896   29.3189 C.3     1  UNL1        0.2765
     31 C         -23.2127    1.9263   26.0419 C.2     1  UNL1        0.2218
     32 C         -21.1833    1.7384   27.2671 C.2     1  UNL1        0.0998
     33 C         -24.3269    1.3209   26.9471 C.2     1  UNL1        0.0447
     34 N         -21.8913    2.2782   26.1906 N.2     1  UNL1       -0.2167
     35 C         -22.8744    0.5460   28.8532 C.3     1  UNL1        0.2044
     36 O         -28.8872   -0.1335   28.7373 O.3     1  UNL1       -0.1692
     37 C         -24.2036    0.5428   28.2369 C.2     1  UNL1        0.0118
     38 C         -25.2431   -0.2348   28.8929 C.3     1  UNL1        0.1019
     39 F         -23.5974    2.2886   24.8696 F       1  UNL1       -0.1832
     40 O         -29.3300   -1.3952   29.0284 O.3     1  UNL1       -0.0332
     41 F         -22.4554    0.2869   30.0938 F       1  UNL1       -0.2278
@<TRIPOS>BOND
     1     1    38    1
     2     2     7    1
     3     2     1    1
     4     3     2    2
     5     4     3    1
     6     4     5    2
     7     5     6    1
     8     6     7    2
     9     8     1    1
    10     8     9    1
    11     8    12    1
    12     9    10    1
    13    10    11    1
    14    12    11    1
    15    13    33    1
    16    14    13    1
    17    14    15    1
    18    15    18    2
    19    16    17    1
    20    16    15    1
    21    19    14    2
    22    20    21    2
    23    20    19    1
    24    21    26    1
    25    22    21    1
    26    23    22    1
    27    24    23    1
    28    24    25    1
    29    26    27    1
    30    26    13    2
    31    28    30    1
    32    29    35    1
    33    31    34    2
    34    31    33    1
    35    32    29    2
    36    33    37    2
    37    34    32    1
    38    35    41    1
    39    36    40    1
    40    36    30    1
    41    37    35    1
    42    37    38    1
    43    38    28    1
    44    39    31    1
