@<TRIPOS>MOLECULE
outputs/IAG933/test6/raw/output_746_IAG933_linker_design_.xyz
 44 48 0 0 0
SMALL
GASTEIGER

@<TRIPOS>ATOM
      1 C         -24.8550   -1.0120   30.1430 C.3     1  UNL1        0.1117
      2 C         -24.9730   -2.5050   29.7880 C.2     1  UNL1       -0.0030
      3 C         -23.9060   -3.1730   29.1460 C.2     1  UNL1       -0.0026
      4 C         -23.9890   -4.5490   28.8530 C.2     1  UNL1       -0.0003
      5 C         -25.1370   -5.2800   29.2050 C.2     1  UNL1       -0.0000
      6 C         -26.2320   -4.6110   29.7840 C.2     1  UNL1       -0.0003
      7 C         -26.1550   -3.2320   30.0650 C.2     1  UNL1       -0.0026
      8 C         -25.3870   -0.6790   31.5710 C.3     1  UNL1        0.0950
      9 C         -25.1890    0.7730   32.0280 C.3     1  UNL1        0.0209
     10 C         -25.3360    0.6840   33.5440 C.3     1  UNL1        0.0203
     11 C         -24.8290   -0.7150   33.9050 C.3     1  UNL1        0.0888
     12 N         -24.7580   -1.4810   32.6460 N.3     1  UNL1       -0.2174
     13 C         -25.6880    1.6140   26.4610 C.3     1  UNL1        0.0937
     14 C         -26.2500    2.9200   26.3950 C.2     1  UNL1        0.0589
     15 C         -25.6420    4.0930   27.1230 C.2     1  UNL1        0.2628
     16 N         -25.6140    5.2520   26.4490 N.am    1  UNL1       -0.2000
     17 C         -25.0260    6.4790   26.9630 C.3     1  UNL1        0.1388
     18 O         -25.1430    3.9660   28.2430 O.2     1  UNL1       -0.2686
     19 C         -27.4380    3.0910   25.6450 C.2     1  UNL1        0.1025
     20 N         -28.0750    2.0890   25.0030 N.2     1  UNL1       -0.2118
     21 C         -27.5430    0.8490   25.0790 C.2     1  UNL1        0.2344
     22 O         -28.1930   -0.2080   24.4770 O.2     1  UNL1       -0.4585
     23 C         -29.4600    0.0050   23.8660 C.3     1  UNL1        0.2423
     24 C         -30.0650   -1.3770   23.5730 C.3     1  UNL1        0.2292
     25 O         -30.7290   -1.8780   24.7210 O.3     1  UNL1       -0.2162
     26 C         -26.3540    0.5760   25.7770 C.3     1  UNL1        0.2440
     27 F         -25.8600   -0.6810   25.7950 F       1  UNL1       -0.2265
     28 C         -30.2429    1.4873   29.1649 C.2     1  UNL1        0.0296
     29 N         -25.1930   -0.1840   28.9398 N.pl3   1  UNL1       -0.2973
     30 F         -29.0174    3.4853   29.6129 F       1  UNL1       -0.2042
     31 C         -30.2171    0.1366   28.7646 C.2     1  UNL1        0.0020
     32 C         -27.8120    1.4639   29.3286 C.2     1  UNL1        0.0270
     33 C         -24.3745    1.3692   26.8505 C.2     1  UNL1        0.0021
     34 C         -23.5212    1.9372   25.9477 C.2     1  UNL1       -0.0019
     35 O         -22.5777   -0.1322   29.9379 O.2     1  UNL1       -0.2768
     36 C         -29.0288    2.1545   29.3885 C.2     1  UNL1        0.1399
     37 C         -23.0235    0.3112   28.7465 C.2     1  UNL1        0.2431
     38 C         -27.7932    0.2089   28.7055 C.2     1  UNL1       -0.0002
     39 C         -24.1359    0.5784   28.0560 C.2     1  UNL1        0.0917
     40 C         -22.1994    0.9396   28.0762 C.1     1  UNL1       -0.0588
     41 C         -21.5432    1.5551   27.1359 C.2     1  UNL1        0.0446
     42 C         -26.4513   -0.3398   28.3872 C.3     1  UNL1        0.1181
     43 C         -22.1569    2.1337   26.0658 C.2     1  UNL1        0.0081
     44 C         -29.0063   -0.4984   28.4350 C.2     1  UNL1       -0.0025
@<TRIPOS>BOND
     1     1    29    1
     2     2     7    1
     3     2     1    1
     4     3     2    2
     5     4     3    1
     6     4     5    2
     7     5     6    1
     8     6     7    2
     9     8     1    1
    10     8     9    1
    11     8    12    1
    12     9    10    1
    13    10    11    1
    14    12    11    1
    15    13    33    1
    16    14    13    1
    17    14    15    1
    18    15    18    2
    19    16    17    1
    20    16    15    1
    21    19    14    2
    22    20    21    2
    23    20    19    1
    24    21    26    1
    25    22    21    1
    26    23    22    1
    27    24    23    1
    28    24    25    1
    29    26    27    1
    30    26    13    1
    31    28    36    1
    32    31    28    2
    33    32    36    2
    34    33    39    2
    35    34    43    2
    36    34    33    1
    37    36    30    1
    38    37    35    1
    39    38    32    1
    40    39    37    1
    41    39    29    1
    42    40    37    2
    43    41    40    2
    44    42    38    1
    45    42    29    1
    46    43    41    1
    47    44    38    2
    48    44    31    1
