@<TRIPOS>MOLECULE
outputs/IAG933/test6/raw/output_7467_IAG933_linker_design_.xyz
 47 51 0 0 0
SMALL
GASTEIGER

@<TRIPOS>ATOM
      1 C         -24.8550   -1.0120   30.1430 C.3     1  UNL1        0.1339
      2 C         -24.9730   -2.5050   29.7880 C.2     1  UNL1       -0.0032
      3 C         -23.9060   -3.1730   29.1460 C.2     1  UNL1       -0.0028
      4 C         -23.9890   -4.5490   28.8530 C.2     1  UNL1       -0.0003
      5 C         -25.1370   -5.2800   29.2050 C.2     1  UNL1       -0.0000
      6 C         -26.2320   -4.6110   29.7840 C.2     1  UNL1       -0.0003
      7 C         -26.1550   -3.2320   30.0650 C.2     1  UNL1       -0.0028
      8 C         -25.3870   -0.6790   31.5710 C.3     1  UNL1        0.0949
      9 C         -25.1890    0.7730   32.0280 C.3     1  UNL1        0.0207
     10 C         -25.3360    0.6840   33.5440 C.3     1  UNL1        0.0203
     11 C         -24.8290   -0.7150   33.9050 C.3     1  UNL1        0.0888
     12 N         -24.7580   -1.4810   32.6460 N.3     1  UNL1       -0.2176
     13 C         -25.6880    1.6140   26.4610 C.2     1  UNL1        0.0755
     14 C         -26.2500    2.9200   26.3950 C.2     1  UNL1        0.0774
     15 C         -25.6420    4.0930   27.1230 C.2     1  UNL1        0.2224
     16 N         -25.6140    5.2520   26.4490 N.2     1  UNL1       -0.2356
     17 C         -25.0260    6.4790   26.9630 C.3     1  UNL1        0.1550
     18 O         -25.1430    3.9660   28.2430 O.2     1  UNL1       -0.4554
     19 C         -27.4380    3.0910   25.6450 C.2     1  UNL1        0.1069
     20 N         -28.0750    2.0890   25.0030 N.2     1  UNL1       -0.2081
     21 C         -27.5430    0.8490   25.0790 C.2     1  UNL1        0.2534
     22 O         -28.1930   -0.2080   24.4770 O.2     1  UNL1       -0.4558
     23 C         -29.4600    0.0050   23.8660 C.3     1  UNL1        0.2426
     24 C         -30.0650   -1.3770   23.5730 C.3     1  UNL1        0.2292
     25 O         -30.7290   -1.8780   24.7210 O.3     1  UNL1       -0.2162
     26 C         -26.3540    0.5760   25.7770 C.2     1  UNL1        0.1961
     27 F         -25.8600   -0.6810   25.7950 F       1  UNL1       -0.1991
     28 C         -27.5947    5.3520   30.2486 C.2     1  UNL1        0.0753
     29 O         -21.0844    2.4351   27.5489 O.2     1  UNL1       -0.2859
     30 C         -27.4527    6.6388   29.7291 C.2     1  UNL1        0.3873
     31 O         -28.3634    6.9778   28.8978 O.co2   1  UNL1       -0.2406
     32 C         -27.9144    2.9190   31.5934 C.2     1  UNL1       -0.0005
     33 C         -26.7326    3.1710   30.9168 C.2     1  UNL1       -0.0005
     34 C         -29.8743    6.1007   31.0830 C.3     1  UNL1        0.0312
     35 C         -22.8584   -0.0136   29.3555 C.3     1  UNL1        0.1430
     36 O         -24.8742    0.6025   28.3033 O.2     1  UNL1       -0.3997
     37 C         -22.1666    1.6533   27.6664 C.2     1  UNL1        0.2064
     38 C         -24.4950    1.3052   27.2285 C.2     1  UNL1        0.1812
     39 C         -25.3072    4.6039   29.4969 C.3     1  UNL1        0.2339
     40 C         -21.9610    0.7424   28.7020 C.2     1  UNL1        0.0377
     41 O         -26.5497    7.3959   30.1318 O.co2   1  UNL1       -0.2406
     42 N         -24.2608   -0.0382   29.2363 N.3     1  UNL1       -0.1123
     43 CL        -22.8944    2.3345   25.2715 Cl      1  UNL1       -0.0756
     44 C         -28.7791    5.0874   30.9471 C.2     1  UNL1       -0.0157
     45 C         -28.9399    3.8546   31.5466 C.2     1  UNL1       -0.0041
     46 C         -23.2387    1.7261   26.8683 C.2     1  UNL1        0.1325
     47 C         -26.5866    4.3627   30.1885 C.2     1  UNL1        0.0273
@<TRIPOS>BOND
     1     1     2    1
     2     2     7    1
     3     3     2    2
     4     4     3    1
     5     4     5    2
     6     5     6    1
     7     6     7    2
     8     8     1    1
     9     8     9    1
    10     8    12    1
    11     9    10    1
    12    10    11    1
    13    12    11    1
    14    13    38    1
    15    14    13    1
    16    14    15    1
    17    15    18    1
    18    16    17    1
    19    16    15    2
    20    18    39    1
    21    19    14    2
    22    20    21    2
    23    20    19    1
    24    21    26    1
    25    22    21    1
    26    23    22    1
    27    24    23    1
    28    24    25    1
    29    26    27    1
    30    26    13    2
    31    28    44    1
    32    29    37    1
    33    30    41   ar
    34    30    28    1
    35    31    30   ar
    36    33    32    2
    37    36    42    1
    38    37    40    2
    39    38    36    1
    40    39    47    1
    41    40    35    1
    42    42    35    1
    43    42     1    1
    44    43    46    1
    45    44    34    1
    46    44    45    2
    47    45    32    1
    48    46    38    2
    49    46    37    1
    50    47    28    2
    51    47    33    1
