@<TRIPOS>MOLECULE
outputs/IAG933/test6/raw/output_7471_IAG933_linker_design_.xyz
 48 53 0 0 0
SMALL
GASTEIGER

@<TRIPOS>ATOM
      1 C         -24.8550   -1.0120   30.1430 C.3     1  UNL1        0.0967
      2 C         -24.9730   -2.5050   29.7880 C.2     1  UNL1       -0.0064
      3 C         -23.9060   -3.1730   29.1460 C.2     1  UNL1       -0.0029
      4 C         -23.9890   -4.5490   28.8530 C.2     1  UNL1       -0.0003
      5 C         -25.1370   -5.2800   29.2050 C.2     1  UNL1       -0.0000
      6 C         -26.2320   -4.6110   29.7840 C.2     1  UNL1       -0.0003
      7 C         -26.1550   -3.2320   30.0650 C.2     1  UNL1       -0.0029
      8 C         -25.3870   -0.6790   31.5710 C.3     1  UNL1        0.0916
      9 C         -25.1890    0.7730   32.0280 C.3     1  UNL1        0.0206
     10 C         -25.3360    0.6840   33.5440 C.3     1  UNL1        0.0203
     11 C         -24.8290   -0.7150   33.9050 C.3     1  UNL1        0.0888
     12 N         -24.7580   -1.4810   32.6460 N.3     1  UNL1       -0.2178
     13 C         -25.6880    1.6140   26.4610 C.2     1  UNL1        0.0371
     14 C         -26.2500    2.9200   26.3950 C.2     1  UNL1        0.0763
     15 C         -25.6420    4.0930   27.1230 C.2     1  UNL1        0.2664
     16 N         -25.6140    5.2520   26.4490 N.am    1  UNL1       -0.1997
     17 C         -25.0260    6.4790   26.9630 C.3     1  UNL1        0.1388
     18 O         -25.1430    3.9660   28.2430 O.2     1  UNL1       -0.2683
     19 C         -27.4380    3.0910   25.6450 C.2     1  UNL1        0.1067
     20 N         -28.0750    2.0890   25.0030 N.2     1  UNL1       -0.2081
     21 C         -27.5430    0.8490   25.0790 C.2     1  UNL1        0.2533
     22 O         -28.1930   -0.2080   24.4770 O.2     1  UNL1       -0.4558
     23 C         -29.4600    0.0050   23.8660 C.3     1  UNL1        0.2426
     24 C         -30.0650   -1.3770   23.5730 C.3     1  UNL1        0.2292
     25 O         -30.7290   -1.8780   24.7210 O.3     1  UNL1       -0.2162
     26 C         -26.3540    0.5760   25.7770 C.2     1  UNL1        0.1928
     27 F         -25.8600   -0.6810   25.7950 F       1  UNL1       -0.1992
     28 C         -22.9377    0.6266   28.5282 C.2     1  UNL1        0.1648
     29 C         -29.4537    3.7230   31.9955 C.3     1  UNL1        0.0601
     30 F         -21.0753    1.8789   27.6710 F       1  UNL1       -0.2007
     31 O         -29.5934    5.6744   29.0235 O.3     1  UNL1       -0.3521
     32 F         -22.3125   -0.1123   29.4391 F       1  UNL1       -0.2047
     33 C         -24.2351    0.5948   28.3702 C.3     1  UNL1        0.1350
     34 C         -28.0519    0.4681   28.7344 C.3     1  UNL1        0.0188
     35 C         -30.0610    4.7987   31.3997 C.3     1  UNL1        0.0469
     36 C         -30.0100    5.3091   27.6761 C.3     1  UNL1        0.1741
     37 N         -25.2362   -0.0606   29.1274 N.3     1  UNL1       -0.2626
     38 C         -24.4832    1.4674   27.1225 C.2     1  UNL1        0.0203
     39 N         -28.9197    2.8475   30.9206 N.3     1  UNL1       -0.2718
     40 C         -22.4199    1.5748   27.6590 C.2     1  UNL1        0.1812
     41 C         -29.2206    3.3717   29.7346 C.3     1  UNL1        0.1020
     42 C         -28.6587    3.8637   33.3122 C.3     1  UNL1        0.0174
     43 N         -23.1788    3.0356   25.7419 N.pl3   1  UNL1       -0.1259
     44 C         -29.6352    4.6348   30.0235 C.3     1  UNL1        0.1326
     45 C         -23.2612    2.0442   26.9078 C.2     1  UNL1        0.1161
     46 C         -28.1729    1.5953   30.9485 C.3     1  UNL1        0.0735
     47 C         -26.6790    0.3080   29.0539 C.3     1  UNL1        0.0598
     48 C         -27.3138    1.5231   29.6031 C.3     1  UNL1        0.0320
@<TRIPOS>BOND
     1     1    37    1
     2     2     7    1
     3     2     1    1
     4     3     2    2
     5     4     3    1
     6     4     5    2
     7     5     6    1
     8     6     7    2
     9     8     1    1
    10     8     9    1
    11     8    12    1
    12     9    10    1
    13    10    11    1
    14    12    11    1
    15    13    38    1
    16    14    13    1
    17    14    15    1
    18    15    18    2
    19    16    17    1
    20    16    15    1
    21    19    14    2
    22    20    21    2
    23    20    19    1
    24    21    26    1
    25    22    21    1
    26    23    22    1
    27    24    23    1
    28    24    25    1
    29    26    27    1
    30    26    13    2
    31    28    32    1
    32    29    42    1
    33    33    28    1
    34    33    37    1
    35    34    47    1
    36    34    48    1
    37    35    29    1
    38    36    31    1
    39    38    33    1
    40    39    46    1
    41    39    29    1
    42    40    30    1
    43    40    28    2
    44    41    44    1
    45    41    39    1
    46    43    45    1
    47    44    31    1
    48    44    35    1
    49    45    38    2
    50    45    40    1
    51    47    37    1
    52    47    48    1
    53    48    46    1
