@<TRIPOS>MOLECULE
outputs/IAG933/test6/raw/output_7475_IAG933_linker_design_.xyz
 45 49 0 0 0
SMALL
GASTEIGER

@<TRIPOS>ATOM
      1 C         -24.8550   -1.0120   30.1430 C.3     1  UNL1        0.1113
      2 C         -24.9730   -2.5050   29.7880 C.2     1  UNL1       -0.0030
      3 C         -23.9060   -3.1730   29.1460 C.2     1  UNL1       -0.0026
      4 C         -23.9890   -4.5490   28.8530 C.2     1  UNL1       -0.0003
      5 C         -25.1370   -5.2800   29.2050 C.2     1  UNL1       -0.0000
      6 C         -26.2320   -4.6110   29.7840 C.2     1  UNL1       -0.0003
      7 C         -26.1550   -3.2320   30.0650 C.2     1  UNL1       -0.0026
      8 C         -25.3870   -0.6790   31.5710 C.3     1  UNL1        0.0950
      9 C         -25.1890    0.7730   32.0280 C.3     1  UNL1        0.0209
     10 C         -25.3360    0.6840   33.5440 C.3     1  UNL1        0.0203
     11 C         -24.8290   -0.7150   33.9050 C.3     1  UNL1        0.0888
     12 N         -24.7580   -1.4810   32.6460 N.3     1  UNL1       -0.2174
     13 C         -25.6880    1.6140   26.4610 C.3     1  UNL1        0.0936
     14 C         -26.2500    2.9200   26.3950 C.2     1  UNL1        0.0589
     15 C         -25.6420    4.0930   27.1230 C.2     1  UNL1        0.2628
     16 N         -25.6140    5.2520   26.4490 N.am    1  UNL1       -0.2000
     17 C         -25.0260    6.4790   26.9630 C.3     1  UNL1        0.1388
     18 O         -25.1430    3.9660   28.2430 O.2     1  UNL1       -0.2686
     19 C         -27.4380    3.0910   25.6450 C.2     1  UNL1        0.1025
     20 N         -28.0750    2.0890   25.0030 N.2     1  UNL1       -0.2118
     21 C         -27.5430    0.8490   25.0790 C.2     1  UNL1        0.2344
     22 O         -28.1930   -0.2080   24.4770 O.2     1  UNL1       -0.4585
     23 C         -29.4600    0.0050   23.8660 C.3     1  UNL1        0.2423
     24 C         -30.0650   -1.3770   23.5730 C.3     1  UNL1        0.2292
     25 O         -30.7290   -1.8780   24.7210 O.3     1  UNL1       -0.2162
     26 C         -26.3540    0.5760   25.7770 C.3     1  UNL1        0.2440
     27 F         -25.8600   -0.6810   25.7950 F       1  UNL1       -0.2265
     28 C         -21.5643    1.5124   27.6576 C.2     1  UNL1        0.0309
     29 C         -28.3996    2.3231   30.2080 C.3     1  UNL1        0.0912
     30 C         -28.1823    5.8527   28.7703 C.2     1  UNL1       -0.0047
     31 C         -28.5050    4.4600   28.8683 C.3     1  UNL1        0.1175
     32 C         -22.5453    0.8669   28.4494 C.2     1  UNL1        0.1530
     33 C         -23.9143    0.7432   28.0649 C.2     1  UNL1        0.0722
     34 C         -26.2346    0.3140   28.6783 C.3     1  UNL1        0.0912
     35 C         -23.2383    1.9672   25.9630 C.2     1  UNL1       -0.0025
     36 C         -24.2560    1.3947   26.8281 C.2     1  UNL1        0.0005
     37 C         -26.8982    4.1833   30.6901 C.2     1  UNL1        0.0616
     38 N         -24.8838   -0.0177   28.8857 N.pl3   1  UNL1       -0.3026
     39 C         -27.5035   -0.0757   28.6744 C.3     1  UNL1        0.0232
     40 C         -26.5755    5.5741   30.6157 C.2     1  UNL1        0.0155
     41 C         -28.4768    1.1022   29.1629 C.3     1  UNL1        0.0232
     42 C         -27.2280    6.3789   29.6698 C.2     1  UNL1       -0.0016
     43 N         -27.8959    3.6953   29.9019 N.pl3   1  UNL1       -0.3026
     44 C         -21.9112    2.0559   26.3936 C.2     1  UNL1        0.0021
     45 F         -22.1920    0.2778   29.6366 F       1  UNL1       -0.2029
@<TRIPOS>BOND
     1     1    38    1
     2     2     7    1
     3     2     1    1
     4     3     2    2
     5     4     3    1
     6     4     5    2
     7     5     6    1
     8     6     7    2
     9     8     1    1
    10     8     9    1
    11     8    12    1
    12     9    10    1
    13    10    11    1
    14    12    11    1
    15    13    36    1
    16    14    13    1
    17    14    15    1
    18    15    18    2
    19    16    17    1
    20    16    15    1
    21    19    14    2
    22    20    21    2
    23    20    19    1
    24    21    26    1
    25    22    21    1
    26    23    22    1
    27    24    23    1
    28    24    25    1
    29    26    27    1
    30    26    13    1
    31    28    32    1
    32    30    31    1
    33    30    42    2
    34    31    43    1
    35    32    45    1
    36    33    32    2
    37    33    38    1
    38    34    38    1
    39    35    44    1
    40    35    36    2
    41    36    33    1
    42    39    34    1
    43    39    41    1
    44    40    37    2
    45    41    29    1
    46    42    40    1
    47    43    29    1
    48    43    37    1
    49    44    28    2
