@<TRIPOS>MOLECULE
outputs/IAG933/test6/raw/output_7477_IAG933_linker_design_.xyz
 41 44 0 0 0
SMALL
GASTEIGER

@<TRIPOS>ATOM
      1 C         -24.8550   -1.0120   30.1430 C.3     1  UNL1        0.1417
      2 C         -24.9730   -2.5050   29.7880 C.2     1  UNL1       -0.0006
      3 C         -23.9060   -3.1730   29.1460 C.2     1  UNL1       -0.0026
      4 C         -23.9890   -4.5490   28.8530 C.2     1  UNL1       -0.0003
      5 C         -25.1370   -5.2800   29.2050 C.2     1  UNL1       -0.0000
      6 C         -26.2320   -4.6110   29.7840 C.2     1  UNL1       -0.0003
      7 C         -26.1550   -3.2320   30.0650 C.2     1  UNL1       -0.0026
      8 C         -25.3870   -0.6790   31.5710 C.3     1  UNL1        0.0975
      9 C         -25.1890    0.7730   32.0280 C.3     1  UNL1        0.0210
     10 C         -25.3360    0.6840   33.5440 C.3     1  UNL1        0.0203
     11 C         -24.8290   -0.7150   33.9050 C.3     1  UNL1        0.0888
     12 N         -24.7580   -1.4810   32.6460 N.3     1  UNL1       -0.2174
     13 C         -25.6880    1.6140   26.4610 C.3     1  UNL1        0.0798
     14 C         -26.2500    2.9200   26.3950 C.2     1  UNL1        0.0553
     15 C         -25.6420    4.0930   27.1230 C.2     1  UNL1        0.2625
     16 N         -25.6140    5.2520   26.4490 N.am    1  UNL1       -0.2000
     17 C         -25.0260    6.4790   26.9630 C.3     1  UNL1        0.1388
     18 O         -25.1430    3.9660   28.2430 O.2     1  UNL1       -0.2687
     19 C         -27.4380    3.0910   25.6450 C.2     1  UNL1        0.1022
     20 N         -28.0750    2.0890   25.0030 N.2     1  UNL1       -0.2119
     21 C         -27.5430    0.8490   25.0790 C.2     1  UNL1        0.2341
     22 O         -28.1930   -0.2080   24.4770 O.2     1  UNL1       -0.4585
     23 C         -29.4600    0.0050   23.8660 C.3     1  UNL1        0.2423
     24 C         -30.0650   -1.3770   23.5730 C.3     1  UNL1        0.2292
     25 O         -30.7290   -1.8780   24.7210 O.3     1  UNL1       -0.2162
     26 C         -26.3540    0.5760   25.7770 C.3     1  UNL1        0.2405
     27 F         -25.8600   -0.6810   25.7950 F       1  UNL1       -0.2269
     28 C         -23.3924    1.2563   27.3608 C.3     1  UNL1        0.1615
     29 O         -23.5991    2.0657   25.1143 O.2     1  UNL1       -0.2492
     30 C         -22.2771    0.9996   28.2040 C.2     1  UNL1        0.1659
     31 O         -26.4218   -0.6811   28.3203 O.3     1  UNL1       -0.2263
     32 C         -22.9599    1.7605   26.1460 C.2     1  UNL1        0.3282
     33 C         -24.9836    1.1730   29.0422 C.2     1  UNL1        0.2490
     34 O         -21.5367    2.0399   26.2421 O.3     1  UNL1       -0.4186
     35 C         -27.5084   -0.1686   28.6547 C.3     1  UNL1        0.3512
     36 N         -25.3266   -0.0566   29.0711 N.am    1  UNL1       -0.1616
     37 O         -24.6675    2.0082   29.8717 O.2     1  UNL1       -0.2728
     38 C         -24.7743    1.3788   27.5803 C.3     1  UNL1        0.1032
     39 O         -28.3510    0.4459   28.9414 O.3     1  UNL1       -0.1819
     40 C         -21.1448    1.5904   27.6058 C.2     1  UNL1        0.2083
     41 F         -22.2009    0.1742   29.4332 F       1  UNL1       -0.2050
@<TRIPOS>BOND
     1     1    36    1
     2     2     7    1
     3     2     1    1
     4     3     2    2
     5     4     3    1
     6     4     5    2
     7     5     6    1
     8     6     7    2
     9     8     1    1
    10     8     9    1
    11     8    12    1
    12     9    10    1
    13    10    11    1
    14    12    11    1
    15    13    38    1
    16    14    13    1
    17    14    15    1
    18    15    18    2
    19    16    17    1
    20    16    15    1
    21    19    14    2
    22    20    21    2
    23    20    19    1
    24    21    26    1
    25    22    21    1
    26    23    22    1
    27    24    23    1
    28    24    25    1
    29    26    27    1
    30    26    13    1
    31    28    38    1
    32    28    30    1
    33    29    32    2
    34    30    41    1
    35    31    35    1
    36    31    36    1
    37    32    34    1
    38    32    28    1
    39    33    36   am
    40    33    37    2
    41    34    40    1
    42    35    39    1
    43    38    33    1
    44    40    30    2
