@<TRIPOS>MOLECULE
outputs/IAG933/test6/raw/output_7478_IAG933_linker_design_.xyz
 42 45 0 0 0
SMALL
GASTEIGER

@<TRIPOS>ATOM
      1 C         -24.8550   -1.0120   30.1430 C.3     1  UNL1        0.0672
      2 C         -24.9730   -2.5050   29.7880 C.2     1  UNL1       -0.0187
      3 C         -23.9060   -3.1730   29.1460 C.2     1  UNL1       -0.0042
      4 C         -23.9890   -4.5490   28.8530 C.2     1  UNL1       -0.0003
      5 C         -25.1370   -5.2800   29.2050 C.2     1  UNL1       -0.0000
      6 C         -26.2320   -4.6110   29.7840 C.2     1  UNL1       -0.0003
      7 C         -26.1550   -3.2320   30.0650 C.2     1  UNL1       -0.0042
      8 C         -25.3870   -0.6790   31.5710 C.3     1  UNL1        0.0792
      9 C         -25.1890    0.7730   32.0280 C.3     1  UNL1        0.0193
     10 C         -25.3360    0.6840   33.5440 C.3     1  UNL1        0.0202
     11 C         -24.8290   -0.7150   33.9050 C.3     1  UNL1        0.0887
     12 N         -24.7580   -1.4810   32.6460 N.3     1  UNL1       -0.2190
     13 C         -25.6880    1.6140   26.4610 C.2     1  UNL1        0.0872
     14 C         -26.2500    2.9200   26.3950 C.2     1  UNL1        0.0899
     15 C         -25.6420    4.0930   27.1230 C.2     1  UNL1        0.2676
     16 N         -25.6140    5.2520   26.4490 N.am    1  UNL1       -0.1997
     17 C         -25.0260    6.4790   26.9630 C.3     1  UNL1        0.1388
     18 O         -25.1430    3.9660   28.2430 O.2     1  UNL1       -0.2683
     19 C         -27.4380    3.0910   25.6450 C.2     1  UNL1        0.1080
     20 N         -28.0750    2.0890   25.0030 N.2     1  UNL1       -0.2080
     21 C         -27.5430    0.8490   25.0790 C.2     1  UNL1        0.2546
     22 O         -28.1930   -0.2080   24.4770 O.2     1  UNL1       -0.4558
     23 C         -29.4600    0.0050   23.8660 C.3     1  UNL1        0.2426
     24 C         -30.0650   -1.3770   23.5730 C.3     1  UNL1        0.2292
     25 O         -30.7290   -1.8780   24.7210 O.3     1  UNL1       -0.2162
     26 C         -26.3540    0.5760   25.7770 C.2     1  UNL1        0.2063
     27 F         -25.8600   -0.6810   25.7950 F       1  UNL1       -0.1979
     28 C         -28.2727   -0.1267   29.3713 C.3     1  UNL1        0.1427
     29 C         -24.3323    0.4272   28.1932 C.3     1  UNL1        0.1189
     30 O         -30.8445   -1.6287   29.3257 O.co2   1  UNL1       -0.2457
     31 N         -22.2490   -0.3894   29.6063 N.3     1  UNL1       -0.1310
     32 C         -30.0234   -0.1507   27.6218 C.3     1  UNL1        0.1166
     33 CL        -22.8328    2.5360   25.1411 Cl      1  UNL1       -0.0928
     34 C         -25.4909   -0.0418   29.0884 C.3     1  UNL1        0.1399
     35 O         -26.9333    0.0184   28.6126 O.3     1  UNL1       -0.3541
     36 C         -22.8022    0.0943   28.3165 C.3     1  UNL1        0.1152
     37 C         -23.1844    1.7819   26.6663 C.3     1  UNL1        0.1554
     38 O         -32.0913   -1.3868   27.5893 O.co2   1  UNL1       -0.2457
     39 C         -29.4153    0.7150   28.7796 C.3     1  UNL1        0.0439
     40 C         -31.0616   -1.0918   28.2158 C.2     1  UNL1        0.3649
     41 N         -24.4577    1.2739   27.1784 N.pl3   1  UNL1       -0.2919
     42 C         -22.0331    1.1998   27.6007 C.3     1  UNL1        0.0575
@<TRIPOS>BOND
     1     1    34    1
     2     2     7    1
     3     2     1    1
     4     3     2    2
     5     4     3    1
     6     4     5    2
     7     5     6    1
     8     6     7    2
     9     8     1    1
    10     8     9    1
    11     8    12    1
    12     9    10    1
    13    10    11    1
    14    12    11    1
    15    13    41    1
    16    14    13    1
    17    14    15    1
    18    15    18    2
    19    16    17    1
    20    16    15    1
    21    19    14    2
    22    20    21    2
    23    20    19    1
    24    21    26    1
    25    22    21    1
    26    23    22    1
    27    24    23    1
    28    24    25    1
    29    26    27    1
    30    26    13    2
    31    29    36    1
    32    29    34    1
    33    32    40    1
    34    32    39    1
    35    34    35    1
    36    35    28    1
    37    36    31    1
    38    37    33    1
    39    37    41    1
    40    37    42    1
    41    38    40   ar
    42    39    28    1
    43    40    30   ar
    44    41    29    1
    45    42    36    1
