@<TRIPOS>MOLECULE
outputs/IAG933/test6/raw/output_7483_IAG933_linker_design_.xyz
 59 63 0 0 0
SMALL
GASTEIGER

@<TRIPOS>ATOM
      1 C         -24.8550   -1.0120   30.1430 C.3     1  UNL1        0.0737
      2 C         -24.9730   -2.5050   29.7880 C.2     1  UNL1       -0.0158
      3 C         -23.9060   -3.1730   29.1460 C.2     1  UNL1       -0.0039
      4 C         -23.9890   -4.5490   28.8530 C.2     1  UNL1       -0.0003
      5 C         -25.1370   -5.2800   29.2050 C.2     1  UNL1       -0.0000
      6 C         -26.2320   -4.6110   29.7840 C.2     1  UNL1       -0.0003
      7 C         -26.1550   -3.2320   30.0650 C.2     1  UNL1       -0.0039
      8 C         -25.3870   -0.6790   31.5710 C.3     1  UNL1        0.0821
      9 C         -25.1890    0.7730   32.0280 C.3     1  UNL1        0.0196
     10 C         -25.3360    0.6840   33.5440 C.3     1  UNL1        0.0203
     11 C         -24.8290   -0.7150   33.9050 C.3     1  UNL1        0.0887
     12 N         -24.7580   -1.4810   32.6460 N.3     1  UNL1       -0.2188
     13 C         -25.6880    1.6140   26.4610 C.3     1  UNL1        0.0898
     14 C         -26.2500    2.9200   26.3950 C.2     1  UNL1        0.0565
     15 C         -25.6420    4.0930   27.1230 C.2     1  UNL1        0.2625
     16 N         -25.6140    5.2520   26.4490 N.am    1  UNL1       -0.2000
     17 C         -25.0260    6.4790   26.9630 C.3     1  UNL1        0.1388
     18 O         -25.1430    3.9660   28.2430 O.2     1  UNL1       -0.2687
     19 C         -27.4380    3.0910   25.6450 C.2     1  UNL1        0.1022
     20 N         -28.0750    2.0890   25.0030 N.2     1  UNL1       -0.2119
     21 C         -27.5430    0.8490   25.0790 C.2     1  UNL1        0.2341
     22 O         -28.1930   -0.2080   24.4770 O.2     1  UNL1       -0.4585
     23 C         -29.4600    0.0050   23.8660 C.3     1  UNL1        0.2423
     24 C         -30.0650   -1.3770   23.5730 C.3     1  UNL1        0.2292
     25 O         -30.7290   -1.8780   24.7210 O.3     1  UNL1       -0.2162
     26 C         -26.3540    0.5760   25.7770 C.3     1  UNL1        0.2417
     27 F         -25.8600   -0.6810   25.7950 F       1  UNL1       -0.2268
     28 C         -24.2918    1.4127   26.8984 C.3     1  UNL1        0.0982
     29 C         -30.6355    2.1574   32.5730 C.3     1  UNL1        0.2002
     30 O         -29.2110   -1.1517   29.0091 O.2     1  UNL1       -0.2927
     31 C         -32.6884    1.0059   32.2695 C.2     1  UNL1        0.1218
     32 C         -35.1947    2.6130   34.9298 C.3     1  UNL1        0.0816
     33 C         -29.2220    0.4104   32.3246 C.2     1  UNL1        0.0013
     34 C         -27.8502   -0.4553   30.1182 C.3     1  UNL1        0.1046
     35 C         -32.9780    3.4999   33.5793 C.3     1  UNL1        0.0953
     36 C         -28.3959   -0.5524   31.6724 C.2     1  UNL1       -0.0167
     37 C         -29.7087    1.6618   31.7898 C.3     1  UNL1        0.1661
     38 C         -30.6707    2.8707   33.7797 C.2     1  UNL1        0.2493
     39 C         -28.8727   -0.2224   29.5314 C.2     1  UNL1        0.1881
     40 C         -33.9830    0.8717   32.7641 C.1     1  UNL1       -0.0865
     41 N         -24.2117    0.6199   28.2086 N.pl3   1  UNL1       -0.3102
     42 C         -34.1775    3.3885   34.1404 C.3     1  UNL1        0.0307
     43 O         -36.0402    4.0895   36.4754 O.2     1  UNL1       -0.2960
     44 C         -31.3989    5.0537   34.1715 C.3     1  UNL1        0.2050
     45 C         -35.9007    1.6745   34.3671 C.3     1  UNL1        0.1282
     46 O         -29.8047    2.1099   30.4294 O.3     1  UNL1       -0.3417
     47 N         -31.6433    3.7101   33.8304 N.am    1  UNL1       -0.2616
     48 O         -29.9504    2.5919   34.8017 O.2     1  UNL1       -0.2729
     49 C         -35.0197    2.2169   37.6654 C.3     1  UNL1        0.0723
     50 N         -31.8654    1.9758   31.9185 N.pl3   1  UNL1       -0.2177
     51 C         -22.8650    0.2932   28.6472 C.3     1  UNL1        0.0906
     52 N         -30.3073    5.6024   33.3629 N.3     1  UNL1       -0.1072
     53 N         -37.2695    1.5449   34.7675 N.3     1  UNL1       -0.1270
     54 C         -35.5353    3.0238   36.4377 C.2     1  UNL1        0.1525
     55 C         -26.6849    0.1296   29.0591 C.2     1  UNL1       -0.0042
     56 C         -21.9063    1.1478   27.8989 C.3     1  UNL1        0.0232
     57 C         -29.6084    1.0955   29.6368 C.3     1  UNL1        0.2071
     58 C         -35.1516    0.8998   33.3224 C.2     1  UNL1        0.0357
     59 C         -25.2473   -0.1096   28.9272 C.2     1  UNL1        0.0264
@<TRIPOS>BOND
     1     1    59    1
     2     2     7    1
     3     2     1    1
     4     3     2    2
     5     4     3    1
     6     4     5    2
     7     5     6    1
     8     6     7    2
     9     8     1    1
    10     8     9    1
    11     8    12    1
    12     9    10    1
    13    10    11    1
    14    12    11    1
    15    13    28    1
    16    14    13    1
    17    14    15    1
    18    15    18    2
    19    16    17    1
    20    16    15    1
    21    19    14    2
    22    20    21    2
    23    20    19    1
    24    21    26    1
    25    22    21    1
    26    23    22    1
    27    24    23    1
    28    24    25    1
    29    26    27    1
    30    26    13    1
    31    28    41    1
    32    29    50    1
    33    29    38    1
    34    30    39    2
    35    31    40    2
    36    32    54    1
    37    34    55    1
    38    34    36    1
    39    35    47    1
    40    35    42    1
    41    36    33    2
    42    37    33    1
    43    37    29    1
    44    38    47   am
    45    38    48    2
    46    39    57    1
    47    39    34    1
    48    40    58    2
    49    41    51    1
    50    41    59    1
    51    42    32    1
    52    45    53    1
    53    45    32    1
    54    46    37    1
    55    47    44    1
    56    50    31    1
    57    52    44    1
    58    54    43    2
    59    54    49    1
    60    56    51    1
    61    57    46    1
    62    58    45    1
    63    59    55    2
