@<TRIPOS>MOLECULE
outputs/IAG933/test6/raw/output_7488_IAG933_linker_design_.xyz
 50 55 0 0 0
SMALL
GASTEIGER

@<TRIPOS>ATOM
      1 C         -24.8550   -1.0120   30.1430 C.3     1  UNL1        0.0437
      2 C         -24.9730   -2.5050   29.7880 C.2     1  UNL1       -0.0208
      3 C         -23.9060   -3.1730   29.1460 C.2     1  UNL1       -0.0042
      4 C         -23.9890   -4.5490   28.8530 C.2     1  UNL1       -0.0003
      5 C         -25.1370   -5.2800   29.2050 C.2     1  UNL1       -0.0000
      6 C         -26.2320   -4.6110   29.7840 C.2     1  UNL1       -0.0003
      7 C         -26.1550   -3.2320   30.0650 C.2     1  UNL1       -0.0042
      8 C         -25.3870   -0.6790   31.5710 C.3     1  UNL1        0.0771
      9 C         -25.1890    0.7730   32.0280 C.3     1  UNL1        0.0179
     10 C         -25.3360    0.6840   33.5440 C.3     1  UNL1        0.0202
     11 C         -24.8290   -0.7150   33.9050 C.3     1  UNL1        0.0887
     12 N         -24.7580   -1.4810   32.6460 N.3     1  UNL1       -0.2191
     13 C         -25.6880    1.6140   26.4610 C.2     1  UNL1        0.0407
     14 C         -26.2500    2.9200   26.3950 C.2     1  UNL1        0.0744
     15 C         -25.6420    4.0930   27.1230 C.2     1  UNL1        0.2218
     16 N         -25.6140    5.2520   26.4490 N.2     1  UNL1       -0.2357
     17 C         -25.0260    6.4790   26.9630 C.3     1  UNL1        0.1550
     18 O         -25.1430    3.9660   28.2430 O.2     1  UNL1       -0.4641
     19 C         -27.4380    3.0910   25.6450 C.2     1  UNL1        0.1068
     20 N         -28.0750    2.0890   25.0030 N.2     1  UNL1       -0.2081
     21 C         -27.5430    0.8490   25.0790 C.2     1  UNL1        0.2533
     22 O         -28.1930   -0.2080   24.4770 O.2     1  UNL1       -0.4558
     23 C         -29.4600    0.0050   23.8660 C.3     1  UNL1        0.2426
     24 C         -30.0650   -1.3770   23.5730 C.3     1  UNL1        0.2292
     25 O         -30.7290   -1.8780   24.7210 O.3     1  UNL1       -0.2162
     26 C         -26.3540    0.5760   25.7770 C.2     1  UNL1        0.1931
     27 F         -25.8600   -0.6810   25.7950 F       1  UNL1       -0.1992
     28 C         -24.3420    2.1184   29.8321 C.3     1  UNL1        0.0495
     29 O         -21.3652    1.9583   27.5890 O.2     1  UNL1       -0.3167
     30 N         -28.5361    4.3723   30.7148 N.pl3   1  UNL1       -0.2566
     31 N         -27.6646    2.3800   31.9985 N.3     1  UNL1       -0.1005
     32 N         -21.9443    0.1167   28.7523 N.2     1  UNL1       -0.2029
     33 C         -24.2888    1.8577   31.4476 C.3     1  UNL1        0.0055
     34 N         -26.4419    6.0557   33.1740 N.3     1  UNL1       -0.1454
     35 C         -28.4552    2.9855   31.0938 C.3     1  UNL1        0.2472
     36 C         -20.6215    0.0180   28.3706 C.3     1  UNL1        0.3241
     37 C         -29.5710    2.3826   30.4707 C.2     1  UNL1        0.2836
     38 C         -29.7316    4.6326   30.0817 C.2     1  UNL1        0.1556
     39 N         -30.4240    3.4445   29.8450 N.am    1  UNL1       -0.1591
     40 C         -25.1938    5.7815   33.7662 C.3     1  UNL1        0.1093
     41 C         -27.4419    5.4396   31.0055 C.3     1  UNL1        0.1867
     42 C         -25.4348    3.1884   29.3460 C.3     1  UNL1        0.1693
     43 C         -23.5115    2.0837   28.6196 C.3     1  UNL1        0.0920
     44 O         -20.3030    1.1179   27.6939 O.3     1  UNL1       -0.1439
     45 C         -25.3996    4.4857   31.8928 C.3     1  UNL1        0.0810
     46 N         -26.5380    4.8986   32.0296 N.3     1  UNL1       -0.1856
     47 C         -22.3653    1.3293   28.2784 C.2     1  UNL1        0.2408
     48 O         -29.6841    0.9752   30.6140 O.2     1  UNL1       -0.2695
     49 C         -24.4378    4.9692   32.8995 C.3     1  UNL1        0.0381
     50 C         -25.4843    4.0995   30.6961 C.3     1  UNL1        0.0611
@<TRIPOS>BOND
     1     2     7    1
     2     2     1    1
     3     3     2    2
     4     4     3    1
     5     4     5    2
     6     5     6    1
     7     6     7    2
     8     8     1    1
     9     8     9    1
    10     8    12    1
    11     9    33    1
    12     9    10    1
    13    10    11    1
    14    12    11    1
    15    14    13    1
    16    14    15    1
    17    15    18    1
    18    16    17    1
    19    16    15    2
    20    18    42    1
    21    19    14    2
    22    20    21    2
    23    20    19    1
    24    21    26    1
    25    22    21    1
    26    23    22    1
    27    24    23    1
    28    24    25    1
    29    26    27    1
    30    26    13    2
    31    28    43    1
    32    28    33    1
    33    29    44    1
    34    29    47    1
    35    30    41    1
    36    30    35    1
    37    34    40    1
    38    35    31    1
    39    36    32    1
    40    37    48    2
    41    37    35    1
    42    38    30    1
    43    39    38    2
    44    39    37    1
    45    41    46    1
    46    42    28    1
    47    42    50    1
    48    44    36    1
    49    45    50    1
    50    45    46    1
    51    45    49    1
    52    46    34    1
    53    47    43    1
    54    47    32    2
    55    49    40    1
