@<TRIPOS>MOLECULE
outputs/IAG933/test6/raw/output_749_IAG933_linker_design_.xyz
 46 49 0 0 0
SMALL
GASTEIGER

@<TRIPOS>ATOM
      1 C         -24.8550   -1.0120   30.1430 C.3     1  UNL1        0.0963
      2 C         -24.9730   -2.5050   29.7880 C.2     1  UNL1       -0.0064
      3 C         -23.9060   -3.1730   29.1460 C.2     1  UNL1       -0.0029
      4 C         -23.9890   -4.5490   28.8530 C.2     1  UNL1       -0.0003
      5 C         -25.1370   -5.2800   29.2050 C.2     1  UNL1       -0.0000
      6 C         -26.2320   -4.6110   29.7840 C.2     1  UNL1       -0.0003
      7 C         -26.1550   -3.2320   30.0650 C.2     1  UNL1       -0.0029
      8 C         -25.3870   -0.6790   31.5710 C.3     1  UNL1        0.0916
      9 C         -25.1890    0.7730   32.0280 C.3     1  UNL1        0.0206
     10 C         -25.3360    0.6840   33.5440 C.3     1  UNL1        0.0203
     11 C         -24.8290   -0.7150   33.9050 C.3     1  UNL1        0.0888
     12 N         -24.7580   -1.4810   32.6460 N.3     1  UNL1       -0.2178
     13 C         -25.6880    1.6140   26.4610 C.3     1  UNL1        0.0852
     14 C         -26.2500    2.9200   26.3950 C.2     1  UNL1        0.0561
     15 C         -25.6420    4.0930   27.1230 C.2     1  UNL1        0.2625
     16 N         -25.6140    5.2520   26.4490 N.am    1  UNL1       -0.2000
     17 C         -25.0260    6.4790   26.9630 C.3     1  UNL1        0.1388
     18 O         -25.1430    3.9660   28.2430 O.2     1  UNL1       -0.2687
     19 C         -27.4380    3.0910   25.6450 C.2     1  UNL1        0.1022
     20 N         -28.0750    2.0890   25.0030 N.2     1  UNL1       -0.2119
     21 C         -27.5430    0.8490   25.0790 C.2     1  UNL1        0.2341
     22 O         -28.1930   -0.2080   24.4770 O.2     1  UNL1       -0.4585
     23 C         -29.4600    0.0050   23.8660 C.3     1  UNL1        0.2423
     24 C         -30.0650   -1.3770   23.5730 C.3     1  UNL1        0.2292
     25 O         -30.7290   -1.8780   24.7210 O.3     1  UNL1       -0.2162
     26 C         -26.3540    0.5760   25.7770 C.3     1  UNL1        0.2413
     27 F         -25.8600   -0.6810   25.7950 F       1  UNL1       -0.2268
     28 O         -22.4939   -0.0934   28.5483 O.2     1  UNL1       -0.2960
     29 O         -29.1929   -0.2482   32.2236 O.2     1  UNL1       -0.2748
     30 C         -22.4517    0.9490   27.9095 C.2     1  UNL1        0.1525
     31 C         -29.9975   -0.1415   28.4493 C.3     1  UNL1        0.1196
     32 O         -29.8202   -2.7520   30.2350 O.3     1  UNL1       -0.3487
     33 C         -27.3859    0.1068   30.0958 C.3     1  UNL1        0.0388
     34 C         -21.1313    1.5477   27.5560 C.3     1  UNL1        0.0723
     35 C         -23.5005    1.4771   27.0992 C.3     1  UNL1        0.0809
     36 C         -30.1149   -3.9963   29.6699 C.3     1  UNL1        0.1745
     37 C         -29.9986   -0.3926   31.3619 C.2     1  UNL1        0.2287
     38 C         -31.1677   -1.1993   31.6329 C.3     1  UNL1        0.1193
     39 C         -26.6360    0.3439   28.7086 C.3     1  UNL1        0.0741
     40 C         -31.3401   -0.8620   28.1840 C.2     1  UNL1       -0.0069
     41 C         -31.8728   -1.8206   29.2878 C.2     1  UNL1        0.0005
     42 C         -24.9067    1.0155   27.6246 C.3     1  UNL1        0.0725
     43 N         -29.6750    0.0320   29.9567 N.am    1  UNL1       -0.2753
     44 C         -28.6229    1.0369   30.0781 C.3     1  UNL1        0.0952
     45 C         -30.9166   -2.1444   30.4231 C.3     1  UNL1        0.1461
     46 N         -25.1783    0.0707   28.9288 N.3     1  UNL1       -0.2696
@<TRIPOS>BOND
     1     1    46    1
     2     2     7    1
     3     2     1    1
     4     3     2    2
     5     4     3    1
     6     4     5    2
     7     5     6    1
     8     6     7    2
     9     8     1    1
    10     8     9    1
    11     8    12    1
    12     9    10    1
    13    10    11    1
    14    12    11    1
    15    13    42    1
    16    14    13    1
    17    14    15    1
    18    15    18    2
    19    16    17    1
    20    16    15    1
    21    19    14    2
    22    20    21    2
    23    20    19    1
    24    21    26    1
    25    22    21    1
    26    23    22    1
    27    24    23    1
    28    24    25    1
    29    26    27    1
    30    26    13    1
    31    30    28    2
    32    31    43    1
    33    34    30    1
    34    35    30    1
    35    36    32    1
    36    37    38    1
    37    37    29    2
    38    39    46    1
    39    39    33    1
    40    40    31    1
    41    40    41    2
    42    41    45    1
    43    42    35    1
    44    42    46    1
    45    43    44    1
    46    43    37   am
    47    44    33    1
    48    45    32    1
    49    45    38    1
