@<TRIPOS>MOLECULE
outputs/IAG933/test6/raw/output_7497_IAG933_linker_design_.xyz
 47 50 0 0 0
SMALL
GASTEIGER

@<TRIPOS>ATOM
      1 C         -24.8550   -1.0120   30.1430 C.3     1  UNL1        0.0469
      2 C         -24.9730   -2.5050   29.7880 C.2     1  UNL1       -0.0207
      3 C         -23.9060   -3.1730   29.1460 C.2     1  UNL1       -0.0042
      4 C         -23.9890   -4.5490   28.8530 C.2     1  UNL1       -0.0003
      5 C         -25.1370   -5.2800   29.2050 C.2     1  UNL1       -0.0000
      6 C         -26.2320   -4.6110   29.7840 C.2     1  UNL1       -0.0003
      7 C         -26.1550   -3.2320   30.0650 C.2     1  UNL1       -0.0042
      8 C         -25.3870   -0.6790   31.5710 C.3     1  UNL1        0.0773
      9 C         -25.1890    0.7730   32.0280 C.3     1  UNL1        0.0192
     10 C         -25.3360    0.6840   33.5440 C.3     1  UNL1        0.0202
     11 C         -24.8290   -0.7150   33.9050 C.3     1  UNL1        0.0887
     12 N         -24.7580   -1.4810   32.6460 N.3     1  UNL1       -0.2191
     13 C         -25.6880    1.6140   26.4610 C.3     1  UNL1        0.0899
     14 C         -26.2500    2.9200   26.3950 C.2     1  UNL1        0.0565
     15 C         -25.6420    4.0930   27.1230 C.2     1  UNL1        0.2625
     16 N         -25.6140    5.2520   26.4490 N.am    1  UNL1       -0.2000
     17 C         -25.0260    6.4790   26.9630 C.3     1  UNL1        0.1388
     18 O         -25.1430    3.9660   28.2430 O.2     1  UNL1       -0.2687
     19 C         -27.4380    3.0910   25.6450 C.2     1  UNL1        0.1022
     20 N         -28.0750    2.0890   25.0030 N.2     1  UNL1       -0.2119
     21 C         -27.5430    0.8490   25.0790 C.2     1  UNL1        0.2341
     22 O         -28.1930   -0.2080   24.4770 O.2     1  UNL1       -0.4585
     23 C         -29.4600    0.0050   23.8660 C.3     1  UNL1        0.2423
     24 C         -30.0650   -1.3770   23.5730 C.3     1  UNL1        0.2292
     25 O         -30.7290   -1.8780   24.7210 O.3     1  UNL1       -0.2162
     26 C         -26.3540    0.5760   25.7770 C.3     1  UNL1        0.2417
     27 F         -25.8600   -0.6810   25.7950 F       1  UNL1       -0.2268
     28 C         -24.4512    0.8270   28.6307 C.2     1  UNL1        0.2255
     29 C         -21.2429    1.6295   27.0136 C.3     1  UNL1        0.0233
     30 C         -25.6207    4.5345   31.1634 C.3     1  UNL1        0.0002
     31 O         -30.0227    4.6625   31.3819 O.3     1  UNL1       -0.2231
     32 C         -29.3836    0.4023   29.0377 C.3     1  UNL1        0.0026
     33 O         -24.3158    1.8150   29.3399 O.2     1  UNL1       -0.2749
     34 C         -26.4988    3.7148   30.2688 C.3     1  UNL1        0.0051
     35 C         -25.5876   -0.1290   29.1152 C.3     1  UNL1        0.0821
     36 C         -26.2442    4.8130   32.5390 C.3     1  UNL1        0.0026
     37 N         -23.6263    0.7220   27.4568 N.am    1  UNL1       -0.2791
     38 C         -28.7624    2.5878   30.0429 C.3     1  UNL1        0.1544
     39 C         -28.9489    1.0507   30.3562 C.3     1  UNL1        0.0330
     40 C         -27.1111   -0.4317   29.1022 C.3     1  UNL1        0.0095
     41 C         -24.2091    1.5990   26.4046 C.3     1  UNL1        0.1012
     42 C         -28.2439   -0.4233   28.4458 C.3     1  UNL1        0.0006
     43 O         -29.5886    3.2387   29.2601 O.3     1  UNL1       -0.2231
     44 C         -22.2496    0.9234   27.9047 C.3     1  UNL1        0.0935
     45 C         -27.8042    5.1142   32.4909 C.3     1  UNL1        0.0330
     46 C         -28.5399    4.6489   31.2807 C.3     1  UNL1        0.1544
     47 C         -27.7627    3.3659   30.7290 C.3     1  UNL1        0.0608
@<TRIPOS>BOND
     1     1    35    1
     2     2     7    1
     3     2     1    1
     4     3     2    2
     5     4     3    1
     6     4     5    2
     7     5     6    1
     8     6     7    2
     9     8     1    1
    10     8     9    1
    11     8    12    1
    12     9    10    1
    13    10    11    1
    14    12    11    1
    15    13    41    1
    16    14    13    1
    17    14    15    1
    18    15    18    2
    19    16    17    1
    20    16    15    1
    21    19    14    2
    22    20    21    2
    23    20    19    1
    24    21    26    1
    25    22    21    1
    26    23    22    1
    27    24    23    1
    28    24    25    1
    29    26    27    1
    30    26    13    1
    31    28    35    1
    32    28    33    2
    33    29    44    1
    34    30    36    1
    35    32    39    1
    36    34    47    1
    37    34    30    1
    38    35    40    1
    39    37    44    1
    40    37    28   am
    41    38    43    1
    42    38    39    1
    43    41    37    1
    44    42    32    1
    45    42    40    1
    46    45    36    1
    47    46    31    1
    48    46    45    1
    49    47    38    1
    50    47    46    1
