@<TRIPOS>MOLECULE
outputs/IAG933/test6/raw/output_7498_IAG933_linker_design_.xyz
 47 51 0 0 0
SMALL
GASTEIGER

@<TRIPOS>ATOM
      1 C         -24.8550   -1.0120   30.1430 C.3     1  UNL1        0.0785
      2 C         -24.9730   -2.5050   29.7880 C.2     1  UNL1       -0.0155
      3 C         -23.9060   -3.1730   29.1460 C.2     1  UNL1       -0.0039
      4 C         -23.9890   -4.5490   28.8530 C.2     1  UNL1       -0.0003
      5 C         -25.1370   -5.2800   29.2050 C.2     1  UNL1       -0.0000
      6 C         -26.2320   -4.6110   29.7840 C.2     1  UNL1       -0.0003
      7 C         -26.1550   -3.2320   30.0650 C.2     1  UNL1       -0.0039
      8 C         -25.3870   -0.6790   31.5710 C.3     1  UNL1        0.0824
      9 C         -25.1890    0.7730   32.0280 C.3     1  UNL1        0.0196
     10 C         -25.3360    0.6840   33.5440 C.3     1  UNL1        0.0203
     11 C         -24.8290   -0.7150   33.9050 C.3     1  UNL1        0.0887
     12 N         -24.7580   -1.4810   32.6460 N.3     1  UNL1       -0.2187
     13 C         -25.6880    1.6140   26.4610 C.2     1  UNL1        0.0407
     14 C         -26.2500    2.9200   26.3950 C.2     1  UNL1        0.0744
     15 C         -25.6420    4.0930   27.1230 C.2     1  UNL1        0.2226
     16 N         -25.6140    5.2520   26.4490 N.2     1  UNL1       -0.2356
     17 C         -25.0260    6.4790   26.9630 C.3     1  UNL1        0.1550
     18 O         -25.1430    3.9660   28.2430 O.2     1  UNL1       -0.4501
     19 C         -27.4380    3.0910   25.6450 C.2     1  UNL1        0.1068
     20 N         -28.0750    2.0890   25.0030 N.2     1  UNL1       -0.2081
     21 C         -27.5430    0.8490   25.0790 C.2     1  UNL1        0.2533
     22 O         -28.1930   -0.2080   24.4770 O.2     1  UNL1       -0.4558
     23 C         -29.4600    0.0050   23.8660 C.3     1  UNL1        0.2426
     24 C         -30.0650   -1.3770   23.5730 C.3     1  UNL1        0.2292
     25 O         -30.7290   -1.8780   24.7210 O.3     1  UNL1       -0.2162
     26 C         -26.3540    0.5760   25.7770 C.2     1  UNL1        0.1931
     27 F         -25.8600   -0.6810   25.7950 F       1  UNL1       -0.1992
     28 C         -28.1324    5.4429   28.8035 C.3     1  UNL1        0.0033
     29 N         -25.2507    7.1427   34.0780 N.3     1  UNL1       -0.1299
     30 F         -22.6287    2.3983   26.7088 F       1  UNL1       -0.2004
     31 F         -20.9618    0.6804   27.7388 F       1  UNL1       -0.2017
     32 O         -24.9427    3.4945   31.5969 O.2     1  UNL1       -0.2904
     33 C         -27.6338    4.0848   29.3431 C.3     1  UNL1        0.0237
     34 C         -26.7217    4.4230   30.5236 C.3     1  UNL1        0.1198
     35 C         -24.7907    3.3661   29.2150 C.3     1  UNL1        0.2671
     36 N         -27.1416    5.4184   31.2614 N.3     1  UNL1       -0.2665
     37 C         -22.6802   -0.2586   29.0939 C.2     1  UNL1        0.0470
     38 C         -23.9190   -0.0156   29.6256 C.2     1  UNL1        0.0662
     39 C         -22.1405    0.7525   28.3164 C.2     1  UNL1        0.1699
     40 C         -25.4592    3.7658   30.5098 C.2     1  UNL1        0.2105
     41 C         -22.9162    1.8138   28.0256 C.2     1  UNL1        0.1847
     42 C         -25.6602    5.9638   33.2688 C.3     1  UNL1        0.1266
     43 C         -29.0623    5.9781   29.8694 C.3     1  UNL1        0.0174
     44 N         -24.4734    1.1975   29.6931 N.2     1  UNL1       -0.2472
     45 C         -26.1292    6.3619   31.8588 C.3     1  UNL1        0.0931
     46 C         -28.6289    5.6284   31.2927 C.3     1  UNL1        0.0725
     47 C         -24.0423    2.0920   28.9067 C.2     1  UNL1        0.1351
@<TRIPOS>BOND
     1     1    38    1
     2     2     7    1
     3     2     1    1
     4     3     2    2
     5     4     3    1
     6     4     5    2
     7     5     6    1
     8     6     7    2
     9     8     1    1
    10     8     9    1
    11     8    12    1
    12     9    10    1
    13    10    11    1
    14    12    11    1
    15    14    13    1
    16    14    15    1
    17    15    18    1
    18    16    17    1
    19    16    15    2
    20    19    14    2
    21    20    21    2
    22    20    19    1
    23    21    26    1
    24    22    21    1
    25    23    22    1
    26    24    23    1
    27    24    25    1
    28    26    27    1
    29    26    13    2
    30    28    33    1
    31    28    43    1
    32    30    41    1
    33    31    39    1
    34    33    34    1
    35    34    40    1
    36    34    36    1
    37    35    18    1
    38    35    40    1
    39    36    46    1
    40    36    45    1
    41    37    38    1
    42    38    44    2
    43    39    37    2
    44    40    32    2
    45    41    39    1
    46    41    47    2
    47    42    29    1
    48    43    46    1
    49    45    42    1
    50    47    35    1
    51    47    44    1
