@<TRIPOS>MOLECULE
outputs/IAG933/test6/raw/output_7502_IAG933_linker_design_.xyz
 48 53 0 0 0
SMALL
GASTEIGER

@<TRIPOS>ATOM
      1 C         -24.8550   -1.0120   30.1430 C.3     1  UNL1        0.0654
      2 C         -24.9730   -2.5050   29.7880 C.2     1  UNL1       -0.0188
      3 C         -23.9060   -3.1730   29.1460 C.2     1  UNL1       -0.0042
      4 C         -23.9890   -4.5490   28.8530 C.2     1  UNL1       -0.0003
      5 C         -25.1370   -5.2800   29.2050 C.2     1  UNL1       -0.0000
      6 C         -26.2320   -4.6110   29.7840 C.2     1  UNL1       -0.0003
      7 C         -26.1550   -3.2320   30.0650 C.2     1  UNL1       -0.0042
      8 C         -25.3870   -0.6790   31.5710 C.3     1  UNL1        0.0791
      9 C         -25.1890    0.7730   32.0280 C.3     1  UNL1        0.0193
     10 C         -25.3360    0.6840   33.5440 C.3     1  UNL1        0.0202
     11 C         -24.8290   -0.7150   33.9050 C.3     1  UNL1        0.0887
     12 N         -24.7580   -1.4810   32.6460 N.3     1  UNL1       -0.2191
     13 C         -25.6880    1.6140   26.4610 C.2     1  UNL1        0.0303
     14 C         -26.2500    2.9200   26.3950 C.2     1  UNL1        0.0738
     15 C         -25.6420    4.0930   27.1230 C.2     1  UNL1        0.2662
     16 N         -25.6140    5.2520   26.4490 N.am    1  UNL1       -0.1997
     17 C         -25.0260    6.4790   26.9630 C.3     1  UNL1        0.1388
     18 O         -25.1430    3.9660   28.2430 O.2     1  UNL1       -0.2683
     19 C         -27.4380    3.0910   25.6450 C.2     1  UNL1        0.1065
     20 N         -28.0750    2.0890   25.0030 N.2     1  UNL1       -0.2081
     21 C         -27.5430    0.8490   25.0790 C.2     1  UNL1        0.2530
     22 O         -28.1930   -0.2080   24.4770 O.2     1  UNL1       -0.4558
     23 C         -29.4600    0.0050   23.8660 C.3     1  UNL1        0.2426
     24 C         -30.0650   -1.3770   23.5730 C.3     1  UNL1        0.2292
     25 O         -30.7290   -1.8780   24.7210 O.3     1  UNL1       -0.2162
     26 C         -26.3540    0.5760   25.7770 C.2     1  UNL1        0.1904
     27 F         -25.8600   -0.6810   25.7950 F       1  UNL1       -0.1995
     28 C         -23.0054    0.6676   29.1800 C.3     1  UNL1        0.0731
     29 C         -28.4759    5.1709   30.0462 C.3     1  UNL1        0.0824
     30 C         -22.3692    2.4342   27.3425 C.3     1  UNL1        0.0031
     31 C         -28.1099    0.1210   28.7726 C.1     1  UNL1       -0.0611
     32 N         -28.9640    2.7804   29.9205 N.pl3   1  UNL1       -0.3036
     33 C         -29.8496    1.6514   29.2763 C.2     1  UNL1        0.0704
     34 C         -28.5775    4.0560   29.1172 C.3     1  UNL1        0.0960
     35 C         -29.3926    0.3350   28.8675 C.2     1  UNL1        0.0650
     36 C         -24.4581    1.3115   27.1457 C.3     1  UNL1        0.0833
     37 C         -21.0669    1.5630   27.3072 C.3     1  UNL1        0.0015
     38 C         -29.6088    3.2823   31.1296 C.3     1  UNL1        0.1214
     39 C         -28.7075    4.5659   31.4731 C.3     1  UNL1        0.1487
     40 C         -28.8435    5.7693   32.4434 C.3     1  UNL1        0.0349
     41 C         -21.9052    1.3098   28.3457 C.3     1  UNL1        0.0161
     42 O         -29.3992    6.6558   28.2175 O.3     1  UNL1       -0.2203
     43 C         -29.4331    6.3642   29.6554 C.3     1  UNL1        0.1863
     44 N         -24.3326    0.7381   28.4706 N.3     1  UNL1       -0.2609
     45 C         -26.7205   -0.0368   28.8131 C.1     1  UNL1       -0.0705
     46 C         -25.4302   -0.0904   29.0138 C.3     1  UNL1        0.1284
     47 O         -27.4524    3.9503   31.9598 O.3     1  UNL1       -0.2238
     48 C         -23.4381    1.8152   26.2569 C.3     1  UNL1        0.0206
@<TRIPOS>BOND
     1     1    46    1
     2     2     7    1
     3     2     1    1
     4     3     2    2
     5     4     3    1
     6     4     5    2
     7     5     6    1
     8     6     7    2
     9     8     1    1
    10     8     9    1
    11     8    12    1
    12     9    10    1
    13    10    11    1
    14    12    11    1
    15    14    13    1
    16    14    15    1
    17    15    18    2
    18    16    17    1
    19    16    15    1
    20    19    14    2
    21    20    21    2
    22    20    19    1
    23    21    26    1
    24    22    21    1
    25    23    22    1
    26    24    23    1
    27    24    25    1
    28    26    27    1
    29    26    13    2
    30    29    43    1
    31    29    39    1
    32    30    48    1
    33    30    41    1
    34    31    45    3
    35    31    35    1
    36    32    38    1
    37    33    32    1
    38    34    32    1
    39    34    29    1
    40    35    33    2
    41    36    13    1
    42    36    44    1
    43    37    30    1
    44    38    39    1
    45    39    47    1
    46    39    40    1
    47    41    37    1
    48    41    28    1
    49    42    43    1
    50    44    46    1
    51    44    28    1
    52    46    45    1
    53    48    36    1
