@<TRIPOS>MOLECULE
outputs/IAG933/test6/raw/output_7505_IAG933_linker_design_.xyz
 40 43 0 0 0
SMALL
GASTEIGER

@<TRIPOS>ATOM
      1 C         -24.8550   -1.0120   30.1430 C.3     1  UNL1        0.2215
      2 C         -24.9730   -2.5050   29.7880 C.2     1  UNL1        0.0233
      3 C         -23.9060   -3.1730   29.1460 C.2     1  UNL1       -0.0003
      4 C         -23.9890   -4.5490   28.8530 C.2     1  UNL1       -0.0002
      5 C         -25.1370   -5.2800   29.2050 C.2     1  UNL1       -0.0000
      6 C         -26.2320   -4.6110   29.7840 C.2     1  UNL1       -0.0002
      7 C         -26.1550   -3.2320   30.0650 C.2     1  UNL1       -0.0003
      8 C         -25.3870   -0.6790   31.5710 C.3     1  UNL1        0.1218
      9 C         -25.1890    0.7730   32.0280 C.3     1  UNL1        0.0234
     10 C         -25.3360    0.6840   33.5440 C.3     1  UNL1        0.0204
     11 C         -24.8290   -0.7150   33.9050 C.3     1  UNL1        0.0889
     12 N         -24.7580   -1.4810   32.6460 N.3     1  UNL1       -0.2150
     13 C         -25.6880    1.6140   26.4610 C.3     1  UNL1        0.1101
     14 C         -26.2500    2.9200   26.3950 C.2     1  UNL1        0.0603
     15 C         -25.6420    4.0930   27.1230 C.2     1  UNL1        0.2628
     16 N         -25.6140    5.2520   26.4490 N.am    1  UNL1       -0.2000
     17 C         -25.0260    6.4790   26.9630 C.3     1  UNL1        0.1388
     18 O         -25.1430    3.9660   28.2430 O.2     1  UNL1       -0.2686
     19 C         -27.4380    3.0910   25.6450 C.2     1  UNL1        0.1025
     20 N         -28.0750    2.0890   25.0030 N.2     1  UNL1       -0.2118
     21 C         -27.5430    0.8490   25.0790 C.2     1  UNL1        0.2345
     22 O         -28.1930   -0.2080   24.4770 O.2     1  UNL1       -0.4585
     23 C         -29.4600    0.0050   23.8660 C.3     1  UNL1        0.2423
     24 C         -30.0650   -1.3770   23.5730 C.3     1  UNL1        0.2292
     25 O         -30.7290   -1.8780   24.7210 O.3     1  UNL1       -0.2162
     26 C         -26.3540    0.5760   25.7770 C.3     1  UNL1        0.2454
     27 F         -25.8600   -0.6810   25.7950 F       1  UNL1       -0.2265
     28 C         -28.7163    0.6331   28.5694 C.3     1  UNL1        0.1756
     29 C         -22.4128    1.0063   27.9979 C.2     1  UNL1        0.2375
     30 O         -29.0983   -0.7702   28.5586 O.3     1  UNL1       -0.2212
     31 C         -23.0409    0.1657   29.1628 C.2     1  UNL1        0.4133
     32 C         -24.7254    1.1957   27.4395 C.2     1  UNL1        0.0835
     33 N         -22.2075   -0.4496   29.9913 N.pl3   1  UNL1        0.2144
     34 C         -23.3608    1.5386   27.0790 C.2     1  UNL1        0.1055
     35 CL        -22.7841    2.3536   25.6806 Cl      1  UNL1       -0.0786
     36 N         -25.2573    0.7061   28.5587 N.pl3   1  UNL1       -0.1671
     37 N         -24.4544    0.0522   29.2452 N.pl3   1  UNL1       -0.0996
     38 C         -30.1882    1.0477   28.9115 C.3     1  UNL1        0.0375
     39 F         -21.1562    1.1215   27.7832 F       1  UNL1       -0.1953
     40 C         -26.9110    0.7321   29.1553 C.3     1  UNL1        0.1672
@<TRIPOS>BOND
     1     1     2    1
     2     2     7    1
     3     3     2    2
     4     4     3    1
     5     4     5    2
     6     5     6    1
     7     6     7    2
     8     8     1    1
     9     8     9    1
    10     8    12    1
    11     9    10    1
    12    10    11    1
    13    12    11    1
    14    13    32    1
    15    14    13    1
    16    14    15    1
    17    15    18    2
    18    16    17    1
    19    16    15    1
    20    19    14    2
    21    20    21    2
    22    20    19    1
    23    21    26    1
    24    22    21    1
    25    23    22    1
    26    24    23    1
    27    24    25    1
    28    26    27    1
    29    26    13    1
    30    28    38    1
    31    28    40    1
    32    29    31    2
    33    30    28    1
    34    31    37    1
    35    31    33    1
    36    32    36    1
    37    34    32    2
    38    34    29    1
    39    35    34    1
    40    36    40    1
    41    36    37    1
    42    37     1    1
    43    39    29    1
