@<TRIPOS>MOLECULE
outputs/IAG933/test6/raw/output_7507_IAG933_linker_design_.xyz
 44 48 0 0 0
SMALL
GASTEIGER

@<TRIPOS>ATOM
      1 C         -24.8550   -1.0120   30.1430 C.3     1  UNL1        0.1226
      2 C         -24.9730   -2.5050   29.7880 C.2     1  UNL1       -0.0042
      3 C         -23.9060   -3.1730   29.1460 C.2     1  UNL1       -0.0029
      4 C         -23.9890   -4.5490   28.8530 C.2     1  UNL1       -0.0003
      5 C         -25.1370   -5.2800   29.2050 C.2     1  UNL1       -0.0000
      6 C         -26.2320   -4.6110   29.7840 C.2     1  UNL1       -0.0003
      7 C         -26.1550   -3.2320   30.0650 C.2     1  UNL1       -0.0029
      8 C         -25.3870   -0.6790   31.5710 C.3     1  UNL1        0.0938
      9 C         -25.1890    0.7730   32.0280 C.3     1  UNL1        0.0207
     10 C         -25.3360    0.6840   33.5440 C.3     1  UNL1        0.0203
     11 C         -24.8290   -0.7150   33.9050 C.3     1  UNL1        0.0888
     12 N         -24.7580   -1.4810   32.6460 N.3     1  UNL1       -0.2177
     13 C         -25.6880    1.6140   26.4610 C.2     1  UNL1        0.0471
     14 C         -26.2500    2.9200   26.3950 C.2     1  UNL1        0.0750
     15 C         -25.6420    4.0930   27.1230 C.2     1  UNL1        0.2662
     16 N         -25.6140    5.2520   26.4490 N.am    1  UNL1       -0.1997
     17 C         -25.0260    6.4790   26.9630 C.3     1  UNL1        0.1388
     18 O         -25.1430    3.9660   28.2430 O.2     1  UNL1       -0.2683
     19 C         -27.4380    3.0910   25.6450 C.2     1  UNL1        0.1065
     20 N         -28.0750    2.0890   25.0030 N.2     1  UNL1       -0.2081
     21 C         -27.5430    0.8490   25.0790 C.2     1  UNL1        0.2530
     22 O         -28.1930   -0.2080   24.4770 O.2     1  UNL1       -0.4558
     23 C         -29.4600    0.0050   23.8660 C.3     1  UNL1        0.2426
     24 C         -30.0650   -1.3770   23.5730 C.3     1  UNL1        0.2292
     25 O         -30.7290   -1.8780   24.7210 O.3     1  UNL1       -0.2162
     26 C         -26.3540    0.5760   25.7770 C.2     1  UNL1        0.1915
     27 F         -25.8600   -0.6810   25.7950 F       1  UNL1       -0.1995
     28 C         -24.1621    3.9804   32.9698 C.2     1  UNL1        0.0036
     29 C         -22.0685    1.4018   27.9051 C.3     1  UNL1        0.0714
     30 C         -25.2467    6.0671   33.6234 C.2     1  UNL1       -0.0042
     31 C         -23.2736    1.5117   27.0198 C.3     1  UNL1        0.1879
     32 C         -21.0625    1.7207   26.9807 C.3     1  UNL1        0.1848
     33 C         -23.7569    0.9166   29.9033 C.3     1  UNL1        0.1355
     34 C         -24.9039    4.0441   31.7808 C.2     1  UNL1        0.0162
     35 C         -25.9145    5.0020   31.6201 C.3     1  UNL1        0.0601
     36 C         -24.3530    5.0143   33.8846 C.2     1  UNL1       -0.0000
     37 C         -24.5810    3.0815   30.8175 C.1     1  UNL1       -0.1083
     38 O         -24.7867   -0.1455   27.9128 O.3     1  UNL1       -0.2770
     39 O         -21.7272    2.2511   25.8255 O.3     1  UNL1       -0.2203
     40 C         -26.1211    6.0236   32.5475 C.2     1  UNL1       -0.0208
     41 C         -24.5074    2.1299   29.9070 C.2     1  UNL1        0.0348
     42 N         -24.3622   -0.0161   29.2766 N.3     1  UNL1       -0.1564
     43 O         -22.9384    1.9093   25.7902 O.3     1  UNL1       -0.2200
     44 C         -24.5441    1.0092   27.2280 C.3     1  UNL1        0.1925
@<TRIPOS>BOND
     1     1    42    1
     2     2     7    1
     3     2     1    1
     4     3     2    2
     5     4     3    1
     6     4     5    2
     7     5     6    1
     8     6     7    2
     9     8     1    1
    10     8     9    1
    11     8    12    1
    12     9    10    1
    13    10    11    1
    14    12    11    1
    15    13    44    1
    16    14    13    1
    17    14    15    1
    18    15    18    2
    19    16    17    1
    20    16    15    1
    21    19    14    2
    22    20    21    2
    23    20    19    1
    24    21    26    1
    25    22    21    1
    26    23    22    1
    27    24    23    1
    28    24    25    1
    29    26    27    1
    30    26    13    2
    31    28    36    2
    32    30    36    1
    33    31    44    1
    34    31    29    1
    35    32    29    1
    36    33    41    1
    37    34    28    1
    38    35    34    1
    39    35    40    1
    40    37    34    2
    41    38    42    1
    42    39    32    1
    43    40    30    2
    44    41    37    2
    45    42    33    1
    46    43    39    1
    47    43    31    1
    48    44    38    1
