@<TRIPOS>MOLECULE
outputs/IAG933/test6/raw/output_7509_IAG933_linker_design_.xyz
 44 46 0 0 0
SMALL
GASTEIGER

@<TRIPOS>ATOM
      1 C         -24.8550   -1.0120   30.1430 C.3     1  UNL1        0.0388
      2 C         -24.9730   -2.5050   29.7880 C.2     1  UNL1       -0.0211
      3 C         -23.9060   -3.1730   29.1460 C.2     1  UNL1       -0.0042
      4 C         -23.9890   -4.5490   28.8530 C.2     1  UNL1       -0.0003
      5 C         -25.1370   -5.2800   29.2050 C.2     1  UNL1       -0.0000
      6 C         -26.2320   -4.6110   29.7840 C.2     1  UNL1       -0.0003
      7 C         -26.1550   -3.2320   30.0650 C.2     1  UNL1       -0.0042
      8 C         -25.3870   -0.6790   31.5710 C.3     1  UNL1        0.0768
      9 C         -25.1890    0.7730   32.0280 C.3     1  UNL1        0.0192
     10 C         -25.3360    0.6840   33.5440 C.3     1  UNL1        0.0202
     11 C         -24.8290   -0.7150   33.9050 C.3     1  UNL1        0.0887
     12 N         -24.7580   -1.4810   32.6460 N.3     1  UNL1       -0.2191
     13 C         -25.6880    1.6140   26.4610 C.3     1  UNL1        0.0719
     14 C         -26.2500    2.9200   26.3950 C.2     1  UNL1        0.0549
     15 C         -25.6420    4.0930   27.1230 C.2     1  UNL1        0.2624
     16 N         -25.6140    5.2520   26.4490 N.am    1  UNL1       -0.2000
     17 C         -25.0260    6.4790   26.9630 C.3     1  UNL1        0.1388
     18 O         -25.1430    3.9660   28.2430 O.2     1  UNL1       -0.2687
     19 C         -27.4380    3.0910   25.6450 C.2     1  UNL1        0.1021
     20 N         -28.0750    2.0890   25.0030 N.2     1  UNL1       -0.2119
     21 C         -27.5430    0.8490   25.0790 C.2     1  UNL1        0.2341
     22 O         -28.1930   -0.2080   24.4770 O.2     1  UNL1       -0.4585
     23 C         -29.4600    0.0050   23.8660 C.3     1  UNL1        0.2423
     24 C         -30.0650   -1.3770   23.5730 C.3     1  UNL1        0.2292
     25 O         -30.7290   -1.8780   24.7210 O.3     1  UNL1       -0.2162
     26 C         -26.3540    0.5760   25.7770 C.3     1  UNL1        0.2400
     27 F         -25.8600   -0.6810   25.7950 F       1  UNL1       -0.2269
     28 C         -26.7957    1.8607   29.8002 C.2     1  UNL1        0.2475
     29 N         -26.8337    3.1702   30.1587 N.am    1  UNL1       -0.1448
     30 C         -21.1464    1.2556   27.9500 C.3     1  UNL1        0.0368
     31 C         -25.5861    1.1910   28.9957 C.3     1  UNL1        0.0807
     32 C         -24.8264    1.2770   27.5683 C.3     1  UNL1        0.0337
     33 C         -27.9740    2.5216   33.5170 C.3     1  UNL1        0.0096
     34 O         -22.9655    1.8347   29.4080 O.3     1  UNL1       -0.2218
     35 C         -26.1277    4.0064   34.3393 C.3     1  UNL1        0.0005
     36 O         -27.7470    1.1314   30.1505 O.2     1  UNL1       -0.2729
     37 C         -22.6355    0.9239   28.2678 C.3     1  UNL1        0.1670
     38 C         -27.2471    3.4290   32.5674 C.3     1  UNL1        0.0786
     39 C         -23.4392    1.1208   27.0578 C.3     1  UNL1        0.1110
     40 C         -25.8291   -0.3842   29.1121 C.3     1  UNL1        0.0149
     41 C         -25.9314    4.0168   33.1156 C.3     1  UNL1        0.0091
     42 C         -27.7127    3.5681   31.2869 C.2     1  UNL1        0.2474
     43 O         -28.8664    4.0587   31.0159 O.2     1  UNL1       -0.2729
     44 CL        -22.9013    1.9878   25.6343 Cl      1  UNL1       -0.1123
@<TRIPOS>BOND
     1     1    40    1
     2     2     7    1
     3     2     1    1
     4     3     2    2
     5     4     3    1
     6     4     5    2
     7     5     6    1
     8     6     7    2
     9     8     1    1
    10     8     9    1
    11     8    12    1
    12     9    10    1
    13    10    11    1
    14    12    11    1
    15    13    32    1
    16    14    13    1
    17    14    15    1
    18    15    18    2
    19    16    17    1
    20    16    15    1
    21    19    14    2
    22    20    21    2
    23    20    19    1
    24    21    26    1
    25    22    21    1
    26    23    22    1
    27    24    23    1
    28    24    25    1
    29    26    27    1
    30    26    13    1
    31    28    36    2
    32    28    29    1
    33    29    42    1
    34    31    40    1
    35    31    28    1
    36    32    39    1
    37    32    31    1
    38    37    30    1
    39    37    34    1
    40    38    41    1
    41    38    33    1
    42    39    44    1
    43    39    37    1
    44    41    35    1
    45    42    38    1
    46    43    42    2
