@<TRIPOS>MOLECULE
outputs/IAG933/test6/raw/output_751_IAG933_linker_design_.xyz
 43 46 0 0 0
SMALL
GASTEIGER

@<TRIPOS>ATOM
      1 C         -24.8550   -1.0120   30.1430 C.3     1  UNL1        0.1137
      2 C         -24.9730   -2.5050   29.7880 C.2     1  UNL1       -0.0029
      3 C         -23.9060   -3.1730   29.1460 C.2     1  UNL1       -0.0026
      4 C         -23.9890   -4.5490   28.8530 C.2     1  UNL1       -0.0003
      5 C         -25.1370   -5.2800   29.2050 C.2     1  UNL1       -0.0000
      6 C         -26.2320   -4.6110   29.7840 C.2     1  UNL1       -0.0003
      7 C         -26.1550   -3.2320   30.0650 C.2     1  UNL1       -0.0026
      8 C         -25.3870   -0.6790   31.5710 C.3     1  UNL1        0.0951
      9 C         -25.1890    0.7730   32.0280 C.3     1  UNL1        0.0209
     10 C         -25.3360    0.6840   33.5440 C.3     1  UNL1        0.0203
     11 C         -24.8290   -0.7150   33.9050 C.3     1  UNL1        0.0888
     12 N         -24.7580   -1.4810   32.6460 N.3     1  UNL1       -0.2174
     13 C         -25.6880    1.6140   26.4610 C.2     1  UNL1        0.0172
     14 C         -26.2500    2.9200   26.3950 C.2     1  UNL1        0.0726
     15 C         -25.6420    4.0930   27.1230 C.2     1  UNL1        0.2661
     16 N         -25.6140    5.2520   26.4490 N.am    1  UNL1       -0.1997
     17 C         -25.0260    6.4790   26.9630 C.3     1  UNL1        0.1388
     18 O         -25.1430    3.9660   28.2430 O.2     1  UNL1       -0.2683
     19 C         -27.4380    3.0910   25.6450 C.2     1  UNL1        0.1064
     20 N         -28.0750    2.0890   25.0030 N.2     1  UNL1       -0.2081
     21 C         -27.5430    0.8490   25.0790 C.2     1  UNL1        0.2530
     22 O         -28.1930   -0.2080   24.4770 O.2     1  UNL1       -0.4558
     23 C         -29.4600    0.0050   23.8660 C.3     1  UNL1        0.2426
     24 C         -30.0650   -1.3770   23.5730 C.3     1  UNL1        0.2292
     25 O         -30.7290   -1.8780   24.7210 O.3     1  UNL1       -0.2162
     26 C         -26.3540    0.5760   25.7770 C.2     1  UNL1        0.1892
     27 F         -25.8600   -0.6810   25.7950 F       1  UNL1       -0.1996
     28 C         -23.0875    1.7795   26.6898 C.3     1  UNL1        0.0058
     29 C         -21.8325    1.8329   27.6132 C.3     1  UNL1        0.0004
     30 C         -27.4847    1.2515   29.6626 C.3     1  UNL1        0.0867
     31 O         -27.4002   -0.7141   28.3124 O.2     1  UNL1       -0.2749
     32 C         -24.3712    1.3068   27.1111 C.3     1  UNL1        0.0447
     33 C         -28.7177    0.4460   30.0200 C.3     1  UNL1        0.0269
     34 N         -25.3631   -0.0626   29.1135 N.am    1  UNL1       -0.2757
     35 C         -31.5343    2.0534   32.7509 C.3     1  UNL1        0.0188
     36 C         -24.4527    0.2974   28.0362 C.3     1  UNL1        0.0981
     37 N         -30.5422    0.3867   31.4870 N.3     1  UNL1       -0.2727
     38 C         -31.0282    1.4201   30.5647 C.3     1  UNL1        0.0721
     39 C         -29.0093    0.4435   31.4567 C.3     1  UNL1        0.0726
     40 C         -26.7536    0.1080   28.9779 C.2     1  UNL1        0.2259
     41 C         -22.8680    2.2343   25.2801 C.3     1  UNL1        0.0004
     42 C         -31.1320    0.6413   32.7937 C.3     1  UNL1        0.0721
     43 C         -32.1489    2.0849   31.3655 C.3     1  UNL1        0.0188
@<TRIPOS>BOND
     1     1    34    1
     2     2     7    1
     3     2     1    1
     4     3     2    2
     5     4     3    1
     6     4     5    2
     7     5     6    1
     8     6     7    2
     9     8     1    1
    10     8     9    1
    11     8    12    1
    12     9    10    1
    13    10    11    1
    14    12    11    1
    15    13    32    1
    16    14    13    1
    17    14    15    1
    18    15    18    2
    19    16    17    1
    20    16    15    1
    21    19    14    2
    22    20    21    2
    23    20    19    1
    24    21    26    1
    25    22    21    1
    26    23    22    1
    27    24    23    1
    28    24    25    1
    29    26    27    1
    30    26    13    2
    31    28    32    1
    32    28    29    1
    33    30    33    1
    34    31    40    2
    35    32    36    1
    36    33    39    1
    37    35    42    1
    38    36    34    1
    39    37    42    1
    40    38    43    1
    41    38    37    1
    42    39    37    1
    43    40    34   am
    44    40    30    1
    45    41    28    1
    46    43    35    1
