@<TRIPOS>MOLECULE
outputs/IAG933/test6/raw/output_7516_IAG933_linker_design_.xyz
 44 48 0 0 0
SMALL
GASTEIGER

@<TRIPOS>ATOM
      1 C         -24.8550   -1.0120   30.1430 C.3     1  UNL1        0.0735
      2 C         -24.9730   -2.5050   29.7880 C.2     1  UNL1       -0.0163
      3 C         -23.9060   -3.1730   29.1460 C.2     1  UNL1       -0.0039
      4 C         -23.9890   -4.5490   28.8530 C.2     1  UNL1       -0.0003
      5 C         -25.1370   -5.2800   29.2050 C.2     1  UNL1       -0.0000
      6 C         -26.2320   -4.6110   29.7840 C.2     1  UNL1       -0.0003
      7 C         -26.1550   -3.2320   30.0650 C.2     1  UNL1       -0.0039
      8 C         -25.3870   -0.6790   31.5710 C.3     1  UNL1        0.0816
      9 C         -25.1890    0.7730   32.0280 C.3     1  UNL1        0.0195
     10 C         -25.3360    0.6840   33.5440 C.3     1  UNL1        0.0203
     11 C         -24.8290   -0.7150   33.9050 C.3     1  UNL1        0.0887
     12 N         -24.7580   -1.4810   32.6460 N.3     1  UNL1       -0.2188
     13 C         -25.6880    1.6140   26.4610 C.2     1  UNL1        0.1839
     14 C         -26.2500    2.9200   26.3950 C.2     1  UNL1        0.1140
     15 C         -25.6420    4.0930   27.1230 C.2     1  UNL1        0.2698
     16 N         -25.6140    5.2520   26.4490 N.am    1  UNL1       -0.1996
     17 C         -25.0260    6.4790   26.9630 C.3     1  UNL1        0.1388
     18 O         -25.1430    3.9660   28.2430 O.2     1  UNL1       -0.2682
     19 C         -27.4380    3.0910   25.6450 C.2     1  UNL1        0.1102
     20 N         -28.0750    2.0890   25.0030 N.2     1  UNL1       -0.2078
     21 C         -27.5430    0.8490   25.0790 C.2     1  UNL1        0.2568
     22 O         -28.1930   -0.2080   24.4770 O.2     1  UNL1       -0.4557
     23 C         -29.4600    0.0050   23.8660 C.3     1  UNL1        0.2426
     24 C         -30.0650   -1.3770   23.5730 C.3     1  UNL1        0.2292
     25 O         -30.7290   -1.8780   24.7210 O.3     1  UNL1       -0.2162
     26 C         -26.3540    0.5760   25.7770 C.2     1  UNL1        0.2301
     27 F         -25.8600   -0.6810   25.7950 F       1  UNL1       -0.1956
     28 O         -22.9546    2.2261   25.6384 O.2     1  UNL1       -0.2402
     29 C         -25.3234   -0.2615   28.9402 C.2     1  UNL1        0.0887
     30 C         -27.4121    2.9890   30.6197 C.2     1  UNL1       -0.0213
     31 C         -22.3298    1.1987   27.7630 C.3     1  UNL1        0.3838
     32 C         -27.9591    4.4828   32.4927 C.2     1  UNL1       -0.0003
     33 C         -25.8557    4.8193   31.2270 C.2     1  UNL1       -0.0003
     34 C         -27.8929    2.0364   29.5395 C.3     1  UNL1        0.0383
     35 C         -28.2729    3.3509   31.6900 C.2     1  UNL1       -0.0042
     36 N         -22.8312    0.3559   28.6020 N.pl3   1  UNL1       -0.0099
     37 C         -26.1575    3.6443   30.5010 C.2     1  UNL1       -0.0042
     38 C         -26.7898    5.2852   32.2270 C.2     1  UNL1       -0.0000
     39 C         -24.1293    0.4431   28.2414 C.2     1  UNL1        0.3236
     40 C         -23.2356    1.6126   26.7691 C.2     1  UNL1        0.3812
     41 CL        -20.6917    1.6684   27.9286 Cl      1  UNL1       -0.0493
     42 N         -24.4584    1.2761   27.1377 N.am    1  UNL1       -0.1145
     43 S         -27.0850   -0.5628   28.5719 S.3     1  UNL1       -0.1102
     44 C         -27.8956    0.6722   29.4360 C.3     1  UNL1        0.0668
@<TRIPOS>BOND
     1     1    29    1
     2     2     7    1
     3     2     1    1
     4     3     2    2
     5     4     3    1
     6     4     5    2
     7     5     6    1
     8     6     7    2
     9     8     1    1
    10     8     9    1
    11     8    12    1
    12     9    10    1
    13    10    11    1
    14    12    11    1
    15    13    42    1
    16    14    13    1
    17    14    15    1
    18    15    18    2
    19    16    17    1
    20    16    15    1
    21    19    14    2
    22    20    21    2
    23    20    19    1
    24    21    26    1
    25    22    21    1
    26    23    22    1
    27    24    23    1
    28    24    25    1
    29    26    27    1
    30    26    13    2
    31    28    40    2
    32    30    35    1
    33    31    41    1
    34    31    36    1
    35    33    38    2
    36    34    30    1
    37    35    32    2
    38    37    30    2
    39    37    33    1
    40    38    32    1
    41    39    36    1
    42    39    29    2
    43    40    42   am
    44    40    31    1
    45    42    39    1
    46    43    29    1
    47    43    44    1
    48    44    34    1
