@<TRIPOS>MOLECULE
outputs/IAG933/test6/raw/output_7517_IAG933_linker_design_.xyz
 42 45 0 0 0
SMALL
GASTEIGER

@<TRIPOS>ATOM
      1 C         -24.8550   -1.0120   30.1430 C.3     1  UNL1        0.0625
      2 C         -24.9730   -2.5050   29.7880 C.2     1  UNL1       -0.0191
      3 C         -23.9060   -3.1730   29.1460 C.2     1  UNL1       -0.0042
      4 C         -23.9890   -4.5490   28.8530 C.2     1  UNL1       -0.0003
      5 C         -25.1370   -5.2800   29.2050 C.2     1  UNL1       -0.0000
      6 C         -26.2320   -4.6110   29.7840 C.2     1  UNL1       -0.0003
      7 C         -26.1550   -3.2320   30.0650 C.2     1  UNL1       -0.0042
      8 C         -25.3870   -0.6790   31.5710 C.3     1  UNL1        0.0788
      9 C         -25.1890    0.7730   32.0280 C.3     1  UNL1        0.0193
     10 C         -25.3360    0.6840   33.5440 C.3     1  UNL1        0.0202
     11 C         -24.8290   -0.7150   33.9050 C.3     1  UNL1        0.0887
     12 N         -24.7580   -1.4810   32.6460 N.3     1  UNL1       -0.2191
     13 C         -25.6880    1.6140   26.4610 C.2     1  UNL1        0.0401
     14 C         -26.2500    2.9200   26.3950 C.2     1  UNL1        0.0766
     15 C         -25.6420    4.0930   27.1230 C.2     1  UNL1        0.2664
     16 N         -25.6140    5.2520   26.4490 N.am    1  UNL1       -0.1997
     17 C         -25.0260    6.4790   26.9630 C.3     1  UNL1        0.1388
     18 O         -25.1430    3.9660   28.2430 O.2     1  UNL1       -0.2683
     19 C         -27.4380    3.0910   25.6450 C.2     1  UNL1        0.1067
     20 N         -28.0750    2.0890   25.0030 N.2     1  UNL1       -0.2081
     21 C         -27.5430    0.8490   25.0790 C.2     1  UNL1        0.2533
     22 O         -28.1930   -0.2080   24.4770 O.2     1  UNL1       -0.4558
     23 C         -29.4600    0.0050   23.8660 C.3     1  UNL1        0.2426
     24 C         -30.0650   -1.3770   23.5730 C.3     1  UNL1        0.2292
     25 O         -30.7290   -1.8780   24.7210 O.3     1  UNL1       -0.2162
     26 C         -26.3540    0.5760   25.7770 C.2     1  UNL1        0.1931
     27 F         -25.8600   -0.6810   25.7950 F       1  UNL1       -0.1992
     28 F         -23.1559    1.7972   25.0361 F       1  UNL1       -0.2018
     29 O         -27.5945   -0.6623   28.4795 O.2     1  UNL1       -0.2733
     30 C         -24.1279    0.5127   28.2985 C.ar    1  UNL1        0.0273
     31 C         -28.6592    1.0467   29.9202 C.3     1  UNL1        0.0964
     32 F         -20.9656    2.5300   26.5528 F       1  UNL1       -0.2021
     33 C         -21.8855    1.6783   26.9628 C.ar    1  UNL1        0.1655
     34 C         -27.4535    0.3949   29.0845 C.2     1  UNL1        0.2421
     35 C         -22.7558    0.1161   28.6235 C.ar    1  UNL1        0.1360
     36 N         -26.2775    1.0728   29.1733 N.am    1  UNL1       -0.2022
     37 C         -24.3640    1.2536   27.0678 C.ar    1  UNL1        0.0320
     38 C         -25.2114    0.3841   29.0664 C.3     1  UNL1        0.1250
     39 C         -20.2979    0.2874   28.3852 C.3     1  UNL1        0.0358
     40 C         -23.1917    1.6304   26.3385 C.ar    1  UNL1        0.1670
     41 C         -21.6260    0.7276   27.9876 C.ar    1  UNL1        0.0350
     42 F         -22.4367   -0.8145   29.5356 F       1  UNL1       -0.2047
@<TRIPOS>BOND
     1     1    38    1
     2     2     7    1
     3     2     1    1
     4     3     2    2
     5     4     3    1
     6     4     5    2
     7     5     6    1
     8     6     7    2
     9     8     1    1
    10     8     9    1
    11     8    12    1
    12     9    10    1
    13    10    11    1
    14    12    11    1
    15    13    37    1
    16    14    13    1
    17    14    15    1
    18    15    18    2
    19    16    17    1
    20    16    15    1
    21    19    14    2
    22    20    21    2
    23    20    19    1
    24    21    26    1
    25    22    21    1
    26    23    22    1
    27    24    23    1
    28    24    25    1
    29    26    27    1
    30    26    13    2
    31    28    40    1
    32    29    34    2
    33    30    35   ar
    34    30    38    1
    35    32    33    1
    36    33    41   ar
    37    34    36    1
    38    34    31    1
    39    35    42    1
    40    37    30   ar
    41    38    36    1
    42    40    33   ar
    43    40    37   ar
    44    41    39    1
    45    41    35   ar
