@<TRIPOS>MOLECULE
outputs/IAG933/test6/raw/output_7523_IAG933_linker_design_.xyz
 44 48 0 0 0
SMALL
GASTEIGER

@<TRIPOS>ATOM
      1 C         -24.8550   -1.0120   30.1430 C.3     1  UNL1        0.0424
      2 C         -24.9730   -2.5050   29.7880 C.2     1  UNL1       -0.0208
      3 C         -23.9060   -3.1730   29.1460 C.2     1  UNL1       -0.0042
      4 C         -23.9890   -4.5490   28.8530 C.2     1  UNL1       -0.0003
      5 C         -25.1370   -5.2800   29.2050 C.2     1  UNL1       -0.0000
      6 C         -26.2320   -4.6110   29.7840 C.2     1  UNL1       -0.0003
      7 C         -26.1550   -3.2320   30.0650 C.2     1  UNL1       -0.0042
      8 C         -25.3870   -0.6790   31.5710 C.3     1  UNL1        0.0771
      9 C         -25.1890    0.7730   32.0280 C.3     1  UNL1        0.0192
     10 C         -25.3360    0.6840   33.5440 C.3     1  UNL1        0.0202
     11 C         -24.8290   -0.7150   33.9050 C.3     1  UNL1        0.0887
     12 N         -24.7580   -1.4810   32.6460 N.3     1  UNL1       -0.2191
     13 C         -25.6880    1.6140   26.4610 C.2     1  UNL1        0.0409
     14 C         -26.2500    2.9200   26.3950 C.2     1  UNL1        0.0766
     15 C         -25.6420    4.0930   27.1230 C.2     1  UNL1        0.2664
     16 N         -25.6140    5.2520   26.4490 N.am    1  UNL1       -0.1997
     17 C         -25.0260    6.4790   26.9630 C.3     1  UNL1        0.1388
     18 O         -25.1430    3.9660   28.2430 O.2     1  UNL1       -0.2683
     19 C         -27.4380    3.0910   25.6450 C.2     1  UNL1        0.1067
     20 N         -28.0750    2.0890   25.0030 N.2     1  UNL1       -0.2081
     21 C         -27.5430    0.8490   25.0790 C.2     1  UNL1        0.2533
     22 O         -28.1930   -0.2080   24.4770 O.2     1  UNL1       -0.4558
     23 C         -29.4600    0.0050   23.8660 C.3     1  UNL1        0.2426
     24 C         -30.0650   -1.3770   23.5730 C.3     1  UNL1        0.2292
     25 O         -30.7290   -1.8780   24.7210 O.3     1  UNL1       -0.2162
     26 C         -26.3540    0.5760   25.7770 C.2     1  UNL1        0.1931
     27 F         -25.8600   -0.6810   25.7950 F       1  UNL1       -0.1992
     28 C         -27.7209    2.1252   30.2729 C.3     1  UNL1        0.0296
     29 O         -29.0751    2.2565   29.8086 O.3     1  UNL1       -0.3563
     30 C         -27.6723    2.4453   31.7182 C.3     1  UNL1        0.0051
     31 C         -27.0751   -0.4200   28.5857 C.3     1  UNL1        0.0073
     32 F         -22.5717    0.1195   29.9775 F       1  UNL1       -0.2045
     33 C         -22.0380    1.4970   27.1751 C.2     1  UNL1        0.0443
     34 C         -29.0523    2.9337   32.0617 C.3     1  UNL1        0.0322
     35 C         -25.5867   -0.1235   29.1214 C.3     1  UNL1        0.0301
     36 C         -28.5735    0.9726   29.9902 C.3     1  UNL1        0.1152
     37 C         -28.7009   -0.0496   28.8545 C.3     1  UNL1        0.0299
     38 C         -24.4672    1.3040   27.1768 C.2     1  UNL1        0.0397
     39 C         -29.7398    3.1585   30.6919 C.3     1  UNL1        0.1420
     40 C         -23.2620    1.7844   26.6361 C.2     1  UNL1        0.1956
     41 C         -23.1558    0.2766   28.8596 C.2     1  UNL1        0.1363
     42 C         -24.4201    0.4787   28.3540 C.2     1  UNL1        0.0085
     43 C         -22.0035    0.5922   28.2269 C.2     1  UNL1        0.0326
     44 O         -23.2515    2.6240   25.5294 O.2     1  UNL1       -0.2866
@<TRIPOS>BOND
     1     1    35    1
     2     2     7    1
     3     2     1    1
     4     3     2    2
     5     4     3    1
     6     4     5    2
     7     5     6    1
     8     6     7    2
     9     8     1    1
    10     8     9    1
    11     8    12    1
    12     9    10    1
    13    10    11    1
    14    12    11    1
    15    13    38    1
    16    14    13    1
    17    14    15    1
    18    15    18    2
    19    16    17    1
    20    16    15    1
    21    19    14    2
    22    20    21    2
    23    20    19    1
    24    21    26    1
    25    22    21    1
    26    23    22    1
    27    24    23    1
    28    24    25    1
    29    26    27    1
    30    26    13    2
    31    28    30    1
    32    29    36    1
    33    29    39    1
    34    30    34    1
    35    31    37    1
    36    33    43    1
    37    35    31    1
    38    36    37    1
    39    36    28    1
    40    38    42    2
    41    39    34    1
    42    40    33    2
    43    40    38    1
    44    41    32    1
    45    42    41    1
    46    42    35    1
    47    43    41    2
    48    44    40    1
