@<TRIPOS>MOLECULE
outputs/IAG933/test6/raw/output_7528_IAG933_linker_design_.xyz
 59 65 0 0 0
SMALL
GASTEIGER

@<TRIPOS>ATOM
      1 C         -24.8550   -1.0120   30.1430 C.3     1  UNL1        0.0437
      2 C         -24.9730   -2.5050   29.7880 C.2     1  UNL1       -0.0208
      3 C         -23.9060   -3.1730   29.1460 C.2     1  UNL1       -0.0042
      4 C         -23.9890   -4.5490   28.8530 C.2     1  UNL1       -0.0003
      5 C         -25.1370   -5.2800   29.2050 C.2     1  UNL1       -0.0000
      6 C         -26.2320   -4.6110   29.7840 C.2     1  UNL1       -0.0003
      7 C         -26.1550   -3.2320   30.0650 C.2     1  UNL1       -0.0042
      8 C         -25.3870   -0.6790   31.5710 C.3     1  UNL1        0.0771
      9 C         -25.1890    0.7730   32.0280 C.3     1  UNL1        0.0179
     10 C         -25.3360    0.6840   33.5440 C.3     1  UNL1        0.0202
     11 C         -24.8290   -0.7150   33.9050 C.3     1  UNL1        0.0887
     12 N         -24.7580   -1.4810   32.6460 N.3     1  UNL1       -0.2191
     13 C         -25.6880    1.6140   26.4610 C.2     1  UNL1        0.0156
     14 C         -26.2500    2.9200   26.3950 C.2     1  UNL1        0.0726
     15 C         -25.6420    4.0930   27.1230 C.2     1  UNL1        0.2661
     16 N         -25.6140    5.2520   26.4490 N.am    1  UNL1       -0.1997
     17 C         -25.0260    6.4790   26.9630 C.3     1  UNL1        0.1388
     18 O         -25.1430    3.9660   28.2430 O.2     1  UNL1       -0.2683
     19 C         -27.4380    3.0910   25.6450 C.2     1  UNL1        0.1064
     20 N         -28.0750    2.0890   25.0030 N.2     1  UNL1       -0.2081
     21 C         -27.5430    0.8490   25.0790 C.2     1  UNL1        0.2530
     22 O         -28.1930   -0.2080   24.4770 O.2     1  UNL1       -0.4558
     23 C         -29.4600    0.0050   23.8660 C.3     1  UNL1        0.2426
     24 C         -30.0650   -1.3770   23.5730 C.3     1  UNL1        0.2292
     25 O         -30.7290   -1.8780   24.7210 O.3     1  UNL1       -0.2162
     26 C         -26.3540    0.5760   25.7770 C.2     1  UNL1        0.1891
     27 F         -25.8600   -0.6810   25.7950 F       1  UNL1       -0.1996
     28 C         -25.0097    2.7284   30.2785 C.3     1  UNL1        0.0025
     29 N         -28.1895    5.0056   31.0425 N.3     1  UNL1       -0.2095
     30 C         -27.3539    5.8551   30.3888 C.3     1  UNL1        0.1765
     31 C         -24.1871    1.2919   27.1051 C.3     1  UNL1        0.0249
     32 C         -28.7788    0.2188   30.6353 C.3     1  UNL1        0.0000
     33 C         -25.9898    5.3709   30.4256 C.3     1  UNL1        0.1399
     34 C         -21.7794    1.7168   27.9780 C.3     1  UNL1        0.0003
     35 C         -26.5728    8.6853   31.7766 C.3     1  UNL1        0.2403
     36 C         -26.2880    7.7472   32.9038 C.3     1  UNL1        0.0573
     37 O         -25.1526    6.5380   30.3324 O.3     1  UNL1       -0.3543
     38 C         -30.0940    2.8637   30.3914 C.3     1  UNL1        0.0014
     39 O         -25.8374    9.8218   31.7238 O.3     1  UNL1       -0.1704
     40 C         -27.8594    3.5954   31.1887 C.3     1  UNL1        0.0733
     41 N         -27.6354    8.3062   30.6591 N.am    1  UNL1       -0.1840
     42 C         -24.7139    1.0784   28.5054 C.3     1  UNL1        0.0044
     43 C         -30.8646    1.5634   30.2628 C.3     1  UNL1        0.0000
     44 C         -30.2709    0.2728   30.7871 C.3     1  UNL1        0.0000
     45 C         -27.6745    7.0534   29.8515 C.2     1  UNL1        0.2527
     46 O         -27.8887    7.2949   28.5065 O.2     1  UNL1       -0.2728
     47 O         -29.7297    8.7881   29.7394 O.2     1  UNL1       -0.2485
     48 O         -25.8039   10.5315   32.8935 O.3     1  UNL1       -0.0330
     49 C         -24.0464    2.0560   29.4768 C.3     1  UNL1        0.0004
     50 C         -24.3419    6.9000   31.4873 C.3     1  UNL1        0.1423
     51 C         -28.5137    2.8001   30.2031 C.3     1  UNL1        0.0161
     52 C         -28.7773    9.1682   30.4191 C.2     1  UNL1        0.3505
     53 C         -28.1007    1.4081   29.8111 C.3     1  UNL1        0.0014
     54 C         -25.6298    4.0854   30.6219 C.3     1  UNL1        0.0305
     55 C         -26.4331    3.3401   31.7060 C.3     1  UNL1        0.0185
     56 N         -28.8911   10.5819   30.9570 N.am    1  UNL1       -0.0688
     57 C         -26.0114    1.9207   31.4324 C.3     1  UNL1        0.0029
     58 C         -24.7202    7.6633   32.8084 C.3     1  UNL1        0.0365
     59 C         -22.8880    1.8396   26.9903 C.3     1  UNL1        0.0044
@<TRIPOS>BOND
     1     2     7    1
     2     2     1    1
     3     3     2    2
     4     4     3    1
     5     4     5    2
     6     5     6    1
     7     6     7    2
     8     8     1    1
     9     8     9    1
    10     8    12    1
    11     9    10    1
    12    10    11    1
    13    12    11    1
    14    13    31    1
    15    14    13    1
    16    14    15    1
    17    15    18    2
    18    16    17    1
    19    16    15    1
    20    19    14    2
    21    20    21    2
    22    20    19    1
    23    21    26    1
    24    22    21    1
    25    23    22    1
    26    24    23    1
    27    24    25    1
    28    26    27    1
    29    26    13    2
    30    28    49    1
    31    28    54    1
    32    28    57    1
    33    29    40    1
    34    30    45    1
    35    30    33    1
    36    30    29    1
    37    31    59    1
    38    31    42    1
    39    32    44    1
    40    33    37    1
    41    33    54    1
    42    35    39    1
    43    35    36    1
    44    37    50    1
    45    39    48    1
    46    40    51    1
    47    40    55    1
    48    41    35    1
    49    42    49    1
    50    43    38    1
    51    43    44    1
    52    45    41   am
    53    46    45    2
    54    47    52    2
    55    50    58    1
    56    51    38    1
    57    52    41   am
    58    52    56    1
    59    53    51    1
    60    53    32    1
    61    54    55    1
    62    57    55    1
    63    57     9    1
    64    58    36    1
    65    59    34    1
