@<TRIPOS>MOLECULE
outputs/IAG933/test6/raw/output_753_IAG933_linker_design_.xyz
 46 51 0 0 0
SMALL
GASTEIGER

@<TRIPOS>ATOM
      1 C         -24.8550   -1.0120   30.1430 C.3     1  UNL1        0.0978
      2 C         -24.9730   -2.5050   29.7880 C.2     1  UNL1       -0.0064
      3 C         -23.9060   -3.1730   29.1460 C.2     1  UNL1       -0.0029
      4 C         -23.9890   -4.5490   28.8530 C.2     1  UNL1       -0.0003
      5 C         -25.1370   -5.2800   29.2050 C.2     1  UNL1       -0.0000
      6 C         -26.2320   -4.6110   29.7840 C.2     1  UNL1       -0.0003
      7 C         -26.1550   -3.2320   30.0650 C.2     1  UNL1       -0.0029
      8 C         -25.3870   -0.6790   31.5710 C.3     1  UNL1        0.0916
      9 C         -25.1890    0.7730   32.0280 C.3     1  UNL1        0.0206
     10 C         -25.3360    0.6840   33.5440 C.3     1  UNL1        0.0203
     11 C         -24.8290   -0.7150   33.9050 C.3     1  UNL1        0.0888
     12 N         -24.7580   -1.4810   32.6460 N.3     1  UNL1       -0.2178
     13 C         -25.6880    1.6140   26.4610 C.2     1  UNL1        0.0933
     14 C         -26.2500    2.9200   26.3950 C.2     1  UNL1        0.0903
     15 C         -25.6420    4.0930   27.1230 C.2     1  UNL1        0.2676
     16 N         -25.6140    5.2520   26.4490 N.am    1  UNL1       -0.1997
     17 C         -25.0260    6.4790   26.9630 C.3     1  UNL1        0.1388
     18 O         -25.1430    3.9660   28.2430 O.2     1  UNL1       -0.2683
     19 C         -27.4380    3.0910   25.6450 C.2     1  UNL1        0.1080
     20 N         -28.0750    2.0890   25.0030 N.2     1  UNL1       -0.2080
     21 C         -27.5430    0.8490   25.0790 C.2     1  UNL1        0.2546
     22 O         -28.1930   -0.2080   24.4770 O.2     1  UNL1       -0.4558
     23 C         -29.4600    0.0050   23.8660 C.3     1  UNL1        0.2426
     24 C         -30.0650   -1.3770   23.5730 C.3     1  UNL1        0.2292
     25 O         -30.7290   -1.8780   24.7210 O.3     1  UNL1       -0.2162
     26 C         -26.3540    0.5760   25.7770 C.2     1  UNL1        0.2067
     27 F         -25.8600   -0.6810   25.7950 F       1  UNL1       -0.1979
     28 C         -26.6347    1.4701   29.3668 C.2     1  UNL1        0.0040
     29 C         -29.5710    2.5882   31.2699 C.2     1  UNL1        0.0256
     30 C         -25.2176    1.0013   28.9503 C.3     1  UNL1        0.1635
     31 N         -29.0432    3.7192   31.8628 N.pl3   1  UNL1       -0.3008
     32 C         -22.3669    1.0453   28.2322 C.3     1  UNL1        0.2437
     33 O         -20.9820    1.3352   27.8668 O.3     1  UNL1       -0.2117
     34 C         -22.7533   -0.0337   29.3925 C.3     1  UNL1        0.1167
     35 N         -24.2342    0.1545   29.5303 N.3     1  UNL1       -0.2478
     36 C         -31.2462    2.1690   33.0428 C.3     1  UNL1        0.0932
     37 O         -22.8703    2.3897   26.3331 O.2     1  UNL1       -0.2717
     38 C         -29.7207    4.1793   33.0415 C.3     1  UNL1        0.1565
     39 C         -23.3288    1.9001   27.4241 C.2     1  UNL1        0.2625
     40 C         -30.5734    1.7531   31.8503 C.2     1  UNL1       -0.0079
     41 C         -28.8198    2.3414   30.1038 C.3     1  UNL1        0.0641
     42 N         -24.6418    1.4734   27.4716 N.am    1  UNL1       -0.2382
     43 C         -27.5724    2.6497   30.2943 C.2     1  UNL1       -0.0202
     44 C         -27.6614    3.8507   31.2958 C.3     1  UNL1        0.1137
     45 C         -30.6352    3.2744   33.7211 C.2     1  UNL1        0.1749
     46 O         -30.8892    3.3288   34.9509 O.2     1  UNL1       -0.2939
@<TRIPOS>BOND
     1     1     2    1
     2     2     7    1
     3     3     2    2
     4     4     3    1
     5     4     5    2
     6     5     6    1
     7     6     7    2
     8     8     1    1
     9     8     9    1
    10     8    12    1
    11     9    10    1
    12    10    11    1
    13    12    11    1
    14    13    42    1
    15    14    13    1
    16    14    15    1
    17    15    18    2
    18    16    17    1
    19    16    15    1
    20    19    14    2
    21    20    21    2
    22    20    19    1
    23    21    26    1
    24    22    21    1
    25    23    22    1
    26    24    23    1
    27    24    25    1
    28    26    27    1
    29    26    13    2
    30    28    43    2
    31    29    40    2
    32    29    31    1
    33    30    28    1
    34    30    35    1
    35    31    38    1
    36    32    33    1
    37    32    34    1
    38    34    35    1
    39    35     1    1
    40    36    45    1
    41    37    39    2
    42    38    45    1
    43    39    42   am
    44    39    32    1
    45    40    36    1
    46    41    43    1
    47    41    29    1
    48    42    30    1
    49    43    44    1
    50    44    31    1
    51    45    46    2
