@<TRIPOS>MOLECULE
outputs/IAG933/test6/raw/output_7532_IAG933_linker_design_.xyz
 41 44 0 0 0
SMALL
GASTEIGER

@<TRIPOS>ATOM
      1 C         -24.8550   -1.0120   30.1430 C.3     1  UNL1        0.1173
      2 C         -24.9730   -2.5050   29.7880 C.2     1  UNL1       -0.0048
      3 C         -23.9060   -3.1730   29.1460 C.2     1  UNL1       -0.0029
      4 C         -23.9890   -4.5490   28.8530 C.2     1  UNL1       -0.0003
      5 C         -25.1370   -5.2800   29.2050 C.2     1  UNL1       -0.0000
      6 C         -26.2320   -4.6110   29.7840 C.2     1  UNL1       -0.0003
      7 C         -26.1550   -3.2320   30.0650 C.2     1  UNL1       -0.0029
      8 C         -25.3870   -0.6790   31.5710 C.3     1  UNL1        0.0932
      9 C         -25.1890    0.7730   32.0280 C.3     1  UNL1        0.0206
     10 C         -25.3360    0.6840   33.5440 C.3     1  UNL1        0.0203
     11 C         -24.8290   -0.7150   33.9050 C.3     1  UNL1        0.0888
     12 N         -24.7580   -1.4810   32.6460 N.3     1  UNL1       -0.2177
     13 C         -25.6880    1.6140   26.4610 C.3     1  UNL1        0.0941
     14 C         -26.2500    2.9200   26.3950 C.2     1  UNL1        0.0565
     15 C         -25.6420    4.0930   27.1230 C.2     1  UNL1        0.2625
     16 N         -25.6140    5.2520   26.4490 N.am    1  UNL1       -0.2000
     17 C         -25.0260    6.4790   26.9630 C.3     1  UNL1        0.1388
     18 O         -25.1430    3.9660   28.2430 O.2     1  UNL1       -0.2687
     19 C         -27.4380    3.0910   25.6450 C.2     1  UNL1        0.1022
     20 N         -28.0750    2.0890   25.0030 N.2     1  UNL1       -0.2119
     21 C         -27.5430    0.8490   25.0790 C.2     1  UNL1        0.2341
     22 O         -28.1930   -0.2080   24.4770 O.2     1  UNL1       -0.4585
     23 C         -29.4600    0.0050   23.8660 C.3     1  UNL1        0.2423
     24 C         -30.0650   -1.3770   23.5730 C.3     1  UNL1        0.2292
     25 O         -30.7290   -1.8780   24.7210 O.3     1  UNL1       -0.2162
     26 C         -26.3540    0.5760   25.7770 C.3     1  UNL1        0.2417
     27 F         -25.8600   -0.6810   25.7950 F       1  UNL1       -0.2268
     28 O         -26.1987    1.7222   29.5270 O.2     1  UNL1       -0.1573
     29 C         -21.3897   -1.1043   29.0953 C.3     1  UNL1        0.0250
     30 C         -21.7711    1.3349   26.8716 C.2     1  UNL1        0.2452
     31 C         -23.0313    2.5854   26.3534 C.3     1  UNL1        0.1930
     32 S         -25.5327    0.6960   28.7418 S.O2    1  UNL1        0.0434
     33 O         -20.9193    1.6080   25.8005 O.2     1  UNL1       -0.2732
     34 C         -23.1363    1.4415   26.8819 C.3     1  UNL1        0.1348
     35 C         -23.1360    0.6873   29.5997 C.3     1  UNL1        0.1173
     36 C         -21.9179    0.1669   28.8683 C.3     1  UNL1        0.1130
     37 N         -20.9612    0.8161   28.0092 N.am    1  UNL1       -0.2056
     38 O         -26.6215   -0.2770   28.2638 O.2     1  UNL1       -0.1573
     39 C         -24.6931    1.5709   27.5650 C.3     1  UNL1        0.1643
     40 O         -23.4848    3.5253   25.5816 O.3     1  UNL1       -0.2198
     41 N         -24.3754   -0.0817   29.3380 N.3     1  UNL1       -0.1536
@<TRIPOS>BOND
     1     1     2    1
     2     2     7    1
     3     3     2    2
     4     4     3    1
     5     4     5    2
     6     5     6    1
     7     6     7    2
     8     8     1    1
     9     8     9    1
    10     8    12    1
    11     9    10    1
    12    10    11    1
    13    12    11    1
    14    13    14    1
    15    14    15    1
    16    15    18    2
    17    16    17    1
    18    16    15    1
    19    19    14    2
    20    20    21    2
    21    20    19    1
    22    21    26    1
    23    22    21    1
    24    23    22    1
    25    24    23    1
    26    24    25    1
    27    26    27    1
    28    26    13    1
    29    30    34    1
    30    30    37    1
    31    32    41    1
    32    32    28    2
    33    33    30    2
    34    34    31    1
    35    34    39    1
    36    36    29    1
    37    36    35    1
    38    37    36    1
    39    38    32    2
    40    39    13    1
    41    39    32    1
    42    40    31    1
    43    41    35    1
    44    41     1    1
