@<TRIPOS>MOLECULE
outputs/IAG933/test6/raw/output_7537_IAG933_linker_design_.xyz
 45 49 0 0 0
SMALL
GASTEIGER

@<TRIPOS>ATOM
      1 C         -24.8550   -1.0120   30.1430 C.3     1  UNL1        0.0414
      2 C         -24.9730   -2.5050   29.7880 C.2     1  UNL1       -0.0210
      3 C         -23.9060   -3.1730   29.1460 C.2     1  UNL1       -0.0042
      4 C         -23.9890   -4.5490   28.8530 C.2     1  UNL1       -0.0003
      5 C         -25.1370   -5.2800   29.2050 C.2     1  UNL1       -0.0000
      6 C         -26.2320   -4.6110   29.7840 C.2     1  UNL1       -0.0003
      7 C         -26.1550   -3.2320   30.0650 C.2     1  UNL1       -0.0042
      8 C         -25.3870   -0.6790   31.5710 C.3     1  UNL1        0.0929
      9 C         -25.1890    0.7730   32.0280 C.3     1  UNL1        0.0930
     10 C         -25.3360    0.6840   33.5440 C.3     1  UNL1        0.0377
     11 C         -24.8290   -0.7150   33.9050 C.3     1  UNL1        0.0902
     12 N         -24.7580   -1.4810   32.6460 N.3     1  UNL1       -0.2177
     13 C         -25.6880    1.6140   26.4610 C.2     1  UNL1        0.0871
     14 C         -26.2500    2.9200   26.3950 C.2     1  UNL1        0.0899
     15 C         -25.6420    4.0930   27.1230 C.2     1  UNL1        0.2676
     16 N         -25.6140    5.2520   26.4490 N.am    1  UNL1       -0.1997
     17 C         -25.0260    6.4790   26.9630 C.3     1  UNL1        0.1388
     18 O         -25.1430    3.9660   28.2430 O.2     1  UNL1       -0.2683
     19 C         -27.4380    3.0910   25.6450 C.2     1  UNL1        0.1080
     20 N         -28.0750    2.0890   25.0030 N.2     1  UNL1       -0.2080
     21 C         -27.5430    0.8490   25.0790 C.2     1  UNL1        0.2546
     22 O         -28.1930   -0.2080   24.4770 O.2     1  UNL1       -0.4558
     23 C         -29.4600    0.0050   23.8660 C.3     1  UNL1        0.2426
     24 C         -30.0650   -1.3770   23.5730 C.3     1  UNL1        0.2292
     25 O         -30.7290   -1.8780   24.7210 O.3     1  UNL1       -0.2162
     26 C         -26.3540    0.5760   25.7770 C.2     1  UNL1        0.2063
     27 F         -25.8600   -0.6810   25.7950 F       1  UNL1       -0.1979
     28 C         -25.3974   -0.0526   29.2678 C.3     1  UNL1        0.0256
     29 C         -26.7083    5.2255   33.7392 C.3     1  UNL1        0.0914
     30 O         -24.4282    2.9566   31.1902 O.3     1  UNL1       -0.2021
     31 C         -24.6174    6.4543   33.8650 C.3     1  UNL1        0.0378
     32 C         -24.5189    4.9838   33.4050 C.3     1  UNL1        0.0738
     33 C         -26.0873    6.8030   33.6293 C.3     1  UNL1        0.1091
     34 N         -24.6430    1.3759   27.2956 N.pl3   1  UNL1       -0.2936
     35 N         -25.5670    1.8345   31.0940 N.3     1  UNL1       -0.1880
     36 CL        -22.9695    2.2620   25.2335 Cl      1  UNL1       -0.0898
     37 F         -21.1684    1.3296   27.4120 F       1  UNL1       -0.2341
     38 C         -24.4779    1.1039   28.6561 C.3     1  UNL1        0.0772
     39 C         -26.2896    3.5569   32.5149 C.3     1  UNL1        0.1241
     40 C         -25.3844    3.0820   31.1778 C.3     1  UNL1        0.2416
     41 C         -23.2396    1.3817   29.0778 C.3     1  UNL1        0.0581
     42 N         -26.1234    7.4139   32.3258 N.3     1  UNL1       -0.1314
     43 C         -23.3818    1.6152   26.7729 C.3     1  UNL1        0.1867
     44 C         -22.5384    1.4851   27.8475 C.3     1  UNL1        0.1961
     45 N         -25.7594    4.8807   32.9363 N.3     1  UNL1       -0.2680
@<TRIPOS>BOND
     1     1    28    1
     2     2     7    1
     3     2     1    1
     4     3     2    2
     5     4     3    1
     6     4     5    2
     7     5     6    1
     8     6     7    2
     9     8     1    1
    10     8     9    1
    11     8    12    1
    12     9    35    1
    13     9    10    1
    14    10    11    1
    15    12    11    1
    16    13    34    1
    17    14    13    1
    18    14    15    1
    19    15    18    2
    20    16    17    1
    21    16    15    1
    22    19    14    2
    23    20    21    2
    24    20    19    1
    25    21    26    1
    26    22    21    1
    27    23    22    1
    28    24    23    1
    29    24    25    1
    30    26    27    1
    31    26    13    2
    32    32    31    1
    33    33    42    1
    34    33    29    1
    35    33    31    1
    36    34    38    1
    37    35    40    1
    38    38    41    1
    39    38    28    1
    40    39    45    1
    41    40    30    1
    42    40    39    1
    43    43    36    1
    44    43    34    1
    45    43    44    1
    46    44    37    1
    47    44    41    1
    48    45    32    1
    49    45    29    1
