@<TRIPOS>MOLECULE
outputs/IAG933/test6/raw/output_7545_IAG933_linker_design_.xyz
 41 44 0 0 0
SMALL
GASTEIGER

@<TRIPOS>ATOM
      1 C         -24.8550   -1.0120   30.1430 C.3     1  UNL1        0.0437
      2 C         -24.9730   -2.5050   29.7880 C.2     1  UNL1       -0.0208
      3 C         -23.9060   -3.1730   29.1460 C.2     1  UNL1       -0.0042
      4 C         -23.9890   -4.5490   28.8530 C.2     1  UNL1       -0.0003
      5 C         -25.1370   -5.2800   29.2050 C.2     1  UNL1       -0.0000
      6 C         -26.2320   -4.6110   29.7840 C.2     1  UNL1       -0.0003
      7 C         -26.1550   -3.2320   30.0650 C.2     1  UNL1       -0.0042
      8 C         -25.3870   -0.6790   31.5710 C.3     1  UNL1        0.0772
      9 C         -25.1890    0.7730   32.0280 C.3     1  UNL1        0.0219
     10 C         -25.3360    0.6840   33.5440 C.3     1  UNL1        0.0203
     11 C         -24.8290   -0.7150   33.9050 C.3     1  UNL1        0.0887
     12 N         -24.7580   -1.4810   32.6460 N.3     1  UNL1       -0.2191
     13 C         -25.6880    1.6140   26.4610 C.3     1  UNL1        0.0953
     14 C         -26.2500    2.9200   26.3950 C.2     1  UNL1        0.0590
     15 C         -25.6420    4.0930   27.1230 C.2     1  UNL1        0.2628
     16 N         -25.6140    5.2520   26.4490 N.am    1  UNL1       -0.2000
     17 C         -25.0260    6.4790   26.9630 C.3     1  UNL1        0.1388
     18 O         -25.1430    3.9660   28.2430 O.2     1  UNL1       -0.2686
     19 C         -27.4380    3.0910   25.6450 C.2     1  UNL1        0.1025
     20 N         -28.0750    2.0890   25.0030 N.2     1  UNL1       -0.2118
     21 C         -27.5430    0.8490   25.0790 C.2     1  UNL1        0.2344
     22 O         -28.1930   -0.2080   24.4770 O.2     1  UNL1       -0.4585
     23 C         -29.4600    0.0050   23.8660 C.3     1  UNL1        0.2423
     24 C         -30.0650   -1.3770   23.5730 C.3     1  UNL1        0.2292
     25 O         -30.7290   -1.8780   24.7210 O.3     1  UNL1       -0.2162
     26 C         -26.3540    0.5760   25.7770 C.3     1  UNL1        0.2441
     27 F         -25.8600   -0.6810   25.7950 F       1  UNL1       -0.2265
     28 C         -22.5562    1.3510   28.4451 C.2     1  UNL1        0.0366
     29 O         -24.0820    3.9796   32.6677 O.2     1  UNL1       -0.2501
     30 C         -25.7793    1.6050   29.5421 C.3     1  UNL1        0.2059
     31 C         -23.8918    1.2553   28.0546 C.2     1  UNL1        0.1349
     32 C         -25.7745    5.7987   33.8802 C.3     1  UNL1        0.2556
     33 C         -26.0133    3.0630   31.6076 C.3     1  UNL1        0.1133
     34 O         -26.2290    4.6574   33.1772 O.3     1  UNL1       -0.4444
     35 O         -24.8344    0.7629   28.8883 O.2     1  UNL1       -0.4758
     36 C         -24.2794    1.5336   26.7536 C.2     1  UNL1        0.0189
     37 C         -25.3025    3.8942   32.5838 C.2     1  UNL1        0.3172
     38 C         -21.5963    1.7656   27.5109 C.2     1  UNL1        0.0031
     39 C         -25.3086    1.9083   30.9993 C.3     1  UNL1        0.0562
     40 C         -21.9741    1.9789   26.1725 C.2     1  UNL1       -0.0001
     41 C         -23.3082    1.8330   25.7786 C.2     1  UNL1       -0.0009
@<TRIPOS>BOND
     1     2     7    1
     2     2     1    1
     3     3     2    2
     4     4     3    1
     5     4     5    2
     6     5     6    1
     7     6     7    2
     8     8     1    1
     9     8     9    1
    10     8    12    1
    11     9    39    1
    12     9    10    1
    13    10    11    1
    14    12    11    1
    15    13    36    1
    16    14    13    1
    17    14    15    1
    18    15    18    2
    19    16    17    1
    20    16    15    1
    21    19    14    2
    22    20    21    2
    23    20    19    1
    24    21    26    1
    25    22    21    1
    26    23    22    1
    27    24    23    1
    28    24    25    1
    29    26    27    1
    30    26    13    1
    31    31    28    1
    32    31    35    1
    33    33    37    1
    34    34    32    1
    35    35    30    1
    36    36    31    2
    37    37    29    2
    38    37    34    1
    39    38    28    2
    40    39    30    1
    41    39    33    1
    42    40    38    1
    43    41    40    2
    44    41    36    1
