@<TRIPOS>MOLECULE
outputs/IAG933/test6/raw/output_7549_IAG933_linker_design_.xyz
 48 51 0 0 0
SMALL
GASTEIGER

@<TRIPOS>ATOM
      1 C         -24.8550   -1.0120   30.1430 C.3     1  UNL1        0.0438
      2 C         -24.9730   -2.5050   29.7880 C.2     1  UNL1       -0.0208
      3 C         -23.9060   -3.1730   29.1460 C.2     1  UNL1       -0.0042
      4 C         -23.9890   -4.5490   28.8530 C.2     1  UNL1       -0.0003
      5 C         -25.1370   -5.2800   29.2050 C.2     1  UNL1       -0.0000
      6 C         -26.2320   -4.6110   29.7840 C.2     1  UNL1       -0.0003
      7 C         -26.1550   -3.2320   30.0650 C.2     1  UNL1       -0.0042
      8 C         -25.3870   -0.6790   31.5710 C.3     1  UNL1        0.0788
      9 C         -25.1890    0.7730   32.0280 C.3     1  UNL1        0.0379
     10 C         -25.3360    0.6840   33.5440 C.3     1  UNL1        0.0219
     11 C         -24.8290   -0.7150   33.9050 C.3     1  UNL1        0.0888
     12 N         -24.7580   -1.4810   32.6460 N.3     1  UNL1       -0.2191
     13 C         -25.6880    1.6140   26.4610 C.2     1  UNL1        0.1113
     14 C         -26.2500    2.9200   26.3950 C.2     1  UNL1        0.0919
     15 C         -25.6420    4.0930   27.1230 C.2     1  UNL1        0.2677
     16 N         -25.6140    5.2520   26.4490 N.am    1  UNL1       -0.1997
     17 C         -25.0260    6.4790   26.9630 C.3     1  UNL1        0.1388
     18 O         -25.1430    3.9660   28.2430 O.2     1  UNL1       -0.2683
     19 C         -27.4380    3.0910   25.6450 C.2     1  UNL1        0.1080
     20 N         -28.0750    2.0890   25.0030 N.2     1  UNL1       -0.2080
     21 C         -27.5430    0.8490   25.0790 C.2     1  UNL1        0.2546
     22 O         -28.1930   -0.2080   24.4770 O.2     1  UNL1       -0.4558
     23 C         -29.4600    0.0050   23.8660 C.3     1  UNL1        0.2426
     24 C         -30.0650   -1.3770   23.5730 C.3     1  UNL1        0.2292
     25 O         -30.7290   -1.8780   24.7210 O.3     1  UNL1       -0.2162
     26 C         -26.3540    0.5760   25.7770 C.2     1  UNL1        0.2083
     27 F         -25.8600   -0.6810   25.7950 F       1  UNL1       -0.1978
     28 C         -25.6659    2.0158   31.3101 C.3     1  UNL1        0.0992
     29 O         -23.1176    2.1662   26.0032 O.2     1  UNL1       -0.2725
     30 C         -26.5221    2.9661   31.8506 C.3     1  UNL1        0.0549
     31 C         -29.9151    4.0588   29.3637 C.2     1  UNL1       -0.0041
     32 C         -30.4460    3.5747   28.1591 C.2     1  UNL1        0.0011
     33 C         -27.8553    2.8783   32.2773 C.3     1  UNL1        0.1577
     34 C         -29.3188    1.7964   30.0088 C.2     1  UNL1        0.0139
     35 C         -23.4660    1.6140   27.0232 C.2     1  UNL1        0.2540
     36 C         -28.0296    5.1136   31.5588 C.3     1  UNL1        0.0073
     37 C         -21.0329    1.3949   27.9895 C.3     1  UNL1        0.0194
     38 C         -29.3431    3.2075   30.3094 C.2     1  UNL1       -0.0187
     39 C         -22.5390    0.9487   27.9970 C.3     1  UNL1        0.1563
     40 C         -28.9263    3.8524   31.6211 C.3     1  UNL1        0.0528
     41 C         -23.0936    0.9182   29.5837 C.2     1  UNL1        0.2497
     42 N         -24.6311    1.6693   29.8465 N.am    1  UNL1       -0.2067
     43 O         -22.3738   -0.2045   29.9489 O.2     1  UNL1       -0.2728
     44 C         -29.9964    1.2630   28.8277 C.2     1  UNL1        0.0888
     45 N         -24.7443    1.2168   27.2466 N.am    1  UNL1       -0.1762
     46 N         -30.2218   -0.1320   28.7706 N.pl3   1  UNL1       -0.1281
     47 O         -28.1866    2.7857   33.6243 O.3     1  UNL1       -0.2227
     48 C         -30.4834    2.2051   27.9130 C.2     1  UNL1        0.0180
@<TRIPOS>BOND
     1     2     7    1
     2     2     1    1
     3     3     2    2
     4     4     3    1
     5     4     5    2
     6     5     6    1
     7     6     7    2
     8     8     1    1
     9     8     9    1
    10     8    12    1
    11     9    28    1
    12     9    10    1
    13    10    11    1
    14    12    11    1
    15    13    45    1
    16    14    13    1
    17    14    15    1
    18    15    18    2
    19    16    17    1
    20    16    15    1
    21    19    14    2
    22    20    21    2
    23    20    19    1
    24    21    26    1
    25    22    21    1
    26    23    22    1
    27    24    23    1
    28    24    25    1
    29    26    27    1
    30    26    13    2
    31    28    30    1
    32    29    35    2
    33    30    33    1
    34    31    38    1
    35    32    31    2
    36    33    47    1
    37    34    38    2
    38    35    45    1
    39    35    39    1
    40    38    40    1
    41    39    37    1
    42    39    41    1
    43    40    36    1
    44    40    33    1
    45    41    42    1
    46    41    43    2
    47    42    28    1
    48    44    34    1
    49    46    44    1
    50    48    32    1
    51    48    44    2
