@<TRIPOS>MOLECULE
outputs/IAG933/test6/raw/output_7554_IAG933_linker_design_.xyz
 44 49 0 0 0
SMALL
GASTEIGER

@<TRIPOS>ATOM
      1 C         -24.8550   -1.0120   30.1430 C.3     1  UNL1        0.0434
      2 C         -24.9730   -2.5050   29.7880 C.2     1  UNL1       -0.0208
      3 C         -23.9060   -3.1730   29.1460 C.2     1  UNL1       -0.0042
      4 C         -23.9890   -4.5490   28.8530 C.2     1  UNL1       -0.0003
      5 C         -25.1370   -5.2800   29.2050 C.2     1  UNL1       -0.0000
      6 C         -26.2320   -4.6110   29.7840 C.2     1  UNL1       -0.0003
      7 C         -26.1550   -3.2320   30.0650 C.2     1  UNL1       -0.0042
      8 C         -25.3870   -0.6790   31.5710 C.3     1  UNL1        0.0771
      9 C         -25.1890    0.7730   32.0280 C.3     1  UNL1        0.0192
     10 C         -25.3360    0.6840   33.5440 C.3     1  UNL1        0.0202
     11 C         -24.8290   -0.7150   33.9050 C.3     1  UNL1        0.0887
     12 N         -24.7580   -1.4810   32.6460 N.3     1  UNL1       -0.2191
     13 C         -25.6880    1.6140   26.4610 C.2     1  UNL1        0.0311
     14 C         -26.2500    2.9200   26.3950 C.2     1  UNL1        0.0737
     15 C         -25.6420    4.0930   27.1230 C.2     1  UNL1        0.2662
     16 N         -25.6140    5.2520   26.4490 N.am    1  UNL1       -0.1997
     17 C         -25.0260    6.4790   26.9630 C.3     1  UNL1        0.1388
     18 O         -25.1430    3.9660   28.2430 O.2     1  UNL1       -0.2683
     19 C         -27.4380    3.0910   25.6450 C.2     1  UNL1        0.1064
     20 N         -28.0750    2.0890   25.0030 N.2     1  UNL1       -0.2081
     21 C         -27.5430    0.8490   25.0790 C.2     1  UNL1        0.2530
     22 O         -28.1930   -0.2080   24.4770 O.2     1  UNL1       -0.4558
     23 C         -29.4600    0.0050   23.8660 C.3     1  UNL1        0.2426
     24 C         -30.0650   -1.3770   23.5730 C.3     1  UNL1        0.2292
     25 O         -30.7290   -1.8780   24.7210 O.3     1  UNL1       -0.2162
     26 C         -26.3540    0.5760   25.7770 C.2     1  UNL1        0.1903
     27 F         -25.8600   -0.6810   25.7950 F       1  UNL1       -0.1995
     28 C         -28.3405    3.3500   29.4456 C.2     1  UNL1       -0.0043
     29 O         -20.9686    1.5396   28.0212 O.2     1  UNL1       -0.2608
     30 C         -24.3435    0.6183   28.2766 C.2     1  UNL1        0.0440
     31 C         -29.4461    2.9668   28.7126 C.2     1  UNL1       -0.0222
     32 C         -28.2238    0.5444   28.0019 C.3     1  UNL1        0.0047
     33 S         -22.9296    1.8424   26.3792 S.3     1  UNL1       -0.0462
     34 C         -25.4510   -0.1006   29.0935 C.3     1  UNL1        0.0404
     35 C         -30.4888    3.8725   28.5071 C.2     1  UNL1       -0.0043
     36 C         -29.4872    1.6091   28.0070 C.3     1  UNL1        0.0264
     37 C         -30.2765    5.1860   28.8444 C.2     1  UNL1       -0.0003
     38 C         -26.9861   -0.0706   29.0562 C.3     1  UNL1        0.0058
     39 C         -28.0787    4.6986   29.6927 C.2     1  UNL1       -0.0003
     40 C         -24.3611    1.3153   27.0054 C.3     1  UNL1        0.1143
     41 C         -22.2609    1.3138   27.8567 C.2     1  UNL1        0.2964
     42 N         -23.1097    0.7070   28.7266 N.am    1  UNL1       -0.1775
     43 C         -29.0577    5.6387   29.3616 C.2     1  UNL1       -0.0000
     44 C         -28.4385    0.1054   29.2852 C.3     1  UNL1        0.0007
@<TRIPOS>BOND
     1     1    34    1
     2     2     7    1
     3     2     1    1
     4     3     2    2
     5     4     3    1
     6     4     5    2
     7     5     6    1
     8     6     7    2
     9     8     1    1
    10     8     9    1
    11     8    12    1
    12     9    10    1
    13    10    11    1
    14    12    11    1
    15    14    13    1
    16    14    15    1
    17    15    18    2
    18    16    17    1
    19    16    15    1
    20    19    14    2
    21    20    21    2
    22    20    19    1
    23    21    26    1
    24    22    21    1
    25    23    22    1
    26    24    23    1
    27    24    25    1
    28    26    27    1
    29    26    13    2
    30    28    39    1
    31    30    42    2
    32    31    28    2
    33    32    36    1
    34    32    38    1
    35    32    44    1
    36    33    40    1
    37    33    41    1
    38    34    30    1
    39    35    31    1
    40    35    37    2
    41    36    31    1
    42    37    43    1
    43    38    34    1
    44    38    44    1
    45    40    13    1
    46    40    30    1
    47    41    29    2
    48    41    42    1
    49    43    39    2
