@<TRIPOS>MOLECULE
outputs/IAG933/test6/raw/output_7557_IAG933_linker_design_.xyz
 43 47 0 0 0
SMALL
GASTEIGER

@<TRIPOS>ATOM
      1 C         -24.8550   -1.0120   30.1430 C.3     1  UNL1        0.0404
      2 C         -24.9730   -2.5050   29.7880 C.2     1  UNL1       -0.0211
      3 C         -23.9060   -3.1730   29.1460 C.2     1  UNL1       -0.0042
      4 C         -23.9890   -4.5490   28.8530 C.2     1  UNL1       -0.0003
      5 C         -25.1370   -5.2800   29.2050 C.2     1  UNL1       -0.0000
      6 C         -26.2320   -4.6110   29.7840 C.2     1  UNL1       -0.0003
      7 C         -26.1550   -3.2320   30.0650 C.2     1  UNL1       -0.0042
      8 C         -25.3870   -0.6790   31.5710 C.3     1  UNL1        0.0769
      9 C         -25.1890    0.7730   32.0280 C.3     1  UNL1        0.0192
     10 C         -25.3360    0.6840   33.5440 C.3     1  UNL1        0.0202
     11 C         -24.8290   -0.7150   33.9050 C.3     1  UNL1        0.0887
     12 N         -24.7580   -1.4810   32.6460 N.3     1  UNL1       -0.2191
     13 C         -25.6880    1.6140   26.4610 C.2     1  UNL1        0.0172
     14 C         -26.2500    2.9200   26.3950 C.2     1  UNL1        0.0726
     15 C         -25.6420    4.0930   27.1230 C.2     1  UNL1        0.2661
     16 N         -25.6140    5.2520   26.4490 N.am    1  UNL1       -0.1997
     17 C         -25.0260    6.4790   26.9630 C.3     1  UNL1        0.1388
     18 O         -25.1430    3.9660   28.2430 O.2     1  UNL1       -0.2683
     19 C         -27.4380    3.0910   25.6450 C.2     1  UNL1        0.1064
     20 N         -28.0750    2.0890   25.0030 N.2     1  UNL1       -0.2081
     21 C         -27.5430    0.8490   25.0790 C.2     1  UNL1        0.2530
     22 O         -28.1930   -0.2080   24.4770 O.2     1  UNL1       -0.4558
     23 C         -29.4600    0.0050   23.8660 C.3     1  UNL1        0.2426
     24 C         -30.0650   -1.3770   23.5730 C.3     1  UNL1        0.2292
     25 O         -30.7290   -1.8780   24.7210 O.3     1  UNL1       -0.2162
     26 C         -26.3540    0.5760   25.7770 C.2     1  UNL1        0.1892
     27 F         -25.8600   -0.6810   25.7950 F       1  UNL1       -0.1996
     28 C         -30.5567    0.6307   28.0157 C.3     1  UNL1        0.0078
     29 C         -30.8685    0.1984   29.2206 C.3     1  UNL1        0.0078
     30 C         -25.6701   -0.1426   29.1044 C.3     1  UNL1        0.0330
     31 C         -27.1971   -0.1606   28.5723 C.3     1  UNL1        0.0666
     32 C         -22.2270    0.2238   29.0474 C.2     1  UNL1        0.2718
     33 C         -21.3183    0.7032   27.9971 C.3     1  UNL1        0.2290
     34 O         -21.8368   -0.6206   29.9192 O.2     1  UNL1       -0.2706
     35 N         -23.4195    0.8211   29.1995 N.am    1  UNL1       -0.2047
     36 O         -28.6434    1.3902   29.7650 O.2     1  UNL1       -0.2961
     37 C         -21.7532    1.6213   26.9602 C.3     1  UNL1        0.0429
     38 C         -24.4321    0.3733   28.2689 C.3     1  UNL1        0.1002
     39 C         -23.1196    1.8029   26.4697 C.3     1  UNL1        0.0093
     40 C         -29.7034   -0.5266   28.7304 C.3     1  UNL1        0.0576
     41 O         -20.1154    0.2778   28.1991 O.3     1  UNL1       -0.2132
     42 C         -28.3653    0.3711   29.2255 C.2     1  UNL1        0.1503
     43 C         -24.4379    1.4192   27.1431 C.3     1  UNL1        0.0450
@<TRIPOS>BOND
     1     1    30    1
     2     2     7    1
     3     2     1    1
     4     3     2    2
     5     4     3    1
     6     4     5    2
     7     5     6    1
     8     6     7    2
     9     8     1    1
    10     8     9    1
    11     8    12    1
    12     9    10    1
    13    10    11    1
    14    12    11    1
    15    14    13    1
    16    14    15    1
    17    15    18    2
    18    16    17    1
    19    16    15    1
    20    19    14    2
    21    20    21    2
    22    20    19    1
    23    21    26    1
    24    22    21    1
    25    23    22    1
    26    24    23    1
    27    24    25    1
    28    26    27    1
    29    26    13    2
    30    28    40    1
    31    28    29    1
    32    30    31    1
    33    31    42    1
    34    32    35    1
    35    32    34    2
    36    33    41    1
    37    33    32    1
    38    37    33    1
    39    38    30    1
    40    38    35    1
    41    39    37    1
    42    39    43    1
    43    40    29    1
    44    40    42    1
    45    42    36    2
    46    43    13    1
    47    43    38    1
