@<TRIPOS>MOLECULE
outputs/IAG933/test6/raw/output_7559_IAG933_linker_design_.xyz
 46 50 0 0 0
SMALL
GASTEIGER

@<TRIPOS>ATOM
      1 C         -24.8550   -1.0120   30.1430 C.3     1  UNL1        0.0697
      2 C         -24.9730   -2.5050   29.7880 C.2     1  UNL1       -0.0184
      3 C         -23.9060   -3.1730   29.1460 C.2     1  UNL1       -0.0041
      4 C         -23.9890   -4.5490   28.8530 C.2     1  UNL1       -0.0003
      5 C         -25.1370   -5.2800   29.2050 C.2     1  UNL1       -0.0000
      6 C         -26.2320   -4.6110   29.7840 C.2     1  UNL1       -0.0003
      7 C         -26.1550   -3.2320   30.0650 C.2     1  UNL1       -0.0041
      8 C         -25.3870   -0.6790   31.5710 C.3     1  UNL1        0.0795
      9 C         -25.1890    0.7730   32.0280 C.3     1  UNL1        0.0193
     10 C         -25.3360    0.6840   33.5440 C.3     1  UNL1        0.0202
     11 C         -24.8290   -0.7150   33.9050 C.3     1  UNL1        0.0887
     12 N         -24.7580   -1.4810   32.6460 N.3     1  UNL1       -0.2190
     13 C         -25.6880    1.6140   26.4610 C.2     1  UNL1        0.0450
     14 C         -26.2500    2.9200   26.3950 C.2     1  UNL1        0.0771
     15 C         -25.6420    4.0930   27.1230 C.2     1  UNL1        0.2664
     16 N         -25.6140    5.2520   26.4490 N.am    1  UNL1       -0.1997
     17 C         -25.0260    6.4790   26.9630 C.3     1  UNL1        0.1388
     18 O         -25.1430    3.9660   28.2430 O.2     1  UNL1       -0.2683
     19 C         -27.4380    3.0910   25.6450 C.2     1  UNL1        0.1067
     20 N         -28.0750    2.0890   25.0030 N.2     1  UNL1       -0.2081
     21 C         -27.5430    0.8490   25.0790 C.2     1  UNL1        0.2533
     22 O         -28.1930   -0.2080   24.4770 O.2     1  UNL1       -0.4558
     23 C         -29.4600    0.0050   23.8660 C.3     1  UNL1        0.2426
     24 C         -30.0650   -1.3770   23.5730 C.3     1  UNL1        0.2292
     25 O         -30.7290   -1.8780   24.7210 O.3     1  UNL1       -0.2162
     26 C         -26.3540    0.5760   25.7770 C.2     1  UNL1        0.1936
     27 F         -25.8600   -0.6810   25.7950 F       1  UNL1       -0.1992
     28 C         -31.4854   -2.2151   30.1391 C.3     1  UNL1        0.0174
     29 C         -30.0985   -1.8710   29.5978 C.3     1  UNL1        0.0744
     30 C         -21.7223    1.2172   28.7594 C.2     1  UNL1        0.0027
     31 F         -22.4274    2.5321   25.3322 F       1  UNL1       -0.1958
     32 C         -21.4281    1.7564   27.4712 C.2     1  UNL1        0.0376
     33 C         -24.6176    1.3310   27.4838 C.2     1  UNL1        0.0373
     34 C         -22.4692    1.9369   26.5352 C.2     1  UNL1        0.1746
     35 C         -27.7989   -0.2217   29.3580 C.3     1  UNL1        0.1923
     36 C         -32.2773   -0.9523   28.0004 C.3     1  UNL1        0.0174
     37 N         -30.1622   -0.5546   28.9083 N.3     1  UNL1       -0.2463
     38 O         -29.1361    1.6492   28.4915 O.3     1  UNL1       -0.2022
     39 O         -26.6101    0.3044   28.9345 O.3     1  UNL1       -0.3472
     40 C         -25.2469    0.0227   29.1373 C.3     1  UNL1        0.1434
     41 C         -29.1790    0.4979   29.3358 C.3     1  UNL1        0.2424
     42 C         -23.0079    0.7562   29.1930 C.2     1  UNL1       -0.0013
     43 C         -24.2357    0.7907   28.5310 C.2     1  UNL1        0.0121
     44 C         -32.5405   -1.3272   29.4723 C.3     1  UNL1        0.0029
     45 C         -30.9900   -0.1563   27.7626 C.3     1  UNL1        0.0744
     46 C         -23.5858    1.5702   26.8613 C.1     1  UNL1       -0.0728
@<TRIPOS>BOND
     1     1    40    1
     2     2     7    1
     3     2     1    1
     4     3     2    2
     5     4     3    1
     6     4     5    2
     7     5     6    1
     8     6     7    2
     9     8     1    1
    10     8     9    1
    11     8    12    1
    12     9    10    1
    13    10    11    1
    14    12    11    1
    15    13    33    1
    16    14    13    1
    17    14    15    1
    18    15    18    2
    19    16    17    1
    20    16    15    1
    21    19    14    2
    22    20    21    2
    23    20    19    1
    24    21    26    1
    25    22    21    1
    26    23    22    1
    27    24    23    1
    28    24    25    1
    29    26    27    1
    30    26    13    2
    31    29    28    1
    32    30    42    1
    33    31    34    1
    34    32    30    2
    35    33    43    1
    36    34    46    2
    37    34    32    1
    38    36    44    1
    39    37    41    1
    40    37    29    1
    41    39    35    1
    42    40    39    1
    43    41    38    1
    44    41    35    1
    45    43    40    1
    46    43    42    2
    47    44    28    1
    48    45    36    1
    49    45    37    1
    50    46    33    2
