@<TRIPOS>MOLECULE
outputs/IAG933/test6/raw/output_7563_IAG933_linker_design_.xyz
 44 49 0 0 0
SMALL
GASTEIGER

@<TRIPOS>ATOM
      1 C         -24.8550   -1.0120   30.1430 C.3     1  UNL1        0.0660
      2 C         -24.9730   -2.5050   29.7880 C.2     1  UNL1       -0.0169
      3 C         -23.9060   -3.1730   29.1460 C.2     1  UNL1       -0.0039
      4 C         -23.9890   -4.5490   28.8530 C.2     1  UNL1       -0.0003
      5 C         -25.1370   -5.2800   29.2050 C.2     1  UNL1       -0.0000
      6 C         -26.2320   -4.6110   29.7840 C.2     1  UNL1       -0.0003
      7 C         -26.1550   -3.2320   30.0650 C.2     1  UNL1       -0.0039
      8 C         -25.3870   -0.6790   31.5710 C.3     1  UNL1        0.0810
      9 C         -25.1890    0.7730   32.0280 C.3     1  UNL1        0.0195
     10 C         -25.3360    0.6840   33.5440 C.3     1  UNL1        0.0203
     11 C         -24.8290   -0.7150   33.9050 C.3     1  UNL1        0.0887
     12 N         -24.7580   -1.4810   32.6460 N.3     1  UNL1       -0.2188
     13 C         -25.6880    1.6140   26.4610 C.2     1  UNL1        0.0301
     14 C         -26.2500    2.9200   26.3950 C.2     1  UNL1        0.0734
     15 C         -25.6420    4.0930   27.1230 C.2     1  UNL1        0.2661
     16 N         -25.6140    5.2520   26.4490 N.am    1  UNL1       -0.1997
     17 C         -25.0260    6.4790   26.9630 C.3     1  UNL1        0.1388
     18 O         -25.1430    3.9660   28.2430 O.2     1  UNL1       -0.2683
     19 C         -27.4380    3.0910   25.6450 C.2     1  UNL1        0.1064
     20 N         -28.0750    2.0890   25.0030 N.2     1  UNL1       -0.2081
     21 C         -27.5430    0.8490   25.0790 C.2     1  UNL1        0.2530
     22 O         -28.1930   -0.2080   24.4770 O.2     1  UNL1       -0.4558
     23 C         -29.4600    0.0050   23.8660 C.3     1  UNL1        0.2426
     24 C         -30.0650   -1.3770   23.5730 C.3     1  UNL1        0.2292
     25 O         -30.7290   -1.8780   24.7210 O.3     1  UNL1       -0.2162
     26 C         -26.3540    0.5760   25.7770 C.2     1  UNL1        0.1899
     27 F         -25.8600   -0.6810   25.7950 F       1  UNL1       -0.1996
     28 O         -23.8367    2.2028   25.1227 O.2     1  UNL1       -0.4384
     29 C         -23.5691    1.6937   26.4058 C.2     1  UNL1        0.1671
     30 C         -21.9711   -0.7741   29.7036 C.3     1  UNL1        0.0669
     31 O         -21.6359    1.8384   25.4249 O.2     1  UNL1       -0.4329
     32 C         -22.2776    1.6439   26.5506 C.2     1  UNL1        0.2206
     33 C         -20.7236   -0.4177   29.2469 C.3     1  UNL1        0.0504
     34 C         -22.5639    2.2014   24.5016 C.3     1  UNL1        0.4290
     35 C         -20.2591    0.3695   28.3974 C.3     1  UNL1        0.2367
     36 O         -22.3831    0.9424   28.6720 O.2     1  UNL1       -0.4512
     37 C         -21.6456    1.5663   27.7631 C.3     1  UNL1        0.3478
     38 C         -24.1851    0.0340   29.3947 C.2     1  UNL1        0.0481
     39 O         -25.0936    1.9082   29.5038 O.2     1  UNL1       -0.2908
     40 F         -19.1306    1.1636   28.8017 F       1  UNL1       -0.2299
     41 C         -22.8339   -0.0154   29.3340 C.2     1  UNL1        0.1185
     42 C         -24.7175    1.1351   28.7028 C.2     1  UNL1        0.1830
     43 C         -24.6113    1.4113   27.3196 C.3     1  UNL1        0.1460
     44 F         -20.7344    2.4812   27.9201 F       1  UNL1       -0.1842
@<TRIPOS>BOND
     1     1    38    1
     2     2     7    1
     3     2     1    1
     4     3     2    2
     5     4     3    1
     6     4     5    2
     7     5     6    1
     8     6     7    2
     9     8     1    1
    10     8     9    1
    11     8    12    1
    12     9    10    1
    13    10    11    1
    14    12    11    1
    15    14    13    1
    16    14    15    1
    17    15    18    2
    18    16    17    1
    19    16    15    1
    20    19    14    2
    21    20    21    2
    22    20    19    1
    23    21    26    1
    24    22    21    1
    25    23    22    1
    26    24    23    1
    27    24    25    1
    28    26    27    1
    29    26    13    2
    30    28    29    1
    31    29    32    2
    32    29    43    1
    33    31    32    1
    34    32    37    1
    35    33    30    1
    36    34    28    1
    37    34    31    1
    38    35    40    1
    39    35    33    1
    40    36    41    1
    41    37    44    1
    42    37    35    1
    43    37    36    1
    44    41    38    2
    45    41    30    1
    46    42    38    1
    47    42    39    2
    48    43    13    1
    49    43    42    1
