@<TRIPOS>MOLECULE
outputs/IAG933/test6/raw/output_7564_IAG933_linker_design_.xyz
 40 43 0 0 0
SMALL
GASTEIGER

@<TRIPOS>ATOM
      1 C         -24.8550   -1.0120   30.1430 C.3     1  UNL1        0.0641
      2 C         -24.9730   -2.5050   29.7880 C.2     1  UNL1       -0.0169
      3 C         -23.9060   -3.1730   29.1460 C.2     1  UNL1       -0.0039
      4 C         -23.9890   -4.5490   28.8530 C.2     1  UNL1       -0.0003
      5 C         -25.1370   -5.2800   29.2050 C.2     1  UNL1       -0.0000
      6 C         -26.2320   -4.6110   29.7840 C.2     1  UNL1       -0.0003
      7 C         -26.1550   -3.2320   30.0650 C.2     1  UNL1       -0.0039
      8 C         -25.3870   -0.6790   31.5710 C.3     1  UNL1        0.0810
      9 C         -25.1890    0.7730   32.0280 C.3     1  UNL1        0.0195
     10 C         -25.3360    0.6840   33.5440 C.3     1  UNL1        0.0203
     11 C         -24.8290   -0.7150   33.9050 C.3     1  UNL1        0.0887
     12 N         -24.7580   -1.4810   32.6460 N.3     1  UNL1       -0.2188
     13 C         -25.6880    1.6140   26.4610 C.2     1  UNL1        0.0402
     14 C         -26.2500    2.9200   26.3950 C.2     1  UNL1        0.0766
     15 C         -25.6420    4.0930   27.1230 C.2     1  UNL1        0.2664
     16 N         -25.6140    5.2520   26.4490 N.am    1  UNL1       -0.1997
     17 C         -25.0260    6.4790   26.9630 C.3     1  UNL1        0.1388
     18 O         -25.1430    3.9660   28.2430 O.2     1  UNL1       -0.2683
     19 C         -27.4380    3.0910   25.6450 C.2     1  UNL1        0.1067
     20 N         -28.0750    2.0890   25.0030 N.2     1  UNL1       -0.2081
     21 C         -27.5430    0.8490   25.0790 C.2     1  UNL1        0.2533
     22 O         -28.1930   -0.2080   24.4770 O.2     1  UNL1       -0.4558
     23 C         -29.4600    0.0050   23.8660 C.3     1  UNL1        0.2426
     24 C         -30.0650   -1.3770   23.5730 C.3     1  UNL1        0.2292
     25 O         -30.7290   -1.8780   24.7210 O.3     1  UNL1       -0.2162
     26 C         -26.3540    0.5760   25.7770 C.2     1  UNL1        0.1931
     27 F         -25.8600   -0.6810   25.7950 F       1  UNL1       -0.1992
     28 CL        -22.6105    2.5252   25.8173 Cl      1  UNL1       -0.0798
     29 C         -23.1713    1.4931   27.1511 C.ar    1  UNL1        0.0886
     30 C         -24.5303    1.2471   27.3600 C.ar    1  UNL1        0.0305
     31 C         -22.7274    0.1234   29.0412 C.ar    1  UNL1        0.1658
     32 C         -28.5805    1.0934   29.9978 C.3     1  UNL1        0.0968
     33 N         -26.3149    0.7803   29.0536 N.am    1  UNL1       -0.1794
     34 C         -24.9956    0.5724   28.4680 C.ar    1  UNL1        0.0729
     35 F         -21.9714   -0.3107   30.0982 F       1  UNL1       -0.2021
     36 C         -27.4972    0.2159   29.3364 C.2     1  UNL1        0.2461
     37 O         -28.0682   -0.6668   28.7073 O.2     1  UNL1       -0.2730
     38 F         -20.9295    1.0486   27.7769 F       1  UNL1       -0.2009
     39 C         -22.2701    0.8857   28.0087 C.ar    1  UNL1        0.1776
     40 C         -24.1037   -0.1260   29.1826 C.ar    1  UNL1        0.0280
@<TRIPOS>BOND
     1     1    40    1
     2     2     7    1
     3     2     1    1
     4     3     2    2
     5     4     3    1
     6     4     5    2
     7     5     6    1
     8     6     7    2
     9     8     1    1
    10     8     9    1
    11     8    12    1
    12     9    10    1
    13    10    11    1
    14    12    11    1
    15    13    30    1
    16    14    13    1
    17    14    15    1
    18    15    18    2
    19    16    17    1
    20    16    15    1
    21    19    14    2
    22    20    21    2
    23    20    19    1
    24    21    26    1
    25    22    21    1
    26    23    22    1
    27    24    23    1
    28    24    25    1
    29    26    27    1
    30    26    13    2
    31    28    29    1
    32    29    30   ar
    33    29    39   ar
    34    30    34   ar
    35    31    40   ar
    36    31    35    1
    37    33    36    1
    38    34    33    1
    39    34    40   ar
    40    36    32    1
    41    37    36    2
    42    38    39    1
    43    39    31   ar
