@<TRIPOS>MOLECULE
outputs/IAG933/test6/raw/output_7569_IAG933_linker_design_.xyz
 44 49 0 0 0
SMALL
GASTEIGER

@<TRIPOS>ATOM
      1 C         -24.8550   -1.0120   30.1430 C.3     1  UNL1        0.0975
      2 C         -24.9730   -2.5050   29.7880 C.2     1  UNL1       -0.0064
      3 C         -23.9060   -3.1730   29.1460 C.2     1  UNL1       -0.0029
      4 C         -23.9890   -4.5490   28.8530 C.2     1  UNL1       -0.0003
      5 C         -25.1370   -5.2800   29.2050 C.2     1  UNL1       -0.0000
      6 C         -26.2320   -4.6110   29.7840 C.2     1  UNL1       -0.0003
      7 C         -26.1550   -3.2320   30.0650 C.2     1  UNL1       -0.0029
      8 C         -25.3870   -0.6790   31.5710 C.3     1  UNL1        0.0916
      9 C         -25.1890    0.7730   32.0280 C.3     1  UNL1        0.0206
     10 C         -25.3360    0.6840   33.5440 C.3     1  UNL1        0.0203
     11 C         -24.8290   -0.7150   33.9050 C.3     1  UNL1        0.0888
     12 N         -24.7580   -1.4810   32.6460 N.3     1  UNL1       -0.2178
     13 C         -25.6880    1.6140   26.4610 C.2     1  UNL1        0.0217
     14 C         -26.2500    2.9200   26.3950 C.2     1  UNL1        0.0706
     15 C         -25.6420    4.0930   27.1230 C.2     1  UNL1        0.2215
     16 N         -25.6140    5.2520   26.4490 N.2     1  UNL1       -0.2357
     17 C         -25.0260    6.4790   26.9630 C.3     1  UNL1        0.1550
     18 O         -25.1430    3.9660   28.2430 O.2     1  UNL1       -0.4628
     19 C         -27.4380    3.0910   25.6450 C.2     1  UNL1        0.1065
     20 N         -28.0750    2.0890   25.0030 N.2     1  UNL1       -0.2081
     21 C         -27.5430    0.8490   25.0790 C.2     1  UNL1        0.2530
     22 O         -28.1930   -0.2080   24.4770 O.2     1  UNL1       -0.4558
     23 C         -29.4600    0.0050   23.8660 C.3     1  UNL1        0.2426
     24 C         -30.0650   -1.3770   23.5730 C.3     1  UNL1        0.2292
     25 O         -30.7290   -1.8780   24.7210 O.3     1  UNL1       -0.2162
     26 C         -26.3540    0.5760   25.7770 C.2     1  UNL1        0.1893
     27 F         -25.8600   -0.6810   25.7950 F       1  UNL1       -0.1996
     28 C         -26.2198    2.0033   28.9524 C.3     1  UNL1        0.1135
     29 N         -25.3712   -0.0133   29.1342 N.3     1  UNL1       -0.2519
     30 C         -22.2130    2.2021   25.6105 C.3     1  UNL1        0.0005
     31 C         -21.7246    0.8510   28.3592 C.2     1  UNL1        0.3601
     32 C         -23.2885    1.9220   26.6270 C.3     1  UNL1        0.0102
     33 N         -20.6252   -0.2086   28.6351 N.am    1  UNL1       -0.0678
     34 C         -24.4848    1.4750   27.3466 C.3     1  UNL1        0.0916
     35 C         -24.8609    2.3188   28.7334 C.3     1  UNL1        0.1858
     36 C         -24.1173    0.3437   28.1486 C.3     1  UNL1        0.1637
     37 O         -21.0884    1.4588   27.4156 O.2     1  UNL1       -0.2474
     38 N         -22.9746    0.7409   28.9365 N.am    1  UNL1       -0.1704
     39 C         -28.8295    2.6044   28.5985 C.3     1  UNL1        0.0802
     40 S         -27.4486    2.9496   29.8129 S.3     1  UNL1       -0.0664
     41 O         -26.4823    4.1476   30.2494 O.3     1  UNL1       -0.1708
     42 C         -26.6518    0.5104   28.5831 C.3     1  UNL1        0.0890
     43 C         -23.5117    1.9051   24.9511 C.3     1  UNL1        0.0005
     44 C         -28.5472    3.4954   31.0999 C.3     1  UNL1        0.0802
@<TRIPOS>BOND
     1     1     2    1
     2     2     7    1
     3     3     2    2
     4     4     3    1
     5     4     5    2
     6     5     6    1
     7     6     7    2
     8     8     1    1
     9     8     9    1
    10     8    12    1
    11     9    10    1
    12    10    11    1
    13    12    11    1
    14    13    34    1
    15    14    13    1
    16    14    15    1
    17    15    18    1
    18    16    17    1
    19    16    15    2
    20    19    14    2
    21    20    21    2
    22    20    19    1
    23    21    26    1
    24    22    21    1
    25    23    22    1
    26    24    23    1
    27    24    25    1
    28    26    27    1
    29    26    13    2
    30    28    40    1
    31    29     1    1
    32    30    32    1
    33    31    33    1
    34    31    38    1
    35    34    32    1
    36    34    36    1
    37    34    35    1
    38    35    18    1
    39    35    28    1
    40    36    38    1
    41    36    29    1
    42    37    31    2
    43    39    40    1
    44    40    41    1
    45    40    44    1
    46    42    28    1
    47    42    29    1
    48    43    30    1
    49    43    32    1
