@<TRIPOS>MOLECULE
outputs/IAG933/test6/raw/output_7578_IAG933_linker_design_.xyz
 42 46 0 0 0
SMALL
GASTEIGER

@<TRIPOS>ATOM
      1 C         -24.8550   -1.0120   30.1430 C.3     1  UNL1        0.1824
      2 C         -24.9730   -2.5050   29.7880 C.2     1  UNL1        0.0085
      3 C         -23.9060   -3.1730   29.1460 C.2     1  UNL1       -0.0018
      4 C         -23.9890   -4.5490   28.8530 C.2     1  UNL1       -0.0002
      5 C         -25.1370   -5.2800   29.2050 C.2     1  UNL1       -0.0000
      6 C         -26.2320   -4.6110   29.7840 C.2     1  UNL1       -0.0002
      7 C         -26.1550   -3.2320   30.0650 C.2     1  UNL1       -0.0018
      8 C         -25.3870   -0.6790   31.5710 C.3     1  UNL1        0.1068
      9 C         -25.1890    0.7730   32.0280 C.3     1  UNL1        0.0225
     10 C         -25.3360    0.6840   33.5440 C.3     1  UNL1        0.0204
     11 C         -24.8290   -0.7150   33.9050 C.3     1  UNL1        0.0888
     12 N         -24.7580   -1.4810   32.6460 N.3     1  UNL1       -0.2166
     13 C         -25.6880    1.6140   26.4610 C.2     1  UNL1        0.0567
     14 C         -26.2500    2.9200   26.3950 C.2     1  UNL1        0.0780
     15 C         -25.6420    4.0930   27.1230 C.2     1  UNL1        0.2665
     16 N         -25.6140    5.2520   26.4490 N.am    1  UNL1       -0.1997
     17 C         -25.0260    6.4790   26.9630 C.3     1  UNL1        0.1388
     18 O         -25.1430    3.9660   28.2430 O.2     1  UNL1       -0.2683
     19 C         -27.4380    3.0910   25.6450 C.2     1  UNL1        0.1068
     20 N         -28.0750    2.0890   25.0030 N.2     1  UNL1       -0.2081
     21 C         -27.5430    0.8490   25.0790 C.2     1  UNL1        0.2533
     22 O         -28.1930   -0.2080   24.4770 O.2     1  UNL1       -0.4558
     23 C         -29.4600    0.0050   23.8660 C.3     1  UNL1        0.2426
     24 C         -30.0650   -1.3770   23.5730 C.3     1  UNL1        0.2292
     25 O         -30.7290   -1.8780   24.7210 O.3     1  UNL1       -0.2162
     26 C         -26.3540    0.5760   25.7770 C.2     1  UNL1        0.1945
     27 F         -25.8600   -0.6810   25.7950 F       1  UNL1       -0.1992
     28 C         -24.6377    1.7227   30.9235 C.3     1  UNL1        0.0292
     29 O         -25.4385   -0.2805   29.0470 O.3     1  UNL1       -0.2536
     30 N         -24.7681    0.8551   28.6181 N.3     1  UNL1       -0.2355
     31 CL        -22.6305    2.0731   25.2947 Cl      1  UNL1       -0.0783
     32 C         -22.2033    1.5109   27.9491 C.2     1  UNL1        0.1497
     33 C         -24.2721    3.0145   31.6713 C.3     1  UNL1        0.0120
     34 C         -24.0142    1.3268   29.5686 C.3     1  UNL1        0.1337
     35 N         -25.2462    5.6011   33.4901 N.am    1  UNL1       -0.0878
     36 C         -25.2957    4.1025   31.4725 C.3     1  UNL1        0.0886
     37 C         -24.5539    1.3261   27.3624 C.2     1  UNL1        0.0976
     38 O         -23.7314    5.9002   31.8093 O.2     1  UNL1       -0.2717
     39 C         -22.6076    1.3379   29.3250 C.2     1  UNL1        0.0287
     40 C         -24.6894    5.2668   32.2486 C.2     1  UNL1        0.2607
     41 C         -23.1826    1.6194   26.9557 C.2     1  UNL1        0.1025
     42 F         -20.9016    1.6567   27.6096 F       1  UNL1       -0.2035
@<TRIPOS>BOND
     1     1     2    1
     2     1     8    1
     3     2     7    1
     4     3     2    2
     5     4     3    1
     6     4     5    2
     7     5     6    1
     8     6     7    2
     9     8     9    1
    10     8    12    1
    11     9    10    1
    12    10    11    1
    13    12    11    1
    14    13    37    1
    15    14    13    1
    16    14    15    1
    17    15    18    2
    18    16    17    1
    19    16    15    1
    20    19    14    2
    21    20    21    2
    22    20    19    1
    23    21    26    1
    24    22    21    1
    25    23    22    1
    26    24    23    1
    27    24    25    1
    28    26    27    1
    29    26    13    2
    30    28    33    1
    31    28     9    1
    32    29     1    1
    33    30    29    1
    34    30    34    1
    35    31    41    1
    36    32    39    2
    37    34    39    1
    38    34    28    1
    39    36    33    1
    40    36    40    1
    41    37    30    1
    42    38    40    2
    43    40    35    1
    44    41    37    2
    45    41    32    1
    46    42    32    1
