@<TRIPOS>MOLECULE
outputs/IAG933/test6/raw/output_7584_IAG933_linker_design_.xyz
 45 51 0 0 0
SMALL
GASTEIGER

@<TRIPOS>ATOM
      1 C         -24.8550   -1.0120   30.1430 C.3     1  UNL1        0.0543
      2 C         -24.9730   -2.5050   29.7880 C.2     1  UNL1       -0.0198
      3 C         -23.9060   -3.1730   29.1460 C.2     1  UNL1       -0.0042
      4 C         -23.9890   -4.5490   28.8530 C.2     1  UNL1       -0.0003
      5 C         -25.1370   -5.2800   29.2050 C.2     1  UNL1       -0.0000
      6 C         -26.2320   -4.6110   29.7840 C.2     1  UNL1       -0.0003
      7 C         -26.1550   -3.2320   30.0650 C.2     1  UNL1       -0.0042
      8 C         -25.3870   -0.6790   31.5710 C.3     1  UNL1        0.0795
      9 C         -25.1890    0.7730   32.0280 C.3     1  UNL1        0.0350
     10 C         -25.3360    0.6840   33.5440 C.3     1  UNL1        0.0216
     11 C         -24.8290   -0.7150   33.9050 C.3     1  UNL1        0.0887
     12 N         -24.7580   -1.4810   32.6460 N.3     1  UNL1       -0.2190
     13 C         -25.6880    1.6140   26.4610 C.3     1  UNL1        0.1298
     14 C         -26.2500    2.9200   26.3950 C.2     1  UNL1        0.0621
     15 C         -25.6420    4.0930   27.1230 C.2     1  UNL1        0.2629
     16 N         -25.6140    5.2520   26.4490 N.am    1  UNL1       -0.2000
     17 C         -25.0260    6.4790   26.9630 C.3     1  UNL1        0.1388
     18 O         -25.1430    3.9660   28.2430 O.2     1  UNL1       -0.2686
     19 C         -27.4380    3.0910   25.6450 C.2     1  UNL1        0.1026
     20 N         -28.0750    2.0890   25.0030 N.2     1  UNL1       -0.2118
     21 C         -27.5430    0.8490   25.0790 C.2     1  UNL1        0.2345
     22 O         -28.1930   -0.2080   24.4770 O.2     1  UNL1       -0.4585
     23 C         -29.4600    0.0050   23.8660 C.3     1  UNL1        0.2423
     24 C         -30.0650   -1.3770   23.5730 C.3     1  UNL1        0.2292
     25 O         -30.7290   -1.8780   24.7210 O.3     1  UNL1       -0.2162
     26 C         -26.3540    0.5760   25.7770 C.3     1  UNL1        0.2472
     27 F         -25.8600   -0.6810   25.7950 F       1  UNL1       -0.2264
     28 C         -26.3432    5.3515   31.0266 C.3     1  UNL1        0.2960
     29 C         -23.1450    1.3571   28.0874 C.3     1  UNL1        0.1319
     30 N         -24.2547    1.2215   29.1774 N.3     1  UNL1       -0.2657
     31 N         -21.9845    1.6285   24.8544 N.ar    1  UNL1       -0.0395
     32 O         -23.3366    1.5041   24.6142 O.2     1  UNL1       -0.3547
     33 C         -24.5320    1.4451   30.7404 C.3     1  UNL1        0.0891
     34 C         -23.3577    1.5135   26.8437 C.ar    1  UNL1        0.0852
     35 C         -21.8298    1.3726   28.5729 C.3     1  UNL1        0.2277
     36 C         -27.7518    3.5047   30.0677 C.3     1  UNL1        0.2960
     37 C         -25.1029    3.4568   32.1930 C.3     1  UNL1        0.1758
     38 C         -21.9889    1.6459   26.3038 C.ar    1  UNL1        0.2610
     39 C         -24.7134   -0.1642   28.9167 C.3     1  UNL1        0.0782
     40 O         -21.0318    1.7486   27.3895 O.3     1  UNL1       -0.4566
     41 O         -25.8052    4.7788   32.3078 O.3     1  UNL1       -0.3241
     42 C         -25.2021    2.8235   30.7652 C.3     1  UNL1        0.1620
     43 C         -24.1077    1.5388   26.0732 C.ar    1  UNL1        0.1619
     44 O         -26.5132    2.7134   30.2248 O.3     1  UNL1       -0.3252
     45 O         -27.6730    4.7421   30.7999 O.3     1  UNL1       -0.2980
@<TRIPOS>BOND
     1     1     2    1
     2     1     8    1
     3     2     7    1
     4     3     2    2
     5     4     3    1
     6     4     5    2
     7     5     6    1
     8     6     7    2
     9     8     9    1
    10     8    12    1
    11     9    10    1
    12    10    11    1
    13    12    11    1
    14    13    43    1
    15    14    13    1
    16    14    15    1
    17    15    18    2
    18    16    17    1
    19    16    15    1
    20    19    14    2
    21    20    21    2
    22    20    19    1
    23    21    26    1
    24    22    21    1
    25    23    22    1
    26    24    23    1
    27    24    25    1
    28    26    27    1
    29    26    13    1
    30    28    41    1
    31    29    35    1
    32    29    30    1
    33    30    39    1
    34    30    33    1
    35    31    38   ar
    36    32    31   ar
    37    32    43   ar
    38    33    42    1
    39    33     9    1
    40    34    29    1
    41    36    44    1
    42    36    45    1
    43    37    41    1
    44    38    34   ar
    45    38    40    1
    46    39     1    1
    47    40    35    1
    48    42    37    1
    49    43    34   ar
    50    44    42    1
    51    45    28    1
