@<TRIPOS>MOLECULE
outputs/IAG933/test6/raw/output_7588_IAG933_linker_design_.xyz
 43 46 0 0 0
SMALL
GASTEIGER

@<TRIPOS>ATOM
      1 C         -24.8550   -1.0120   30.1430 C.3     1  UNL1        0.0737
      2 C         -24.9730   -2.5050   29.7880 C.2     1  UNL1       -0.0181
      3 C         -23.9060   -3.1730   29.1460 C.2     1  UNL1       -0.0041
      4 C         -23.9890   -4.5490   28.8530 C.2     1  UNL1       -0.0003
      5 C         -25.1370   -5.2800   29.2050 C.2     1  UNL1       -0.0000
      6 C         -26.2320   -4.6110   29.7840 C.2     1  UNL1       -0.0003
      7 C         -26.1550   -3.2320   30.0650 C.2     1  UNL1       -0.0041
      8 C         -25.3870   -0.6790   31.5710 C.3     1  UNL1        0.0798
      9 C         -25.1890    0.7730   32.0280 C.3     1  UNL1        0.0193
     10 C         -25.3360    0.6840   33.5440 C.3     1  UNL1        0.0202
     11 C         -24.8290   -0.7150   33.9050 C.3     1  UNL1        0.0887
     12 N         -24.7580   -1.4810   32.6460 N.3     1  UNL1       -0.2190
     13 C         -25.6880    1.6140   26.4610 C.3     1  UNL1        0.1296
     14 C         -26.2500    2.9200   26.3950 C.2     1  UNL1        0.0696
     15 C         -25.6420    4.0930   27.1230 C.2     1  UNL1        0.2637
     16 N         -25.6140    5.2520   26.4490 N.am    1  UNL1       -0.2000
     17 C         -25.0260    6.4790   26.9630 C.3     1  UNL1        0.1388
     18 O         -25.1430    3.9660   28.2430 O.2     1  UNL1       -0.2686
     19 C         -27.4380    3.0910   25.6450 C.2     1  UNL1        0.1035
     20 N         -28.0750    2.0890   25.0030 N.2     1  UNL1       -0.2118
     21 C         -27.5430    0.8490   25.0790 C.2     1  UNL1        0.2355
     22 O         -28.1930   -0.2080   24.4770 O.2     1  UNL1       -0.4585
     23 C         -29.4600    0.0050   23.8660 C.3     1  UNL1        0.2423
     24 C         -30.0650   -1.3770   23.5730 C.3     1  UNL1        0.2292
     25 O         -30.7290   -1.8780   24.7210 O.3     1  UNL1       -0.2162
     26 C         -26.3540    0.5760   25.7770 C.3     1  UNL1        0.2546
     27 F         -25.8600   -0.6810   25.7950 F       1  UNL1       -0.2254
     28 C         -30.0701    1.9532   32.0003 C.2     1  UNL1       -0.0038
     29 C         -21.2926    1.8390   27.4537 C.3     1  UNL1        0.0014
     30 N         -24.7649    1.0115   27.5159 N.3     1  UNL1       -0.2513
     31 C         -25.2531   -0.0122   28.9200 C.3     1  UNL1        0.1602
     32 C         -30.0061    0.3725   33.8454 C.2     1  UNL1       -0.0000
     33 C         -22.8028    2.4823   25.4636 C.3     1  UNL1        0.0014
     34 C         -22.7129    2.1175   26.9547 C.3     1  UNL1        0.0161
     35 C         -23.3861    0.8163   27.4258 C.3     1  UNL1        0.0739
     36 N         -26.3148    1.0305   29.2983 N.am    1  UNL1       -0.1898
     37 C         -28.7149    1.4141   29.7530 C.3     1  UNL1        0.1131
     38 C         -27.6449    0.5541   29.1678 C.2     1  UNL1        0.2470
     39 C         -30.4691    1.5921   33.2913 C.2     1  UNL1       -0.0003
     40 O         -27.9625   -0.5458   28.7481 O.2     1  UNL1       -0.2729
     41 C         -29.3163    1.0659   31.1736 C.2     1  UNL1       -0.0130
     42 C         -28.9609   -0.2040   31.6673 C.2     1  UNL1       -0.0038
     43 C         -29.2521   -0.5149   33.0374 C.2     1  UNL1       -0.0003
@<TRIPOS>BOND
     1     1    31    1
     2     2     7    1
     3     2     1    1
     4     3     2    2
     5     4     3    1
     6     4     5    2
     7     5     6    1
     8     6     7    2
     9     8     1    1
    10     8     9    1
    11     8    12    1
    12     9    10    1
    13    10    11    1
    14    12    11    1
    15    13    30    1
    16    14    13    1
    17    14    15    1
    18    15    18    2
    19    16    17    1
    20    16    15    1
    21    19    14    2
    22    20    21    2
    23    20    19    1
    24    21    26    1
    25    22    21    1
    26    23    22    1
    27    24    23    1
    28    24    25    1
    29    26    27    1
    30    26    13    1
    31    28    39    1
    32    30    31    1
    33    31    36    1
    34    33    34    1
    35    34    35    1
    36    34    29    1
    37    35    30    1
    38    37    41    1
    39    38    36    1
    40    38    37    1
    41    39    32    2
    42    40    38    2
    43    41    42    1
    44    41    28    2
    45    42    43    2
    46    43    32    1
