@<TRIPOS>MOLECULE
outputs/IAG933/test6/raw/output_7589_IAG933_linker_design_.xyz
 41 45 0 0 0
SMALL
GASTEIGER

@<TRIPOS>ATOM
      1 C         -24.8550   -1.0120   30.1430 C.3     1  UNL1        0.0384
      2 C         -24.9730   -2.5050   29.7880 C.2     1  UNL1       -0.0212
      3 C         -23.9060   -3.1730   29.1460 C.2     1  UNL1       -0.0042
      4 C         -23.9890   -4.5490   28.8530 C.2     1  UNL1       -0.0003
      5 C         -25.1370   -5.2800   29.2050 C.2     1  UNL1       -0.0000
      6 C         -26.2320   -4.6110   29.7840 C.2     1  UNL1       -0.0003
      7 C         -26.1550   -3.2320   30.0650 C.2     1  UNL1       -0.0042
      8 C         -25.3870   -0.6790   31.5710 C.3     1  UNL1        0.0768
      9 C         -25.1890    0.7730   32.0280 C.3     1  UNL1        0.0192
     10 C         -25.3360    0.6840   33.5440 C.3     1  UNL1        0.0202
     11 C         -24.8290   -0.7150   33.9050 C.3     1  UNL1        0.0887
     12 N         -24.7580   -1.4810   32.6460 N.3     1  UNL1       -0.2191
     13 C         -25.6880    1.6140   26.4610 C.2     1  UNL1        0.0210
     14 C         -26.2500    2.9200   26.3950 C.2     1  UNL1        0.0729
     15 C         -25.6420    4.0930   27.1230 C.2     1  UNL1        0.2661
     16 N         -25.6140    5.2520   26.4490 N.am    1  UNL1       -0.1997
     17 C         -25.0260    6.4790   26.9630 C.3     1  UNL1        0.1388
     18 O         -25.1430    3.9660   28.2430 O.2     1  UNL1       -0.2683
     19 C         -27.4380    3.0910   25.6450 C.2     1  UNL1        0.1064
     20 N         -28.0750    2.0890   25.0030 N.2     1  UNL1       -0.2081
     21 C         -27.5430    0.8490   25.0790 C.2     1  UNL1        0.2530
     22 O         -28.1930   -0.2080   24.4770 O.2     1  UNL1       -0.4558
     23 C         -29.4600    0.0050   23.8660 C.3     1  UNL1        0.2426
     24 C         -30.0650   -1.3770   23.5730 C.3     1  UNL1        0.2292
     25 O         -30.7290   -1.8780   24.7210 O.3     1  UNL1       -0.2162
     26 C         -26.3540    0.5760   25.7770 C.2     1  UNL1        0.1895
     27 F         -25.8600   -0.6810   25.7950 F       1  UNL1       -0.1996
     28 C         -28.1997    4.0894   30.8774 C.3     1  UNL1        0.0000
     29 C         -23.0801    0.9328   28.9946 C.3     1  UNL1        0.0408
     30 C         -26.8856   -0.0779   28.6738 C.3     1  UNL1        0.0004
     31 O         -21.2451    1.6328   27.1225 O.3     1  UNL1       -0.1457
     32 O         -21.5010    2.0607   25.7428 O.2     1  UNL1       -0.2174
     33 C         -25.4565   -0.0487   29.0483 C.3     1  UNL1        0.0062
     34 C         -27.6902    1.2209   28.8361 C.3     1  UNL1        0.0000
     35 C         -23.3837    1.6492   26.7517 C.2     1  UNL1        0.1134
     36 C         -28.0932    1.6745   30.2988 C.3     1  UNL1        0.0000
     37 C         -24.5164    1.3095   27.1830 C.3     1  UNL1        0.0668
     38 C         -22.4935    1.3998   27.7553 C.3     1  UNL1        0.2059
     39 C         -24.4138    0.7106   28.4669 C.3     1  UNL1        0.0129
     40 C         -28.9091    2.9451   30.1457 C.3     1  UNL1        0.0000
     41 N         -22.8212    2.1083   25.5235 N.2     1  UNL1       -0.0489
@<TRIPOS>BOND
     1     1    33    1
     2     2     7    1
     3     2     1    1
     4     3     2    2
     5     4     3    1
     6     4     5    2
     7     5     6    1
     8     6     7    2
     9     8     1    1
    10     8     9    1
    11     8    12    1
    12     9    10    1
    13    10    11    1
    14    12    11    1
    15    14    13    1
    16    14    15    1
    17    15    18    2
    18    16    17    1
    19    16    15    1
    20    19    14    2
    21    20    21    2
    22    20    19    1
    23    21    26    1
    24    22    21    1
    25    23    22    1
    26    24    23    1
    27    24    25    1
    28    26    27    1
    29    26    13    2
    30    30    34    1
    31    31    38    1
    32    32    31    1
    33    33    30    1
    34    34    36    1
    35    35    37    1
    36    35    38    1
    37    37    13    1
    38    37    39    1
    39    38    29    1
    40    39    29    1
    41    39    33    1
    42    40    36    1
    43    40    28    1
    44    41    32    1
    45    41    35    2
