@<TRIPOS>MOLECULE
outputs/IAG933/test6/raw/output_7590_IAG933_linker_design_.xyz
 43 46 0 0 0
SMALL
GASTEIGER

@<TRIPOS>ATOM
      1 C         -24.8550   -1.0120   30.1430 C.3     1  UNL1        0.1117
      2 C         -24.9730   -2.5050   29.7880 C.2     1  UNL1       -0.0030
      3 C         -23.9060   -3.1730   29.1460 C.2     1  UNL1       -0.0026
      4 C         -23.9890   -4.5490   28.8530 C.2     1  UNL1       -0.0003
      5 C         -25.1370   -5.2800   29.2050 C.2     1  UNL1       -0.0000
      6 C         -26.2320   -4.6110   29.7840 C.2     1  UNL1       -0.0003
      7 C         -26.1550   -3.2320   30.0650 C.2     1  UNL1       -0.0026
      8 C         -25.3870   -0.6790   31.5710 C.3     1  UNL1        0.0950
      9 C         -25.1890    0.7730   32.0280 C.3     1  UNL1        0.0209
     10 C         -25.3360    0.6840   33.5440 C.3     1  UNL1        0.0203
     11 C         -24.8290   -0.7150   33.9050 C.3     1  UNL1        0.0888
     12 N         -24.7580   -1.4810   32.6460 N.3     1  UNL1       -0.2174
     13 C         -25.6880    1.6140   26.4610 C.2     1  UNL1        0.0430
     14 C         -26.2500    2.9200   26.3950 C.2     1  UNL1        0.0767
     15 C         -25.6420    4.0930   27.1230 C.2     1  UNL1        0.2664
     16 N         -25.6140    5.2520   26.4490 N.am    1  UNL1       -0.1997
     17 C         -25.0260    6.4790   26.9630 C.3     1  UNL1        0.1388
     18 O         -25.1430    3.9660   28.2430 O.2     1  UNL1       -0.2683
     19 C         -27.4380    3.0910   25.6450 C.2     1  UNL1        0.1067
     20 N         -28.0750    2.0890   25.0030 N.2     1  UNL1       -0.2081
     21 C         -27.5430    0.8490   25.0790 C.2     1  UNL1        0.2533
     22 O         -28.1930   -0.2080   24.4770 O.2     1  UNL1       -0.4558
     23 C         -29.4600    0.0050   23.8660 C.3     1  UNL1        0.2426
     24 C         -30.0650   -1.3770   23.5730 C.3     1  UNL1        0.2292
     25 O         -30.7290   -1.8780   24.7210 O.3     1  UNL1       -0.2162
     26 C         -26.3540    0.5760   25.7770 C.2     1  UNL1        0.1932
     27 F         -25.8600   -0.6810   25.7950 F       1  UNL1       -0.1992
     28 O         -28.7916   -0.8150   28.3357 O.3     1  UNL1       -0.4197
     29 C         -24.3247    1.4273   27.0124 C.ar    1  UNL1        0.0642
     30 N         -28.6006    0.3969   28.8530 N.am    1  UNL1       -0.2814
     31 C         -26.3907   -0.2228   28.6041 C.3     1  UNL1        0.1412
     32 C         -29.6340    1.4217   29.2374 C.3     1  UNL1        0.1197
     33 N         -21.9085    1.9461   26.7976 N.ar    1  UNL1       -0.1877
     34 C         -24.1368    0.6346   28.2370 C.ar    1  UNL1        0.0838
     35 C         -27.3876    0.6823   29.2615 C.2     1  UNL1        0.0879
     36 N         -25.0492   -0.1108   29.0062 N.pl3   1  UNL1       -0.2966
     37 C         -22.8092    0.5791   28.6579 C.ar    1  UNL1        0.1991
     38 O         -27.1416    1.6195   30.0187 O.2     1  UNL1       -0.5395
     39 F         -20.5265    1.3258   28.5156 F       1  UNL1       -0.1806
     40 F         -23.3067    2.6210   25.1363 F       1  UNL1       -0.1831
     41 C         -23.1721    1.9991   26.3241 C.ar    1  UNL1        0.2255
     42 F         -22.3802   -0.1990   29.6746 F       1  UNL1       -0.1988
     43 C         -21.7601    1.2320   28.0221 C.ar    1  UNL1        0.2530
@<TRIPOS>BOND
     1     1    36    1
     2     2     7    1
     3     2     1    1
     4     3     2    2
     5     4     3    1
     6     4     5    2
     7     5     6    1
     8     6     7    2
     9     8     1    1
    10     8     9    1
    11     8    12    1
    12     9    10    1
    13    10    11    1
    14    12    11    1
    15    13    29    1
    16    14    13    1
    17    14    15    1
    18    15    18    2
    19    16    17    1
    20    16    15    1
    21    19    14    2
    22    20    21    2
    23    20    19    1
    24    21    26    1
    25    22    21    1
    26    23    22    1
    27    24    23    1
    28    24    25    1
    29    26    27    1
    30    26    13    2
    31    28    30    1
    32    29    34   ar
    33    30    32    1
    34    30    35   am
    35    31    36    1
    36    31    35    1
    37    33    43   ar
    38    34    37   ar
    39    34    36    1
    40    35    38    2
    41    37    42    1
    42    40    41    1
    43    41    33   ar
    44    41    29   ar
    45    43    39    1
    46    43    37   ar
