@<TRIPOS>MOLECULE
outputs/IAG933/test6/raw/output_7593_IAG933_linker_design_.xyz
 47 51 0 0 0
SMALL
GASTEIGER

@<TRIPOS>ATOM
      1 C         -24.8550   -1.0120   30.1430 C.3     1  UNL1        0.1130
      2 C         -24.9730   -2.5050   29.7880 C.2     1  UNL1       -0.0051
      3 C         -23.9060   -3.1730   29.1460 C.2     1  UNL1       -0.0029
      4 C         -23.9890   -4.5490   28.8530 C.2     1  UNL1       -0.0003
      5 C         -25.1370   -5.2800   29.2050 C.2     1  UNL1       -0.0000
      6 C         -26.2320   -4.6110   29.7840 C.2     1  UNL1       -0.0003
      7 C         -26.1550   -3.2320   30.0650 C.2     1  UNL1       -0.0029
      8 C         -25.3870   -0.6790   31.5710 C.3     1  UNL1        0.0970
      9 C         -25.1890    0.7730   32.0280 C.3     1  UNL1        0.0451
     10 C         -25.3360    0.6840   33.5440 C.3     1  UNL1        0.0247
     11 C         -24.8290   -0.7150   33.9050 C.3     1  UNL1        0.0891
     12 N         -24.7580   -1.4810   32.6460 N.3     1  UNL1       -0.2174
     13 C         -25.6880    1.6140   26.4610 C.2     1  UNL1        0.0387
     14 C         -26.2500    2.9200   26.3950 C.2     1  UNL1        0.0743
     15 C         -25.6420    4.0930   27.1230 C.2     1  UNL1        0.2662
     16 N         -25.6140    5.2520   26.4490 N.am    1  UNL1       -0.1997
     17 C         -25.0260    6.4790   26.9630 C.3     1  UNL1        0.1388
     18 O         -25.1430    3.9660   28.2430 O.2     1  UNL1       -0.2683
     19 C         -27.4380    3.0910   25.6450 C.2     1  UNL1        0.1065
     20 N         -28.0750    2.0890   25.0030 N.2     1  UNL1       -0.2081
     21 C         -27.5430    0.8490   25.0790 C.2     1  UNL1        0.2530
     22 O         -28.1930   -0.2080   24.4770 O.2     1  UNL1       -0.4558
     23 C         -29.4600    0.0050   23.8660 C.3     1  UNL1        0.2426
     24 C         -30.0650   -1.3770   23.5730 C.3     1  UNL1        0.2292
     25 O         -30.7290   -1.8780   24.7210 O.3     1  UNL1       -0.2162
     26 C         -26.3540    0.5760   25.7770 C.2     1  UNL1        0.1908
     27 F         -25.8600   -0.6810   25.7950 F       1  UNL1       -0.1995
     28 N         -25.6834    1.3853   29.3727 N.pl3   1  UNL1       -0.2203
     29 C         -27.5126    3.8832   32.1705 C.2     1  UNL1        0.1655
     30 F         -25.9139    3.4307   33.8646 F       1  UNL1       -0.2013
     31 C         -27.7274    3.9882   30.8099 C.2     1  UNL1        0.0405
     32 O         -21.0071    1.5248   27.2937 O.co2   1  UNL1       -0.2207
     33 O         -28.5358    4.3884   32.9855 O.2     1  UNL1       -0.4732
     34 O         -21.7330    2.3617   25.4108 O.co2   1  UNL1       -0.2207
     35 N         -23.5093    2.1153   26.6620 N.am    1  UNL1       -0.1596
     36 O         -22.2106   -0.0355   29.1691 O.3     1  UNL1       -0.2169
     37 C         -26.3846    3.1501   32.5958 C.2     1  UNL1        0.1711
     38 C         -26.0776    2.3047   30.3800 C.2     1  UNL1        0.0653
     39 C         -22.0035    1.9942   26.5285 C.2     1  UNL1        0.4633
     40 C         -28.7835    5.0830   34.1729 C.3     1  UNL1        0.2056
     41 N         -24.7980   -0.2706   28.8432 N.3     1  UNL1       -0.1929
     42 C         -22.8953    1.1883   29.2975 C.3     1  UNL1        0.2203
     43 C         -24.4199    1.2878   27.1964 C.3     1  UNL1        0.1593
     44 C         -25.8512    2.1760   31.7359 C.2     1  UNL1        0.0243
     45 C         -27.0629    3.1829   29.9242 C.2     1  UNL1        0.0191
     46 C         -24.3842    1.0957   28.7678 C.3     1  UNL1        0.1876
     47 C         -30.2970    5.0408   34.3140 C.3     1  UNL1        0.0512
@<TRIPOS>BOND
     1     1     2    1
     2     1     8    1
     3     2     7    1
     4     3     2    2
     5     4     3    1
     6     4     5    2
     7     5     6    1
     8     6     7    2
     9     8     9    1
    10     8    12    1
    11     9    10    1
    12    10    11    1
    13    12    11    1
    14    13    43    1
    15    14    13    1
    16    14    15    1
    17    15    18    2
    18    16    17    1
    19    16    15    1
    20    19    14    2
    21    20    21    2
    22    20    19    1
    23    21    26    1
    24    22    21    1
    25    23    22    1
    26    24    23    1
    27    24    25    1
    28    26    27    1
    29    26    13    2
    30    28    38    1
    31    29    37    1
    32    29    33    1
    33    31    29    2
    34    33    40    1
    35    34    39   ar
    36    36    42    1
    37    37    30    1
    38    38    44    1
    39    39    35    1
    40    39    32   ar
    41    40    47    1
    42    41     1    1
    43    43    35    1
    44    43    46    1
    45    44     9    1
    46    44    37    2
    47    45    38    2
    48    45    31    1
    49    46    41    1
    50    46    42    1
    51    46    28    1
