@<TRIPOS>MOLECULE
outputs/IAG933/test6/raw/output_7599_IAG933_linker_design_.xyz
 45 49 0 0 0
SMALL
GASTEIGER

@<TRIPOS>ATOM
      1 C         -24.8550   -1.0120   30.1430 C.3     1  UNL1        0.0627
      2 C         -24.9730   -2.5050   29.7880 C.2     1  UNL1       -0.0191
      3 C         -23.9060   -3.1730   29.1460 C.2     1  UNL1       -0.0042
      4 C         -23.9890   -4.5490   28.8530 C.2     1  UNL1       -0.0003
      5 C         -25.1370   -5.2800   29.2050 C.2     1  UNL1       -0.0000
      6 C         -26.2320   -4.6110   29.7840 C.2     1  UNL1       -0.0003
      7 C         -26.1550   -3.2320   30.0650 C.2     1  UNL1       -0.0042
      8 C         -25.3870   -0.6790   31.5710 C.3     1  UNL1        0.0788
      9 C         -25.1890    0.7730   32.0280 C.3     1  UNL1        0.0193
     10 C         -25.3360    0.6840   33.5440 C.3     1  UNL1        0.0202
     11 C         -24.8290   -0.7150   33.9050 C.3     1  UNL1        0.0887
     12 N         -24.7580   -1.4810   32.6460 N.3     1  UNL1       -0.2191
     13 C         -25.6880    1.6140   26.4610 C.2     1  UNL1        0.0523
     14 C         -26.2500    2.9200   26.3950 C.2     1  UNL1        0.0778
     15 C         -25.6420    4.0930   27.1230 C.2     1  UNL1        0.2665
     16 N         -25.6140    5.2520   26.4490 N.am    1  UNL1       -0.1997
     17 C         -25.0260    6.4790   26.9630 C.3     1  UNL1        0.1388
     18 O         -25.1430    3.9660   28.2430 O.2     1  UNL1       -0.2683
     19 C         -27.4380    3.0910   25.6450 C.2     1  UNL1        0.1068
     20 N         -28.0750    2.0890   25.0030 N.2     1  UNL1       -0.2081
     21 C         -27.5430    0.8490   25.0790 C.2     1  UNL1        0.2533
     22 O         -28.1930   -0.2080   24.4770 O.2     1  UNL1       -0.4558
     23 C         -29.4600    0.0050   23.8660 C.3     1  UNL1        0.2426
     24 C         -30.0650   -1.3770   23.5730 C.3     1  UNL1        0.2292
     25 O         -30.7290   -1.8780   24.7210 O.3     1  UNL1       -0.2162
     26 C         -26.3540    0.5760   25.7770 C.2     1  UNL1        0.1943
     27 F         -25.8600   -0.6810   25.7950 F       1  UNL1       -0.1992
     28 N         -27.0295    1.7931   29.6873 N.2     1  UNL1       -0.1619
     29 C         -25.2941    0.0244   29.1474 C.3     1  UNL1        0.1274
     30 C         -27.9681   -0.3070   29.4376 C.2     1  UNL1        0.0319
     31 C         -31.7290    1.1724   28.6583 C.3     1  UNL1        0.0080
     32 C         -30.5737    0.4473   29.5790 C.3     1  UNL1        0.0725
     33 C         -26.7548    0.4626   29.4366 C.2     1  UNL1        0.0979
     34 C         -23.1658    1.9855   26.5294 C.2     1  UNL1        0.0547
     35 C         -24.3784    1.4265   27.1191 C.2     1  UNL1        0.0640
     36 O         -30.7031   -1.4508   27.9615 O.3     1  UNL1       -0.2200
     37 C         -30.8341   -1.0913   29.3030 C.3     1  UNL1        0.1878
     38 N         -28.4442    1.8624   29.9326 N.pl3   1  UNL1       -0.1217
     39 C         -29.0085    0.6458   29.6769 C.2     1  UNL1        0.0726
     40 C         -31.2584    1.5403   27.2152 C.3     1  UNL1        0.0005
     41 C         -22.7478    0.3958   28.8122 C.2     1  UNL1        0.2844
     42 S         -21.7721    1.4644   27.6072 S.3     1  UNL1       -0.0280
     43 N         -24.1135    0.6477   28.2180 N.am    1  UNL1       -0.2451
     44 C         -33.0381    0.3077   28.5608 C.3     1  UNL1        0.0005
     45 O         -22.3488   -0.2013   29.6963 O.2     1  UNL1       -0.2620
@<TRIPOS>BOND
     1     1    29    1
     2     2     7    1
     3     2     1    1
     4     3     2    2
     5     4     3    1
     6     4     5    2
     7     5     6    1
     8     6     7    2
     9     8     1    1
    10     8     9    1
    11     8    12    1
    12     9    10    1
    13    10    11    1
    14    12    11    1
    15    13    35    1
    16    14    13    1
    17    14    15    1
    18    15    18    2
    19    16    17    1
    20    16    15    1
    21    19    14    2
    22    20    21    2
    23    20    19    1
    24    21    26    1
    25    22    21    1
    26    23    22    1
    27    24    23    1
    28    24    25    1
    29    26    27    1
    30    26    13    2
    31    28    38    1
    32    29    33    1
    33    30    39    2
    34    31    32    1
    35    32    37    1
    36    32    39    1
    37    33    30    1
    38    33    28    2
    39    34    35    2
    40    34    42    1
    41    35    43    1
    42    36    37    1
    43    39    38    1
    44    40    31    1
    45    41    45    2
    46    42    41    1
    47    43    41   am
    48    43    29    1
    49    44    31    1
