@<TRIPOS>MOLECULE
No_76-gen_results/8p0m/2024-11-27-11-27-31/
 7 7 0 0 0
SMALL
GASTEIGER

@<TRIPOS>ATOM
      1 C         -28.0162   -0.8135   28.8779 C.ar    1  UNL1        0.0296
      2 C         -28.4690   -0.7850   29.8287 C.ar    1  UNL1        0.1401
      3 C         -26.5042   -0.7777   28.8766 C.ar    1  UNL1        0.0023
      4 C         -25.8103   -0.8531   30.1028 C.ar    1  UNL1        0.0001
      5 C         -27.9864   -0.8420   31.0657 C.ar    1  UNL1        0.0296
      6 C         -26.6147   -0.8427   31.2304 C.ar    1  UNL1        0.0023
      7 F         -29.9132   -0.8348   29.7621 F       1  UNL1       -0.2042
@<TRIPOS>BOND
     1     2     7    1
     2     1     2   ar
     3     2     5   ar
     4     5     6   ar
     5     6     4   ar
     6     4     3   ar
     7     3     1   ar
