@<TRIPOS>MOLECULE
No_760-gen_results/8p0m/2024-11-27-11-27-31/
 16 17 0 0 0
SMALL
GASTEIGER

@<TRIPOS>ATOM
      1 C         -28.0162   -0.8135   28.8779 C.ar    1  UNL1        0.0045
      2 C         -28.4690   -0.7850   29.8287 C.ar    1  UNL1        0.0001
      3 C         -27.1356    0.2359   28.5352 C.ar    1  UNL1        0.0539
      4 C         -26.8745    1.2825   29.3982 C.ar    1  UNL1        0.0045
      5 C         -27.5070    1.2380   30.6295 C.ar    1  UNL1        0.0001
      6 C         -28.3293    0.1745   30.9350 C.ar    1  UNL1        0.0000
      7 C         -26.4077    0.3070   27.2259 C.2     1  UNL1        0.2528
      8 N         -26.8825    0.5866   26.2352 N.am    1  UNL1       -0.2534
      9 O         -25.0978   -0.0459   27.2404 O.2     1  UNL1       -0.2696
     10 C         -26.2326    0.5076   24.8927 C.3     1  UNL1        0.1203
     11 C         -28.3093    0.9958   26.0176 C.ar    1  UNL1        0.0542
     12 C         -28.3958    2.2681   25.7669 C.ar    1  UNL1        0.0149
     13 C         -29.3166    0.1153   25.9485 C.ar    1  UNL1        0.0149
     14 C         -30.5998    0.5389   25.7752 C.ar    1  UNL1        0.0013
     15 C         -29.7460    2.8375   25.5258 C.ar    1  UNL1        0.0013
     16 C         -30.8155    1.9605   25.5340 C.ar    1  UNL1        0.0001
@<TRIPOS>BOND
     1     3     7    1
     2     7     8   am
     3     7     9    2
     4     8    10    1
     5     8    11    1
     6    11    12   ar
     7    12    15   ar
     8    15    16   ar
     9    16    14   ar
    10    14    13   ar
    11    13    11   ar
    12     1     2   ar
    13     2     6   ar
    14     6     5   ar
    15     5     4   ar
    16     4     3   ar
    17     3     1   ar
