@<TRIPOS>MOLECULE
outputs/IAG933/test6/raw/output_7605_IAG933_linker_design_.xyz
 44 48 0 0 0
SMALL
GASTEIGER

@<TRIPOS>ATOM
      1 C         -24.8550   -1.0120   30.1430 C.3     1  UNL1        0.0965
      2 C         -24.9730   -2.5050   29.7880 C.2     1  UNL1       -0.0064
      3 C         -23.9060   -3.1730   29.1460 C.2     1  UNL1       -0.0029
      4 C         -23.9890   -4.5490   28.8530 C.2     1  UNL1       -0.0003
      5 C         -25.1370   -5.2800   29.2050 C.2     1  UNL1       -0.0000
      6 C         -26.2320   -4.6110   29.7840 C.2     1  UNL1       -0.0003
      7 C         -26.1550   -3.2320   30.0650 C.2     1  UNL1       -0.0029
      8 C         -25.3870   -0.6790   31.5710 C.3     1  UNL1        0.0916
      9 C         -25.1890    0.7730   32.0280 C.3     1  UNL1        0.0206
     10 C         -25.3360    0.6840   33.5440 C.3     1  UNL1        0.0203
     11 C         -24.8290   -0.7150   33.9050 C.3     1  UNL1        0.0888
     12 N         -24.7580   -1.4810   32.6460 N.3     1  UNL1       -0.2178
     13 C         -25.6880    1.6140   26.4610 C.3     1  UNL1        0.0920
     14 C         -26.2500    2.9200   26.3950 C.2     1  UNL1        0.0589
     15 C         -25.6420    4.0930   27.1230 C.2     1  UNL1        0.2628
     16 N         -25.6140    5.2520   26.4490 N.am    1  UNL1       -0.2000
     17 C         -25.0260    6.4790   26.9630 C.3     1  UNL1        0.1388
     18 O         -25.1430    3.9660   28.2430 O.2     1  UNL1       -0.2686
     19 C         -27.4380    3.0910   25.6450 C.2     1  UNL1        0.1025
     20 N         -28.0750    2.0890   25.0030 N.2     1  UNL1       -0.2118
     21 C         -27.5430    0.8490   25.0790 C.2     1  UNL1        0.2344
     22 O         -28.1930   -0.2080   24.4770 O.2     1  UNL1       -0.4585
     23 C         -29.4600    0.0050   23.8660 C.3     1  UNL1        0.2423
     24 C         -30.0650   -1.3770   23.5730 C.3     1  UNL1        0.2292
     25 O         -30.7290   -1.8780   24.7210 O.3     1  UNL1       -0.2162
     26 C         -26.3540    0.5760   25.7770 C.3     1  UNL1        0.2440
     27 F         -25.8600   -0.6810   25.7950 F       1  UNL1       -0.2265
     28 C         -22.6915    0.8587   28.5241 C.3     1  UNL1        0.2290
     29 C         -24.2345    1.4248   26.7658 C.2     1  UNL1       -0.0151
     30 C         -31.1073    0.1859   28.0232 C.2     1  UNL1        0.2820
     31 O         -30.5904   -0.6458   27.2648 O.2     1  UNL1       -0.2695
     32 C         -27.1194   -0.4487   28.9075 C.3     1  UNL1        0.0773
     33 O         -21.6784    1.4620   27.8305 O.2     1  UNL1       -0.4679
     34 N         -32.1881    2.1104   29.6359 N.3     1  UNL1       -0.0980
     35 C         -21.9121    2.0349   26.6335 C.2     1  UNL1        0.1724
     36 N         -32.4235    0.9179   27.7535 N.am    1  UNL1       -0.1751
     37 N         -25.6484   -0.1042   29.2504 N.3     1  UNL1       -0.2653
     38 C         -28.6316   -0.2501   29.2038 C.3     1  UNL1        0.0431
     39 C         -30.1599    1.9071   28.9354 C.2     1  UNL1        0.0154
     40 C         -23.1787    2.0377   26.0451 C.2     1  UNL1        0.0357
     41 C         -24.6878   -0.4201   28.1341 C.3     1  UNL1        0.0984
     42 C         -31.5729    1.2387   28.6492 C.3     1  UNL1        0.2417
     43 C         -23.8753    0.6286   27.8601 C.2     1  UNL1        0.0115
     44 C         -28.7794    1.2876   29.1268 C.2     1  UNL1       -0.0257
@<TRIPOS>BOND
     1     1    37    1
     2     2     7    1
     3     2     1    1
     4     3     2    2
     5     4     3    1
     6     4     5    2
     7     5     6    1
     8     6     7    2
     9     8     1    1
    10     8     9    1
    11     8    12    1
    12     9    10    1
    13    10    11    1
    14    12    11    1
    15    13    29    1
    16    14    13    1
    17    14    15    1
    18    15    18    2
    19    16    17    1
    20    16    15    1
    21    19    14    2
    22    20    21    2
    23    20    19    1
    24    21    26    1
    25    22    21    1
    26    23    22    1
    27    24    23    1
    28    24    25    1
    29    26    27    1
    30    26    13    1
    31    29    43    2
    32    30    42    1
    33    31    30    2
    34    32    38    1
    35    32    37    1
    36    33    28    1
    37    35    33    1
    38    36    30    1
    39    36    42    1
    40    39    44    2
    41    40    35    2
    42    40    29    1
    43    41    37    1
    44    42    39    1
    45    42    34    1
    46    43    41    1
    47    43    28    1
    48    44    38    1
