@<TRIPOS>MOLECULE
outputs/IAG933/test6/raw/output_7607_IAG933_linker_design_.xyz
 45 50 0 0 0
SMALL
GASTEIGER

@<TRIPOS>ATOM
      1 C         -24.8550   -1.0120   30.1430 C.3     1  UNL1        0.0437
      2 C         -24.9730   -2.5050   29.7880 C.2     1  UNL1       -0.0208
      3 C         -23.9060   -3.1730   29.1460 C.2     1  UNL1       -0.0042
      4 C         -23.9890   -4.5490   28.8530 C.2     1  UNL1       -0.0003
      5 C         -25.1370   -5.2800   29.2050 C.2     1  UNL1       -0.0000
      6 C         -26.2320   -4.6110   29.7840 C.2     1  UNL1       -0.0003
      7 C         -26.1550   -3.2320   30.0650 C.2     1  UNL1       -0.0042
      8 C         -25.3870   -0.6790   31.5710 C.3     1  UNL1        0.0772
      9 C         -25.1890    0.7730   32.0280 C.3     1  UNL1        0.0214
     10 C         -25.3360    0.6840   33.5440 C.3     1  UNL1        0.0203
     11 C         -24.8290   -0.7150   33.9050 C.3     1  UNL1        0.0887
     12 N         -24.7580   -1.4810   32.6460 N.3     1  UNL1       -0.2191
     13 C         -25.6880    1.6140   26.4610 C.3     1  UNL1        0.0968
     14 C         -26.2500    2.9200   26.3950 C.2     1  UNL1        0.0590
     15 C         -25.6420    4.0930   27.1230 C.2     1  UNL1        0.2628
     16 N         -25.6140    5.2520   26.4490 N.am    1  UNL1       -0.2000
     17 C         -25.0260    6.4790   26.9630 C.3     1  UNL1        0.1388
     18 O         -25.1430    3.9660   28.2430 O.2     1  UNL1       -0.2686
     19 C         -27.4380    3.0910   25.6450 C.2     1  UNL1        0.1025
     20 N         -28.0750    2.0890   25.0030 N.2     1  UNL1       -0.2118
     21 C         -27.5430    0.8490   25.0790 C.2     1  UNL1        0.2344
     22 O         -28.1930   -0.2080   24.4770 O.2     1  UNL1       -0.4585
     23 C         -29.4600    0.0050   23.8660 C.3     1  UNL1        0.2423
     24 C         -30.0650   -1.3770   23.5730 C.3     1  UNL1        0.2292
     25 O         -30.7290   -1.8780   24.7210 O.3     1  UNL1       -0.2162
     26 C         -26.3540    0.5760   25.7770 C.3     1  UNL1        0.2442
     27 F         -25.8600   -0.6810   25.7950 F       1  UNL1       -0.2265
     28 C         -23.9494    2.2199   30.5754 C.3     1  UNL1        0.1676
     29 C         -22.9711    5.5746   33.1205 C.2     1  UNL1        0.0567
     30 C         -23.6093    1.6794   28.0168 C.2     1  UNL1        0.1378
     31 C         -25.2343    4.5503   32.6610 C.3     1  UNL1        0.0944
     32 C         -25.3762    7.5613   33.6168 C.3     1  UNL1        0.0214
     33 C         -24.6455    6.8921   32.5451 C.3     1  UNL1        0.0732
     34 C         -24.2255    1.6253   26.7162 C.2     1  UNL1        0.0380
     35 C         -22.5078    7.6659   31.9487 C.3     1  UNL1        0.0291
     36 C         -23.4338    1.7862   25.5193 C.2     1  UNL1        0.0980
     37 C         -23.9379    7.9943   31.6789 C.3     1  UNL1        0.0244
     38 N         -22.0593    1.7891   25.5766 N.2     1  UNL1       -0.2424
     39 C         -25.0692    2.2389   31.7087 C.3     1  UNL1        0.0466
     40 O         -24.3829    1.7252   29.2046 O.2     1  UNL1       -0.4793
     41 C         -22.1714    1.7642   28.0551 C.2     1  UNL1        0.0572
     42 N         -24.2676    5.6601   32.8034 N.pl3   1  UNL1       -0.3083
     43 C         -24.6134    3.5301   31.5625 C.3     1  UNL1        0.0633
     44 C         -22.0792    6.5623   32.6871 C.2     1  UNL1       -0.0103
     45 C         -21.4561    1.7893   26.8246 C.2     1  UNL1        0.1020
@<TRIPOS>BOND
     1     2     7    1
     2     2     1    1
     3     3     2    2
     4     4     3    1
     5     4     5    2
     6     5     6    1
     7     6     7    2
     8     8     1    1
     9     8     9    1
    10     8    12    1
    11     9    10    1
    12    10    11    1
    13    12    11    1
    14    13    34    1
    15    14    13    1
    16    14    15    1
    17    15    18    2
    18    16    17    1
    19    16    15    1
    20    19    14    2
    21    20    21    2
    22    20    19    1
    23    21    26    1
    24    22    21    1
    25    23    22    1
    26    24    23    1
    27    24    25    1
    28    26    27    1
    29    26    13    1
    30    28    40    1
    31    28    43    1
    32    28    39    1
    33    30    41    1
    34    30    40    1
    35    31    42    1
    36    33    42    1
    37    33    32    1
    38    34    30    2
    39    35    44    1
    40    36    38    2
    41    36    34    1
    42    37    35    1
    43    37    33    1
    44    38    45    1
    45    39     9    1
    46    42    29    1
    47    43    39    1
    48    43    31    1
    49    44    29    2
    50    45    41    2
