@<TRIPOS>MOLECULE
outputs/IAG933/test6/raw/output_7610_IAG933_linker_design_.xyz
 42 45 0 0 0
SMALL
GASTEIGER

@<TRIPOS>ATOM
      1 C         -24.8550   -1.0120   30.1430 C.3     1  UNL1        0.1477
      2 C         -24.9730   -2.5050   29.7880 C.2     1  UNL1        0.0017
      3 C         -23.9060   -3.1730   29.1460 C.2     1  UNL1       -0.0023
      4 C         -23.9890   -4.5490   28.8530 C.2     1  UNL1       -0.0003
      5 C         -25.1370   -5.2800   29.2050 C.2     1  UNL1       -0.0000
      6 C         -26.2320   -4.6110   29.7840 C.2     1  UNL1       -0.0003
      7 C         -26.1550   -3.2320   30.0650 C.2     1  UNL1       -0.0023
      8 C         -25.3870   -0.6790   31.5710 C.3     1  UNL1        0.0998
      9 C         -25.1890    0.7730   32.0280 C.3     1  UNL1        0.0212
     10 C         -25.3360    0.6840   33.5440 C.3     1  UNL1        0.0203
     11 C         -24.8290   -0.7150   33.9050 C.3     1  UNL1        0.0888
     12 N         -24.7580   -1.4810   32.6460 N.3     1  UNL1       -0.2171
     13 C         -25.6880    1.6140   26.4610 C.2     1  UNL1        0.0397
     14 C         -26.2500    2.9200   26.3950 C.2     1  UNL1        0.0766
     15 C         -25.6420    4.0930   27.1230 C.2     1  UNL1        0.2664
     16 N         -25.6140    5.2520   26.4490 N.am    1  UNL1       -0.1997
     17 C         -25.0260    6.4790   26.9630 C.3     1  UNL1        0.1388
     18 O         -25.1430    3.9660   28.2430 O.2     1  UNL1       -0.2683
     19 C         -27.4380    3.0910   25.6450 C.2     1  UNL1        0.1067
     20 N         -28.0750    2.0890   25.0030 N.2     1  UNL1       -0.2081
     21 C         -27.5430    0.8490   25.0790 C.2     1  UNL1        0.2533
     22 O         -28.1930   -0.2080   24.4770 O.2     1  UNL1       -0.4558
     23 C         -29.4600    0.0050   23.8660 C.3     1  UNL1        0.2426
     24 C         -30.0650   -1.3770   23.5730 C.3     1  UNL1        0.2292
     25 O         -30.7290   -1.8780   24.7210 O.3     1  UNL1       -0.2162
     26 C         -26.3540    0.5760   25.7770 C.2     1  UNL1        0.1931
     27 F         -25.8600   -0.6810   25.7950 F       1  UNL1       -0.1992
     28 F         -21.3544    2.0483   25.3473 F       1  UNL1       -0.2041
     29 C         -22.6994    0.5966   28.5443 C.2     1  UNL1        0.1599
     30 N         -27.5704   -1.2763   28.6989 N.am    1  UNL1       -0.1311
     31 N         -25.0463    0.0115   29.0560 N.3     1  UNL1       -0.2314
     32 O         -29.3808   -2.1825   29.7076 O.co2   1  UNL1       -0.2206
     33 O         -29.5976   -1.0432   27.7608 O.co2   1  UNL1       -0.2206
     34 C         -23.4570    1.5836   26.0654 C.2     1  UNL1        0.0314
     35 C         -22.1304    1.5610   26.3551 C.2     1  UNL1        0.1425
     36 C         -24.3573    1.2270   27.0407 C.2     1  UNL1        0.0247
     37 O         -26.1932    0.5977   29.1196 O.3     1  UNL1       -0.2325
     38 F         -22.3475    0.0642   29.7318 F       1  UNL1       -0.2025
     39 C         -27.3982    0.1624   28.8131 C.3     1  UNL1        0.2923
     40 C         -21.7140    1.0683   27.6435 C.2     1  UNL1        0.0608
     41 C         -28.9093   -1.5414   28.7116 C.2     1  UNL1        0.4652
     42 C         -24.0942    0.6140   28.2481 C.2     1  UNL1        0.1100
@<TRIPOS>BOND
     1     1    31    1
     2     2     7    1
     3     2     1    1
     4     3     2    2
     5     4     3    1
     6     4     5    2
     7     5     6    1
     8     6     7    2
     9     8     1    1
    10     8     9    1
    11     8    12    1
    12     9    10    1
    13    10    11    1
    14    12    11    1
    15    13    36    1
    16    14    13    1
    17    14    15    1
    18    15    18    2
    19    16    17    1
    20    16    15    1
    21    19    14    2
    22    20    21    2
    23    20    19    1
    24    21    26    1
    25    22    21    1
    26    23    22    1
    27    24    23    1
    28    24    25    1
    29    26    27    1
    30    26    13    2
    31    28    35    1
    32    29    38    1
    33    30    41    1
    34    30    39    1
    35    31    37    1
    36    33    41   ar
    37    34    35    2
    38    34    36    1
    39    35    40    1
    40    36    42    2
    41    39    37    1
    42    40    29    2
    43    41    32   ar
    44    42    29    1
    45    42    31    1
