@<TRIPOS>MOLECULE
outputs/IAG933/test6/raw/output_7616_IAG933_linker_design_.xyz
 46 50 0 0 0
SMALL
GASTEIGER

@<TRIPOS>ATOM
      1 C         -24.8550   -1.0120   30.1430 C.3     1  UNL1        0.2234
      2 C         -24.9730   -2.5050   29.7880 C.2     1  UNL1        0.0234
      3 C         -23.9060   -3.1730   29.1460 C.2     1  UNL1       -0.0003
      4 C         -23.9890   -4.5490   28.8530 C.2     1  UNL1       -0.0002
      5 C         -25.1370   -5.2800   29.2050 C.2     1  UNL1       -0.0000
      6 C         -26.2320   -4.6110   29.7840 C.2     1  UNL1       -0.0002
      7 C         -26.1550   -3.2320   30.0650 C.2     1  UNL1       -0.0003
      8 C         -25.3870   -0.6790   31.5710 C.3     1  UNL1        0.1219
      9 C         -25.1890    0.7730   32.0280 C.3     1  UNL1        0.0234
     10 C         -25.3360    0.6840   33.5440 C.3     1  UNL1        0.0204
     11 C         -24.8290   -0.7150   33.9050 C.3     1  UNL1        0.0889
     12 N         -24.7580   -1.4810   32.6460 N.3     1  UNL1       -0.2150
     13 C         -25.6880    1.6140   26.4610 C.2     1  UNL1        0.0460
     14 C         -26.2500    2.9200   26.3950 C.2     1  UNL1        0.0766
     15 C         -25.6420    4.0930   27.1230 C.2     1  UNL1        0.2664
     16 N         -25.6140    5.2520   26.4490 N.am    1  UNL1       -0.1997
     17 C         -25.0260    6.4790   26.9630 C.3     1  UNL1        0.1388
     18 O         -25.1430    3.9660   28.2430 O.2     1  UNL1       -0.2683
     19 C         -27.4380    3.0910   25.6450 C.2     1  UNL1        0.1067
     20 N         -28.0750    2.0890   25.0030 N.2     1  UNL1       -0.2081
     21 C         -27.5430    0.8490   25.0790 C.2     1  UNL1        0.2533
     22 O         -28.1930   -0.2080   24.4770 O.2     1  UNL1       -0.4558
     23 C         -29.4600    0.0050   23.8660 C.3     1  UNL1        0.2426
     24 C         -30.0650   -1.3770   23.5730 C.3     1  UNL1        0.2292
     25 O         -30.7290   -1.8780   24.7210 O.3     1  UNL1       -0.2162
     26 C         -26.3540    0.5760   25.7770 C.2     1  UNL1        0.1931
     27 F         -25.8600   -0.6810   25.7950 F       1  UNL1       -0.1992
     28 N         -25.2744   -0.0721   29.0203 N.pl3   1  UNL1       -0.0810
     29 O         -21.9214    1.7718   27.1741 O.2     1  UNL1       -0.4204
     30 C         -32.6303    1.5601   28.0418 C.3     1  UNL1        0.0025
     31 C         -29.0285    0.8332   28.4745 C.3     1  UNL1        0.0844
     32 CL        -22.8536    2.1380   24.8269 Cl      1  UNL1       -0.0630
     33 C         -31.1225    1.1131   28.1030 C.3     1  UNL1        0.0277
     34 O         -31.5038   -1.2864   27.9539 O.3     1  UNL1       -0.3536
     35 C         -24.3004    1.2943   27.0375 C.2     1  UNL1        0.1202
     36 N         -26.4700    0.7420   28.6888 N.am    1  UNL1       -0.0188
     37 C         -29.9917    1.7835   28.5889 C.3     1  UNL1        0.0117
     38 C         -23.0337    1.7071   26.4314 C.3     1  UNL1        0.2794
     39 C         -27.7196    0.8549   29.3161 C.2     1  UNL1        0.2808
     40 C         -29.3802   -0.1971   27.7086 C.3     1  UNL1        0.0388
     41 N         -22.9438    0.5348   28.9466 N.2     1  UNL1        0.0073
     42 C         -21.8434    1.2147   28.3615 C.2     1  UNL1        0.4224
     43 C         -32.8197   -1.1814   28.5388 C.3     1  UNL1        0.1740
     44 O         -28.0516    1.0613   30.6414 O.2     1  UNL1       -0.2696
     45 C         -24.1926    0.6167   28.3527 C.2     1  UNL1        0.3507
     46 C         -30.6413   -0.1969   27.8718 C.3     1  UNL1        0.1158
@<TRIPOS>BOND
     1     1    28    1
     2     2     7    1
     3     2     1    1
     4     3     2    2
     5     4     3    1
     6     4     5    2
     7     5     6    1
     8     6     7    2
     9     8     1    1
    10     8     9    1
    11     8    12    1
    12     9    10    1
    13    10    11    1
    14    12    11    1
    15    13    35    1
    16    14    13    1
    17    14    15    1
    18    15    18    2
    19    16    17    1
    20    16    15    1
    21    19    14    2
    22    20    21    2
    23    20    19    1
    24    21    26    1
    25    22    21    1
    26    23    22    1
    27    24    23    1
    28    24    25    1
    29    26    27    1
    30    26    13    2
    31    29    42    1
    32    31    37    1
    33    31    39    1
    34    33    30    1
    35    33    37    1
    36    34    43    1
    37    35    45    2
    38    36    28    1
    39    36    39    1
    40    38    32    1
    41    38    35    1
    42    38    29    1
    43    39    44    2
    44    40    46    1
    45    40    31    1
    46    42    41    2
    47    45    41    1
    48    45    28    1
    49    46    34    1
    50    46    33    1
