@<TRIPOS>MOLECULE
outputs/IAG933/test6/raw/output_7619_IAG933_linker_design_.xyz
 41 44 0 0 0
SMALL
GASTEIGER

@<TRIPOS>ATOM
      1 C         -24.8550   -1.0120   30.1430 C.3     1  UNL1        0.0512
      2 C         -24.9730   -2.5050   29.7880 C.2     1  UNL1       -0.0204
      3 C         -23.9060   -3.1730   29.1460 C.2     1  UNL1       -0.0042
      4 C         -23.9890   -4.5490   28.8530 C.2     1  UNL1       -0.0003
      5 C         -25.1370   -5.2800   29.2050 C.2     1  UNL1       -0.0000
      6 C         -26.2320   -4.6110   29.7840 C.2     1  UNL1       -0.0003
      7 C         -26.1550   -3.2320   30.0650 C.2     1  UNL1       -0.0042
      8 C         -25.3870   -0.6790   31.5710 C.3     1  UNL1        0.0776
      9 C         -25.1890    0.7730   32.0280 C.3     1  UNL1        0.0192
     10 C         -25.3360    0.6840   33.5440 C.3     1  UNL1        0.0202
     11 C         -24.8290   -0.7150   33.9050 C.3     1  UNL1        0.0887
     12 N         -24.7580   -1.4810   32.6460 N.3     1  UNL1       -0.2191
     13 C         -25.6880    1.6140   26.4610 C.2     1  UNL1        0.0401
     14 C         -26.2500    2.9200   26.3950 C.2     1  UNL1        0.0766
     15 C         -25.6420    4.0930   27.1230 C.2     1  UNL1        0.2664
     16 N         -25.6140    5.2520   26.4490 N.am    1  UNL1       -0.1997
     17 C         -25.0260    6.4790   26.9630 C.3     1  UNL1        0.1388
     18 O         -25.1430    3.9660   28.2430 O.2     1  UNL1       -0.2683
     19 C         -27.4380    3.0910   25.6450 C.2     1  UNL1        0.1067
     20 N         -28.0750    2.0890   25.0030 N.2     1  UNL1       -0.2081
     21 C         -27.5430    0.8490   25.0790 C.2     1  UNL1        0.2533
     22 O         -28.1930   -0.2080   24.4770 O.2     1  UNL1       -0.4558
     23 C         -29.4600    0.0050   23.8660 C.3     1  UNL1        0.2426
     24 C         -30.0650   -1.3770   23.5730 C.3     1  UNL1        0.2292
     25 O         -30.7290   -1.8780   24.7210 O.3     1  UNL1       -0.2162
     26 C         -26.3540    0.5760   25.7770 C.2     1  UNL1        0.1931
     27 F         -25.8600   -0.6810   25.7950 F       1  UNL1       -0.1992
     28 F         -20.4431    0.8794   27.9732 F       1  UNL1       -0.1993
     29 C         -26.5325    0.6384   29.3179 C.2     1  UNL1        0.2648
     30 F         -21.1336    1.8655   25.7537 F       1  UNL1       -0.1993
     31 C         -25.3051    0.0110   29.1145 C.3     1  UNL1        0.1097
     32 C         -23.3080    1.9655   26.3652 C.ar    1  UNL1        0.1695
     33 C         -22.7799    0.5485   28.6736 C.ar    1  UNL1        0.1662
     34 F         -23.5121    2.8075   25.2886 F       1  UNL1       -0.2017
     35 C         -21.7647    1.0181   27.8287 C.ar    1  UNL1        0.1965
     36 C         -22.1051    1.6394   26.6557 C.ar    1  UNL1        0.1968
     37 N         -27.6597   -0.2437   29.1968 N.am    1  UNL1       -0.0875
     38 F         -22.4690    0.0468   29.8633 F       1  UNL1       -0.2020
     39 C         -24.1604    0.6062   28.2796 C.ar    1  UNL1        0.0187
     40 O         -26.6826    1.7794   29.6437 O.2     1  UNL1       -0.2713
     41 C         -24.3830    1.3436   27.0301 C.ar    1  UNL1        0.0310
@<TRIPOS>BOND
     1     1    31    1
     2     2     7    1
     3     2     1    1
     4     3     2    2
     5     4     3    1
     6     4     5    2
     7     5     6    1
     8     6     7    2
     9     8     1    1
    10     8     9    1
    11     8    12    1
    12     9    10    1
    13    10    11    1
    14    12    11    1
    15    13    41    1
    16    14    13    1
    17    14    15    1
    18    15    18    2
    19    16    17    1
    20    16    15    1
    21    19    14    2
    22    20    21    2
    23    20    19    1
    24    21    26    1
    25    22    21    1
    26    23    22    1
    27    24    23    1
    28    24    25    1
    29    26    27    1
    30    26    13    2
    31    29    40    2
    32    30    36    1
    33    31    29    1
    34    32    36   ar
    35    32    41   ar
    36    33    38    1
    37    34    32    1
    38    35    28    1
    39    35    33   ar
    40    36    35   ar
    41    37    29    1
    42    39    33   ar
    43    39    31    1
    44    41    39   ar
