@<TRIPOS>MOLECULE
outputs/IAG933/test6/raw/output_7620_IAG933_linker_design_.xyz
 42 45 0 0 0
SMALL
GASTEIGER

@<TRIPOS>ATOM
      1 C         -24.8550   -1.0120   30.1430 C.3     1  UNL1        0.1141
      2 C         -24.9730   -2.5050   29.7880 C.2     1  UNL1       -0.0029
      3 C         -23.9060   -3.1730   29.1460 C.2     1  UNL1       -0.0026
      4 C         -23.9890   -4.5490   28.8530 C.2     1  UNL1       -0.0003
      5 C         -25.1370   -5.2800   29.2050 C.2     1  UNL1       -0.0000
      6 C         -26.2320   -4.6110   29.7840 C.2     1  UNL1       -0.0003
      7 C         -26.1550   -3.2320   30.0650 C.2     1  UNL1       -0.0026
      8 C         -25.3870   -0.6790   31.5710 C.3     1  UNL1        0.0951
      9 C         -25.1890    0.7730   32.0280 C.3     1  UNL1        0.0209
     10 C         -25.3360    0.6840   33.5440 C.3     1  UNL1        0.0203
     11 C         -24.8290   -0.7150   33.9050 C.3     1  UNL1        0.0888
     12 N         -24.7580   -1.4810   32.6460 N.3     1  UNL1       -0.2174
     13 C         -25.6880    1.6140   26.4610 C.2     1  UNL1        0.0593
     14 C         -26.2500    2.9200   26.3950 C.2     1  UNL1        0.0803
     15 C         -25.6420    4.0930   27.1230 C.2     1  UNL1        0.2667
     16 N         -25.6140    5.2520   26.4490 N.am    1  UNL1       -0.1997
     17 C         -25.0260    6.4790   26.9630 C.3     1  UNL1        0.1388
     18 O         -25.1430    3.9660   28.2430 O.2     1  UNL1       -0.2683
     19 C         -27.4380    3.0910   25.6450 C.2     1  UNL1        0.1067
     20 N         -28.0750    2.0890   25.0030 N.2     1  UNL1       -0.2112
     21 C         -27.5430    0.8490   25.0790 C.2     1  UNL1        0.2389
     22 O         -28.1930   -0.2080   24.4770 O.2     1  UNL1       -0.4583
     23 C         -29.4600    0.0050   23.8660 C.3     1  UNL1        0.2423
     24 C         -30.0650   -1.3770   23.5730 C.3     1  UNL1        0.2292
     25 O         -30.7290   -1.8780   24.7210 O.3     1  UNL1       -0.2162
     26 C         -26.3540    0.5760   25.7770 C.3     1  UNL1        0.2653
     27 F         -25.8600   -0.6810   25.7950 F       1  UNL1       -0.2217
     28 N         -24.9590   -0.0190   29.1050 N.pl3   1  UNL1       -0.2703
     29 C         -21.6655   -0.0586   29.4439 C.2     1  UNL1        0.0427
     30 C         -25.8803   -0.3754   28.3590 C.3     1  UNL1        0.2789
     31 C         -22.8981    0.3675   29.2332 C.1     1  UNL1       -0.0859
     32 F         -21.1304    2.4876   25.5787 F       1  UNL1       -0.1594
     33 O         -27.1675   -0.5869   28.5489 O.3     1  UNL1       -0.1959
     34 C         -23.8358    0.6035   28.6486 C.2     1  UNL1        0.0926
     35 C         -22.1494    1.6411   27.3466 C.2     1  UNL1        0.0758
     36 F         -22.9338    2.5233   24.1160 F       1  UNL1        0.0161
     37 C         -24.5379    1.4147   27.2377 C.1     1  UNL1       -0.1007
     38 C         -22.1469    2.2322   26.1968 C.2     1  UNL1        0.3272
     39 C         -20.6257    0.4235   28.6574 C.2     1  UNL1        0.0085
     40 O         -23.2226    2.5283   25.4197 O.2     1  UNL1       -0.2616
     41 C         -20.8907    1.3769   27.6834 C.2     1  UNL1        0.0068
     42 C         -23.4138    1.2469   27.7992 C.2     1  UNL1        0.0601
@<TRIPOS>BOND
     1     1    28    1
     2     2     7    1
     3     2     1    1
     4     3     2    2
     5     4     3    1
     6     4     5    2
     7     5     6    1
     8     6     7    2
     9     8     1    1
    10     8     9    1
    11     8    12    1
    12     9    10    1
    13    10    11    1
    14    12    11    1
    15    13    37    2
    16    14    13    1
    17    14    15    1
    18    15    18    2
    19    16    17    1
    20    16    15    1
    21    19    14    2
    22    20    21    2
    23    20    19    1
    24    21    26    1
    25    22    21    1
    26    23    22    1
    27    24    23    1
    28    24    25    1
    29    26    27    1
    30    26    13    1
    31    30    33    1
    32    30    28    1
    33    31    29    2
    34    32    38    1
    35    34    28    1
    36    34    31    2
    37    35    41    1
    38    35    42    1
    39    36    40    1
    40    37    42    2
    41    38    35    2
    42    39    29    1
    43    40    38    1
    44    41    39    2
    45    42    34    1
