@<TRIPOS>MOLECULE
outputs/IAG933/test6/raw/output_7626_IAG933_linker_design_.xyz
 43 47 0 0 0
SMALL
GASTEIGER

@<TRIPOS>ATOM
      1 C         -24.8550   -1.0120   30.1430 C.3     1  UNL1        0.0980
      2 C         -24.9730   -2.5050   29.7880 C.2     1  UNL1       -0.0064
      3 C         -23.9060   -3.1730   29.1460 C.2     1  UNL1       -0.0029
      4 C         -23.9890   -4.5490   28.8530 C.2     1  UNL1       -0.0003
      5 C         -25.1370   -5.2800   29.2050 C.2     1  UNL1       -0.0000
      6 C         -26.2320   -4.6110   29.7840 C.2     1  UNL1       -0.0003
      7 C         -26.1550   -3.2320   30.0650 C.2     1  UNL1       -0.0029
      8 C         -25.3870   -0.6790   31.5710 C.3     1  UNL1        0.0916
      9 C         -25.1890    0.7730   32.0280 C.3     1  UNL1        0.0206
     10 C         -25.3360    0.6840   33.5440 C.3     1  UNL1        0.0203
     11 C         -24.8290   -0.7150   33.9050 C.3     1  UNL1        0.0888
     12 N         -24.7580   -1.4810   32.6460 N.3     1  UNL1       -0.2178
     13 C         -25.6880    1.6140   26.4610 C.3     1  UNL1        0.1444
     14 C         -26.2500    2.9200   26.3950 C.2     1  UNL1        0.0731
     15 C         -25.6420    4.0930   27.1230 C.2     1  UNL1        0.2640
     16 N         -25.6140    5.2520   26.4490 N.am    1  UNL1       -0.1999
     17 C         -25.0260    6.4790   26.9630 C.3     1  UNL1        0.1388
     18 O         -25.1430    3.9660   28.2430 O.2     1  UNL1       -0.2686
     19 C         -27.4380    3.0910   25.6450 C.2     1  UNL1        0.1038
     20 N         -28.0750    2.0890   25.0030 N.2     1  UNL1       -0.2118
     21 C         -27.5430    0.8490   25.0790 C.2     1  UNL1        0.2358
     22 O         -28.1930   -0.2080   24.4770 O.2     1  UNL1       -0.4585
     23 C         -29.4600    0.0050   23.8660 C.3     1  UNL1        0.2423
     24 C         -30.0650   -1.3770   23.5730 C.3     1  UNL1        0.2292
     25 O         -30.7290   -1.8780   24.7210 O.3     1  UNL1       -0.2162
     26 C         -26.3540    0.5760   25.7770 C.3     1  UNL1        0.2581
     27 F         -25.8600   -0.6810   25.7950 F       1  UNL1       -0.2251
     28 C         -28.8152    4.4351   29.6604 C.3     1  UNL1        0.0004
     29 C         -20.9807    1.2352   27.7621 C.3     1  UNL1        0.0287
     30 N         -24.7387    1.3158   27.4558 N.pl3   1  UNL1       -0.2890
     31 C         -28.4734    3.0708   29.0700 C.3     1  UNL1        0.0074
     32 C         -26.6043    1.2160   29.2830 C.2     1  UNL1        0.1838
     33 C         -22.8447    0.1499   29.1455 C.3     1  UNL1        0.0976
     34 C         -27.6663    4.8068   30.5565 C.3     1  UNL1        0.0004
     35 N         -24.2967    0.0543   29.3515 N.3     1  UNL1       -0.2448
     36 C         -28.0031    5.7936   31.7065 C.3     1  UNL1        0.0000
     37 C         -26.8534    3.5570   30.8955 C.3     1  UNL1        0.0074
     38 O         -27.4729    0.4039   29.3607 O.2     1  UNL1       -0.2928
     39 C         -25.2102    0.8438   28.7368 C.3     1  UNL1        0.1940
     40 C         -27.0811    2.6210   29.6607 C.3     1  UNL1        0.0608
     41 C         -23.4437    1.4706   27.1045 C.2     1  UNL1        0.0201
     42 C         -22.4330    0.9650   28.0504 C.2     1  UNL1       -0.0187
     43 C         -22.9804    2.1522   25.8343 C.3     1  UNL1        0.0465
@<TRIPOS>BOND
     1     1     2    1
     2     2     7    1
     3     3     2    2
     4     4     3    1
     5     4     5    2
     6     5     6    1
     7     6     7    2
     8     8     1    1
     9     8     9    1
    10     8    12    1
    11     9    10    1
    12    10    11    1
    13    12    11    1
    14    13    30    1
    15    14    13    1
    16    14    15    1
    17    15    18    2
    18    16    17    1
    19    16    15    1
    20    19    14    2
    21    20    21    2
    22    20    19    1
    23    21    26    1
    24    22    21    1
    25    23    22    1
    26    24    23    1
    27    24    25    1
    28    26    27    1
    29    26    13    1
    30    28    34    1
    31    29    42    1
    32    30    39    1
    33    31    28    1
    34    31    40    1
    35    32    38    2
    36    33    35    1
    37    34    37    1
    38    34    36    1
    39    35     1    1
    40    39    32    1
    41    39    35    1
    42    40    32    1
    43    40    37    1
    44    41    30    1
    45    41    42    2
    46    42    33    1
    47    43    41    1
