@<TRIPOS>MOLECULE
outputs/IAG933/test6/raw/output_7627_IAG933_linker_design_.xyz
 42 45 0 0 0
SMALL
GASTEIGER

@<TRIPOS>ATOM
      1 C         -24.8550   -1.0120   30.1430 C.3     1  UNL1        0.0626
      2 C         -24.9730   -2.5050   29.7880 C.2     1  UNL1       -0.0191
      3 C         -23.9060   -3.1730   29.1460 C.2     1  UNL1       -0.0042
      4 C         -23.9890   -4.5490   28.8530 C.2     1  UNL1       -0.0003
      5 C         -25.1370   -5.2800   29.2050 C.2     1  UNL1       -0.0000
      6 C         -26.2320   -4.6110   29.7840 C.2     1  UNL1       -0.0003
      7 C         -26.1550   -3.2320   30.0650 C.2     1  UNL1       -0.0042
      8 C         -25.3870   -0.6790   31.5710 C.3     1  UNL1        0.0788
      9 C         -25.1890    0.7730   32.0280 C.3     1  UNL1        0.0193
     10 C         -25.3360    0.6840   33.5440 C.3     1  UNL1        0.0202
     11 C         -24.8290   -0.7150   33.9050 C.3     1  UNL1        0.0887
     12 N         -24.7580   -1.4810   32.6460 N.3     1  UNL1       -0.2191
     13 C         -25.6880    1.6140   26.4610 C.2     1  UNL1        0.1062
     14 C         -26.2500    2.9200   26.3950 C.2     1  UNL1        0.0908
     15 C         -25.6420    4.0930   27.1230 C.2     1  UNL1        0.2676
     16 N         -25.6140    5.2520   26.4490 N.am    1  UNL1       -0.1997
     17 C         -25.0260    6.4790   26.9630 C.3     1  UNL1        0.1388
     18 O         -25.1430    3.9660   28.2430 O.2     1  UNL1       -0.2683
     19 C         -27.4380    3.0910   25.6450 C.2     1  UNL1        0.1076
     20 N         -28.0750    2.0890   25.0030 N.2     1  UNL1       -0.2112
     21 C         -27.5430    0.8490   25.0790 C.2     1  UNL1        0.2399
     22 O         -28.1930   -0.2080   24.4770 O.2     1  UNL1       -0.4583
     23 C         -29.4600    0.0050   23.8660 C.3     1  UNL1        0.2423
     24 C         -30.0650   -1.3770   23.5730 C.3     1  UNL1        0.2292
     25 O         -30.7290   -1.8780   24.7210 O.3     1  UNL1       -0.2162
     26 C         -26.3540    0.5760   25.7770 C.3     1  UNL1        0.2756
     27 F         -25.8600   -0.6810   25.7950 F       1  UNL1       -0.2206
     28 C         -22.6993    1.9828   26.6120 C.2     1  UNL1        0.0750
     29 CL        -23.0144    3.0108   25.2355 Cl      1  UNL1       -0.0807
     30 C         -23.6005    0.5834   28.4510 C.2     1  UNL1        0.0164
     31 O         -27.6836    1.8379   29.5125 O.3     1  UNL1       -0.4335
     32 C         -23.6658    1.2924   27.3654 C.2     1  UNL1        0.0892
     33 C         -21.4247    1.8388   27.0474 C.2     1  UNL1        0.0129
     34 C         -29.8256    1.5698   30.0921 C.3     1  UNL1        0.0513
     35 C         -22.2129    0.6254   28.8365 C.2     1  UNL1       -0.0011
     36 C         -28.8407    2.3457   29.2287 C.3     1  UNL1        0.2103
     37 N         -26.0680    0.2649   28.5537 N.am    1  UNL1       -0.1656
     38 O         -28.0843   -0.4172   28.8224 O.2     1  UNL1       -0.2246
     39 C         -24.8702   -0.0574   28.9752 C.3     1  UNL1        0.1276
     40 N         -24.6831    1.1818   26.8772 N.2     1  UNL1       -0.2457
     41 C         -21.2185    1.1925   28.2179 C.2     1  UNL1        0.0007
     42 C         -27.2912    0.4522   28.9478 C.2     1  UNL1        0.4214
@<TRIPOS>BOND
     1     1    39    1
     2     2     7    1
     3     2     1    1
     4     3     2    2
     5     4     3    1
     6     4     5    2
     7     5     6    1
     8     6     7    2
     9     8     1    1
    10     8     9    1
    11     8    12    1
    12     9    10    1
    13    10    11    1
    14    12    11    1
    15    13    40    2
    16    14    13    1
    17    14    15    1
    18    15    18    2
    19    16    17    1
    20    16    15    1
    21    19    14    2
    22    20    21    2
    23    20    19    1
    24    21    26    1
    25    22    21    1
    26    23    22    1
    27    24    23    1
    28    24    25    1
    29    26    27    1
    30    26    13    1
    31    28    33    2
    32    28    32    1
    33    29    28    1
    34    30    35    1
    35    30    39    1
    36    32    30    2
    37    33    41    1
    38    36    31    1
    39    36    34    1
    40    37    42    1
    41    38    42    2
    42    39    37    1
    43    40    32    1
    44    41    35    2
    45    42    31    1
