@<TRIPOS>MOLECULE
outputs/IAG933/test6/raw/output_7629_IAG933_linker_design_.xyz
 43 47 0 0 0
SMALL
GASTEIGER

@<TRIPOS>ATOM
      1 C         -24.8550   -1.0120   30.1430 C.3     1  UNL1        0.0586
      2 C         -24.9730   -2.5050   29.7880 C.2     1  UNL1       -0.0195
      3 C         -23.9060   -3.1730   29.1460 C.2     1  UNL1       -0.0042
      4 C         -23.9890   -4.5490   28.8530 C.2     1  UNL1       -0.0003
      5 C         -25.1370   -5.2800   29.2050 C.2     1  UNL1       -0.0000
      6 C         -26.2320   -4.6110   29.7840 C.2     1  UNL1       -0.0003
      7 C         -26.1550   -3.2320   30.0650 C.2     1  UNL1       -0.0042
      8 C         -25.3870   -0.6790   31.5710 C.3     1  UNL1        0.0785
      9 C         -25.1890    0.7730   32.0280 C.3     1  UNL1        0.0192
     10 C         -25.3360    0.6840   33.5440 C.3     1  UNL1        0.0202
     11 C         -24.8290   -0.7150   33.9050 C.3     1  UNL1        0.0887
     12 N         -24.7580   -1.4810   32.6460 N.3     1  UNL1       -0.2191
     13 C         -25.6880    1.6140   26.4610 C.2     1  UNL1        0.0378
     14 C         -26.2500    2.9200   26.3950 C.2     1  UNL1        0.0765
     15 C         -25.6420    4.0930   27.1230 C.2     1  UNL1        0.2664
     16 N         -25.6140    5.2520   26.4490 N.am    1  UNL1       -0.1997
     17 C         -25.0260    6.4790   26.9630 C.3     1  UNL1        0.1388
     18 O         -25.1430    3.9660   28.2430 O.2     1  UNL1       -0.2683
     19 C         -27.4380    3.0910   25.6450 C.2     1  UNL1        0.1067
     20 N         -28.0750    2.0890   25.0030 N.2     1  UNL1       -0.2081
     21 C         -27.5430    0.8490   25.0790 C.2     1  UNL1        0.2533
     22 O         -28.1930   -0.2080   24.4770 O.2     1  UNL1       -0.4558
     23 C         -29.4600    0.0050   23.8660 C.3     1  UNL1        0.2426
     24 C         -30.0650   -1.3770   23.5730 C.3     1  UNL1        0.2292
     25 O         -30.7290   -1.8780   24.7210 O.3     1  UNL1       -0.2162
     26 C         -26.3540    0.5760   25.7770 C.2     1  UNL1        0.1930
     27 F         -25.8600   -0.6810   25.7950 F       1  UNL1       -0.1992
     28 C         -21.7976    0.8960   28.0122 C.2     1  UNL1       -0.0003
     29 C         -30.7188    1.1956   30.0453 C.3     1  UNL1        0.0745
     30 N         -26.5850   -0.0626   28.9089 N.3     1  UNL1       -0.1885
     31 C         -29.5193    0.5188   30.6968 C.3     1  UNL1        0.0214
     32 N         -30.5682    1.6076   28.5913 N.3     1  UNL1       -0.2462
     33 C         -23.2652    1.9798   26.4832 C.2     1  UNL1       -0.0002
     34 C         -24.1512    0.4949   28.1699 C.2     1  UNL1       -0.0060
     35 C         -22.8401    0.2465   28.6211 C.2     1  UNL1       -0.0029
     36 C         -30.2074    0.4362   27.6515 C.3     1  UNL1        0.2211
     37 O         -28.7329    0.0001   27.6944 O.3     1  UNL1       -0.3228
     38 C         -27.9169   -0.1249   28.7312 C.3     1  UNL1        0.1912
     39 C         -28.4811   -0.3497   30.0467 C.3     1  UNL1        0.0496
     40 C         -24.3508    1.3286   27.0723 C.2     1  UNL1       -0.0001
     41 C         -31.7756    2.4648   28.3112 C.3     1  UNL1        0.0917
     42 C         -22.0094    1.7630   26.9760 C.2     1  UNL1       -0.0000
     43 C         -25.2528   -0.1216   29.0256 C.3     1  UNL1        0.1027
@<TRIPOS>BOND
     1     1    43    1
     2     2     7    1
     3     2     1    1
     4     3     2    2
     5     4     3    1
     6     4     5    2
     7     5     6    1
     8     6     7    2
     9     8     1    1
    10     8     9    1
    11     8    12    1
    12     9    10    1
    13    10    11    1
    14    12    11    1
    15    13    40    1
    16    14    13    1
    17    14    15    1
    18    15    18    2
    19    16    17    1
    20    16    15    1
    21    19    14    2
    22    20    21    2
    23    20    19    1
    24    21    26    1
    25    22    21    1
    26    23    22    1
    27    24    23    1
    28    24    25    1
    29    26    27    1
    30    26    13    2
    31    28    35    1
    32    29    31    1
    33    32    29    1
    34    33    42    1
    35    33    40    2
    36    34    35    2
    37    34    43    1
    38    36    37    1
    39    36    32    1
    40    37    38    1
    41    38    30    1
    42    38    39    1
    43    39    31    1
    44    40    34    1
    45    41    32    1
    46    42    28    2
    47    43    30    1
