@<TRIPOS>MOLECULE
No_763-gen_results/8p0m/2024-11-27-11-27-31/
 35 37 0 0 0
SMALL
GASTEIGER

@<TRIPOS>ATOM
      1 C         -28.0162   -0.8135   28.8779 C.ar    1  UNL1        0.0153
      2 C         -28.4690   -0.7850   29.8287 C.ar    1  UNL1        0.0578
      3 C         -27.0871    0.2903   28.6377 C.ar    1  UNL1        0.0725
      4 C         -26.8317    1.2487   29.5869 C.ar    1  UNL1        0.0103
      5 C         -28.3914    0.0801   31.0065 C.ar    1  UNL1        0.0178
      6 C         -27.4940    1.1521   30.7841 C.ar    1  UNL1        0.0764
      7 C         -26.3109    0.3918   27.3640 C.3     1  UNL1        0.4186
      8 F         -25.7791    1.5134   27.3754 F       1  UNL1       -0.1659
      9 F         -25.3764   -0.5538   27.3026 F       1  UNL1       -0.1659
     10 F         -27.1173    0.2765   26.2866 F       1  UNL1       -0.1659
     11 CL        -29.5771   -2.1981   30.2641 Cl      1  UNL1       -0.0822
     12 C         -27.2975    2.1936   31.8577 C.2     1  UNL1        0.3415
     13 O         -26.4657    2.7068   32.0755 O.2     1  UNL1       -0.2449
     14 O         -28.2516    2.1731   32.8053 O.3     1  UNL1       -0.4404
     15 C         -28.2434    3.0349   33.7668 C.3     1  UNL1        0.2354
     16 C         -29.2536    4.0230   33.6556 C.ar    1  UNL1        0.0213
     17 C         -29.2549    4.9620   34.4145 C.ar    1  UNL1       -0.0006
     18 C         -30.2223    6.1239   34.2780 C.ar    1  UNL1        0.0016
     19 C         -31.1599    5.9595   33.2438 C.ar    1  UNL1        0.0267
     20 C         -31.0964    4.8401   32.4308 C.ar    1  UNL1        0.0016
     21 C         -30.1183    3.8734   32.5965 C.ar    1  UNL1       -0.0006
     22 C         -32.1950    6.9717   33.0264 C.2     1  UNL1        0.1834
     23 N         -33.0439    6.9712   32.4152 N.2     1  UNL1       -0.1402
     24 P         -31.8612    8.5074   33.9741 P.3     1  UNL1        0.3967
     25 O         -30.8906    8.5575   34.8235 O.3     1  UNL1       -0.1359
     26 O         -31.6533    9.5582   32.8272 O.3     1  UNL1       -0.1359
     27 O         -33.2575    8.7861   34.5375 O.2     1  UNL1       -0.4227
     28 C         -34.3781    8.3058   34.4504 C.2     1  UNL1        0.1802
     29 C         -35.4525    9.1463   34.5461 C.2     1  UNL1        0.0405
     30 C         -35.3121   10.3020   35.1676 C.ar    1  UNL1        0.0031
     31 C         -36.4347   11.2956   35.2951 C.ar    1  UNL1        0.0001
     32 C         -36.2298   12.5059   35.9805 C.ar    1  UNL1        0.0000
     33 C         -34.9559   12.8153   36.4977 C.ar    1  UNL1        0.0000
     34 C         -33.9185   11.9007   36.3561 C.ar    1  UNL1        0.0000
     35 C         -34.1257   10.7176   35.7108 C.ar    1  UNL1        0.0001
@<TRIPOS>BOND
     1     3     7    1
     2     7     8    1
     3     7     9    1
     4     7    10    1
     5     2    11    1
     6     6    12    1
     7    12    13    2
     8    12    14    1
     9    14    15    1
    10    15    16    1
    11    19    22    1
    12    22    23    2
    13    22    24    1
    14    24    25    1
    15    24    26    1
    16    24    27    1
    17    27    28    1
    18    28    29    2
    19    29    30    1
    20    30    31   ar
    21    31    32   ar
    22    32    33   ar
    23    33    34   ar
    24    34    35   ar
    25    35    30   ar
    26     1     2   ar
    27     2     5   ar
    28     5     6   ar
    29     6     4   ar
    30     4     3   ar
    31     3     1   ar
    32    16    17   ar
    33    17    18   ar
    34    18    19   ar
    35    19    20   ar
    36    20    21   ar
    37    21    16   ar
