@<TRIPOS>MOLECULE
outputs/IAG933/test6/raw/output_7637_IAG933_linker_design_.xyz
 39 42 0 0 0
SMALL
GASTEIGER

@<TRIPOS>ATOM
      1 C         -24.8550   -1.0120   30.1430 C.3     1  UNL1        0.0998
      2 C         -24.9730   -2.5050   29.7880 C.2     1  UNL1       -0.0139
      3 C         -23.9060   -3.1730   29.1460 C.2     1  UNL1       -0.0038
      4 C         -23.9890   -4.5490   28.8530 C.2     1  UNL1       -0.0003
      5 C         -25.1370   -5.2800   29.2050 C.2     1  UNL1       -0.0000
      6 C         -26.2320   -4.6110   29.7840 C.2     1  UNL1       -0.0003
      7 C         -26.1550   -3.2320   30.0650 C.2     1  UNL1       -0.0038
      8 C         -25.3870   -0.6790   31.5710 C.3     1  UNL1        0.0841
      9 C         -25.1890    0.7730   32.0280 C.3     1  UNL1        0.0196
     10 C         -25.3360    0.6840   33.5440 C.3     1  UNL1        0.0203
     11 C         -24.8290   -0.7150   33.9050 C.3     1  UNL1        0.0887
     12 N         -24.7580   -1.4810   32.6460 N.3     1  UNL1       -0.2187
     13 C         -25.6880    1.6140   26.4610 C.2     1  UNL1        0.0237
     14 C         -26.2500    2.9200   26.3950 C.2     1  UNL1        0.0730
     15 C         -25.6420    4.0930   27.1230 C.2     1  UNL1        0.2661
     16 N         -25.6140    5.2520   26.4490 N.am    1  UNL1       -0.1997
     17 C         -25.0260    6.4790   26.9630 C.3     1  UNL1        0.1388
     18 O         -25.1430    3.9660   28.2430 O.2     1  UNL1       -0.2683
     19 C         -27.4380    3.0910   25.6450 C.2     1  UNL1        0.1064
     20 N         -28.0750    2.0890   25.0030 N.2     1  UNL1       -0.2081
     21 C         -27.5430    0.8490   25.0790 C.2     1  UNL1        0.2530
     22 O         -28.1930   -0.2080   24.4770 O.2     1  UNL1       -0.4558
     23 C         -29.4600    0.0050   23.8660 C.3     1  UNL1        0.2426
     24 C         -30.0650   -1.3770   23.5730 C.3     1  UNL1        0.2292
     25 O         -30.7290   -1.8780   24.7210 O.3     1  UNL1       -0.2162
     26 C         -26.3540    0.5760   25.7770 C.2     1  UNL1        0.1895
     27 F         -25.8600   -0.6810   25.7950 F       1  UNL1       -0.1996
     28 O         -22.1850    1.6974   26.9100 O.3     1  UNL1       -0.4413
     29 C         -24.2730    0.4827   28.2745 C.2     1  UNL1        0.0437
     30 C         -24.4555    1.2315   27.1146 C.3     1  UNL1        0.0975
     31 O         -26.4524   -0.2491   28.6982 O.2     1  UNL1       -0.2912
     32 O         -20.7650    1.2294   28.4471 O.2     1  UNL1       -0.2434
     33 C         -25.2639   -0.2252   28.9513 C.2     1  UNL1        0.1760
     34 C         -22.9537    0.5042   28.6874 C.2     1  UNL1        0.1636
     35 N         -22.4772   -0.2619   29.8100 N.pl3   1  UNL1       -0.1215
     36 N         -22.2974    2.6753   24.4955 N.2     1  UNL1       -0.1476
     37 C         -23.2846    1.6914   26.3319 C.3     1  UNL1        0.2199
     38 C         -21.9304    1.1302   28.0399 C.2     1  UNL1        0.3583
     39 C         -23.0662    2.1174   25.1479 C.2     1  UNL1        0.1395
@<TRIPOS>BOND
     1     1    33    1
     2     2     7    1
     3     2     1    1
     4     3     2    2
     5     4     3    1
     6     4     5    2
     7     5     6    1
     8     6     7    2
     9     8     1    1
    10     8     9    1
    11     8    12    1
    12     9    10    1
    13    10    11    1
    14    12    11    1
    15    14    13    1
    16    14    15    1
    17    15    18    2
    18    16    17    1
    19    16    15    1
    20    19    14    2
    21    20    21    2
    22    20    19    1
    23    21    26    1
    24    22    21    1
    25    23    22    1
    26    24    23    1
    27    24    25    1
    28    26    27    1
    29    26    13    2
    30    28    38    1
    31    29    34    2
    32    29    33    1
    33    30    13    1
    34    30    29    1
    35    31    33    2
    36    34    35    1
    37    36    39    2
    38    37    39    1
    39    37    28    1
    40    37    30    1
    41    38    32    2
    42    38    34    1
