@<TRIPOS>MOLECULE
outputs/IAG933/test6/raw/output_7643_IAG933_linker_design_.xyz
 43 47 0 0 0
SMALL
GASTEIGER

@<TRIPOS>ATOM
      1 C         -24.8550   -1.0120   30.1430 C.3     1  UNL1        0.1143
      2 C         -24.9730   -2.5050   29.7880 C.2     1  UNL1       -0.0029
      3 C         -23.9060   -3.1730   29.1460 C.2     1  UNL1       -0.0026
      4 C         -23.9890   -4.5490   28.8530 C.2     1  UNL1       -0.0003
      5 C         -25.1370   -5.2800   29.2050 C.2     1  UNL1       -0.0000
      6 C         -26.2320   -4.6110   29.7840 C.2     1  UNL1       -0.0003
      7 C         -26.1550   -3.2320   30.0650 C.2     1  UNL1       -0.0026
      8 C         -25.3870   -0.6790   31.5710 C.3     1  UNL1        0.0951
      9 C         -25.1890    0.7730   32.0280 C.3     1  UNL1        0.0209
     10 C         -25.3360    0.6840   33.5440 C.3     1  UNL1        0.0203
     11 C         -24.8290   -0.7150   33.9050 C.3     1  UNL1        0.0888
     12 N         -24.7580   -1.4810   32.6460 N.3     1  UNL1       -0.2174
     13 C         -25.6880    1.6140   26.4610 C.3     1  UNL1        0.0902
     14 C         -26.2500    2.9200   26.3950 C.2     1  UNL1        0.0586
     15 C         -25.6420    4.0930   27.1230 C.2     1  UNL1        0.2627
     16 N         -25.6140    5.2520   26.4490 N.am    1  UNL1       -0.2000
     17 C         -25.0260    6.4790   26.9630 C.3     1  UNL1        0.1388
     18 O         -25.1430    3.9660   28.2430 O.2     1  UNL1       -0.2686
     19 C         -27.4380    3.0910   25.6450 C.2     1  UNL1        0.1025
     20 N         -28.0750    2.0890   25.0030 N.2     1  UNL1       -0.2118
     21 C         -27.5430    0.8490   25.0790 C.2     1  UNL1        0.2344
     22 O         -28.1930   -0.2080   24.4770 O.2     1  UNL1       -0.4585
     23 C         -29.4600    0.0050   23.8660 C.3     1  UNL1        0.2423
     24 C         -30.0650   -1.3770   23.5730 C.3     1  UNL1        0.2292
     25 O         -30.7290   -1.8780   24.7210 O.3     1  UNL1       -0.2162
     26 C         -26.3540    0.5760   25.7770 C.3     1  UNL1        0.2437
     27 F         -25.8600   -0.6810   25.7950 F       1  UNL1       -0.2265
     28 C         -20.8092    0.8052   27.6140 C.2     1  UNL1        0.0051
     29 O         -28.1362   -0.8195   28.4295 O.2     1  UNL1       -0.2298
     30 C         -24.1480    1.5206   26.5044 C.2     1  UNL1       -0.0119
     31 C         -24.3452    0.8739   23.2635 C.3     1  UNL1        0.0029
     32 C         -21.9579    1.2871   27.0676 C.3     1  UNL1        0.1590
     33 C         -27.3285   -0.1841   28.5440 C.1     1  UNL1        0.1502
     34 C         -26.2370    0.6039   28.6874 C.2     1  UNL1        0.1502
     35 C         -20.7854   -0.1937   28.6749 C.2     1  UNL1        0.0039
     36 C         -23.2996    1.1525   27.5343 C.2     1  UNL1        0.0275
     37 O         -22.7391    0.5467   29.8467 O.3     1  UNL1       -0.3294
     38 C         -21.9514   -0.6308   29.4711 C.3     1  UNL1        0.1703
     39 N         -24.9181    0.1096   29.1276 N.pl3   1  UNL1       -0.2693
     40 C         -23.5427    0.7204   28.8921 C.3     1  UNL1        0.2153
     41 C         -23.2602    1.8305   25.4125 C.3     1  UNL1        0.1343
     42 O         -21.8702    1.8263   25.8753 O.3     1  UNL1       -0.3461
     43 C         -23.4770    1.9381   23.9464 C.3     1  UNL1        0.0338
@<TRIPOS>BOND
     1     1    39    1
     2     2     7    1
     3     2     1    1
     4     3     2    2
     5     4     3    1
     6     4     5    2
     7     5     6    1
     8     6     7    2
     9     8     1    1
    10     8     9    1
    11     8    12    1
    12     9    10    1
    13    10    11    1
    14    12    11    1
    15    13    30    1
    16    14    13    1
    17    14    15    1
    18    15    18    2
    19    16    17    1
    20    16    15    1
    21    19    14    2
    22    20    21    2
    23    20    19    1
    24    21    26    1
    25    22    21    1
    26    23    22    1
    27    24    23    1
    28    24    25    1
    29    26    27    1
    30    26    13    1
    31    28    35    2
    32    29    33    2
    33    30    36    2
    34    31    43    1
    35    32    36    1
    36    32    28    1
    37    33    34    2
    38    34    39    1
    39    35    38    1
    40    36    40    1
    41    38    37    1
    42    40    39    1
    43    40    37    1
    44    41    43    1
    45    41    42    1
    46    41    30    1
    47    42    32    1
