@<TRIPOS>MOLECULE
outputs/IAG933/test6/raw/output_7645_IAG933_linker_design_.xyz
 41 44 0 0 0
SMALL
GASTEIGER

@<TRIPOS>ATOM
      1 C         -24.8550   -1.0120   30.1430 C.3     1  UNL1        0.1114
      2 C         -24.9730   -2.5050   29.7880 C.2     1  UNL1       -0.0030
      3 C         -23.9060   -3.1730   29.1460 C.2     1  UNL1       -0.0026
      4 C         -23.9890   -4.5490   28.8530 C.2     1  UNL1       -0.0003
      5 C         -25.1370   -5.2800   29.2050 C.2     1  UNL1       -0.0000
      6 C         -26.2320   -4.6110   29.7840 C.2     1  UNL1       -0.0003
      7 C         -26.1550   -3.2320   30.0650 C.2     1  UNL1       -0.0026
      8 C         -25.3870   -0.6790   31.5710 C.3     1  UNL1        0.0950
      9 C         -25.1890    0.7730   32.0280 C.3     1  UNL1        0.0209
     10 C         -25.3360    0.6840   33.5440 C.3     1  UNL1        0.0203
     11 C         -24.8290   -0.7150   33.9050 C.3     1  UNL1        0.0888
     12 N         -24.7580   -1.4810   32.6460 N.3     1  UNL1       -0.2174
     13 C         -25.6880    1.6140   26.4610 C.2     1  UNL1        0.0453
     14 C         -26.2500    2.9200   26.3950 C.2     1  UNL1        0.0771
     15 C         -25.6420    4.0930   27.1230 C.2     1  UNL1        0.2664
     16 N         -25.6140    5.2520   26.4490 N.am    1  UNL1       -0.1997
     17 C         -25.0260    6.4790   26.9630 C.3     1  UNL1        0.1388
     18 O         -25.1430    3.9660   28.2430 O.2     1  UNL1       -0.2683
     19 C         -27.4380    3.0910   25.6450 C.2     1  UNL1        0.1067
     20 N         -28.0750    2.0890   25.0030 N.2     1  UNL1       -0.2081
     21 C         -27.5430    0.8490   25.0790 C.2     1  UNL1        0.2533
     22 O         -28.1930   -0.2080   24.4770 O.2     1  UNL1       -0.4558
     23 C         -29.4600    0.0050   23.8660 C.3     1  UNL1        0.2426
     24 C         -30.0650   -1.3770   23.5730 C.3     1  UNL1        0.2292
     25 O         -30.7290   -1.8780   24.7210 O.3     1  UNL1       -0.2162
     26 C         -26.3540    0.5760   25.7770 C.2     1  UNL1        0.1936
     27 F         -25.8600   -0.6810   25.7950 F       1  UNL1       -0.1992
     28 C         -27.3444    0.5568   29.6317 C.3     1  UNL1        0.1635
     29 C         -28.8073   -0.9287   29.6104 C.3     1  UNL1        0.1541
     30 C         -21.8759    1.3264   27.3933 C.2     1  UNL1        0.0368
     31 C         -22.5197    0.4044   28.4639 C.2     1  UNL1        0.0220
     32 S         -22.9411    2.0520   26.3412 S.3     1  UNL1       -0.0851
     33 O         -27.8063   -0.4303   28.7471 O.3     1  UNL1       -0.3514
     34 C         -24.3365    1.4154   27.0734 C.2     1  UNL1        0.0453
     35 C         -30.9785   -0.1406   28.5724 C.2     1  UNL1        0.3674
     36 C         -23.9490    0.6957   28.1983 C.2     1  UNL1        0.0548
     37 C         -30.1683   -1.3219   29.0065 C.3     1  UNL1        0.1460
     38 O         -32.0827    0.0629   29.1326 O.co2   1  UNL1       -0.2456
     39 N         -25.0118   -0.0761   29.0150 N.pl3   1  UNL1       -0.3012
     40 O         -30.5449    0.6149   27.6954 O.co2   1  UNL1       -0.2456
     41 C         -25.9889    0.9612   29.0894 C.3     1  UNL1        0.1232
@<TRIPOS>BOND
     1     1    39    1
     2     2     7    1
     3     2     1    1
     4     3     2    2
     5     4     3    1
     6     4     5    2
     7     5     6    1
     8     6     7    2
     9     8     1    1
    10     8     9    1
    11     8    12    1
    12     9    10    1
    13    10    11    1
    14    12    11    1
    15    13    34    1
    16    14    13    1
    17    14    15    1
    18    15    18    2
    19    16    17    1
    20    16    15    1
    21    19    14    2
    22    20    21    2
    23    20    19    1
    24    21    26    1
    25    22    21    1
    26    23    22    1
    27    24    23    1
    28    24    25    1
    29    26    27    1
    30    26    13    2
    31    30    31    2
    32    32    34    1
    33    32    30    1
    34    33    29    1
    35    33    28    1
    36    34    36    2
    37    35    37    1
    38    35    38   ar
    39    36    31    1
    40    36    39    1
    41    37    29    1
    42    39    41    1
    43    40    35   ar
    44    41    28    1
