@<TRIPOS>MOLECULE
outputs/IAG933/test6/raw/output_765_IAG933_linker_design_.xyz
 46 49 0 0 0
SMALL
GASTEIGER

@<TRIPOS>ATOM
      1 C         -24.8550   -1.0120   30.1430 C.3     1  UNL1        0.0810
      2 C         -24.9730   -2.5050   29.7880 C.2     1  UNL1       -0.0176
      3 C         -23.9060   -3.1730   29.1460 C.2     1  UNL1       -0.0041
      4 C         -23.9890   -4.5490   28.8530 C.2     1  UNL1       -0.0003
      5 C         -25.1370   -5.2800   29.2050 C.2     1  UNL1       -0.0000
      6 C         -26.2320   -4.6110   29.7840 C.2     1  UNL1       -0.0003
      7 C         -26.1550   -3.2320   30.0650 C.2     1  UNL1       -0.0041
      8 C         -25.3870   -0.6790   31.5710 C.3     1  UNL1        0.0804
      9 C         -25.1890    0.7730   32.0280 C.3     1  UNL1        0.0193
     10 C         -25.3360    0.6840   33.5440 C.3     1  UNL1        0.0202
     11 C         -24.8290   -0.7150   33.9050 C.3     1  UNL1        0.0887
     12 N         -24.7580   -1.4810   32.6460 N.3     1  UNL1       -0.2190
     13 C         -25.6880    1.6140   26.4610 C.2     1  UNL1        0.0156
     14 C         -26.2500    2.9200   26.3950 C.2     1  UNL1        0.0726
     15 C         -25.6420    4.0930   27.1230 C.2     1  UNL1        0.2661
     16 N         -25.6140    5.2520   26.4490 N.am    1  UNL1       -0.1997
     17 C         -25.0260    6.4790   26.9630 C.3     1  UNL1        0.1388
     18 O         -25.1430    3.9660   28.2430 O.2     1  UNL1       -0.2683
     19 C         -27.4380    3.0910   25.6450 C.2     1  UNL1        0.1064
     20 N         -28.0750    2.0890   25.0030 N.2     1  UNL1       -0.2081
     21 C         -27.5430    0.8490   25.0790 C.2     1  UNL1        0.2530
     22 O         -28.1930   -0.2080   24.4770 O.2     1  UNL1       -0.4558
     23 C         -29.4600    0.0050   23.8660 C.3     1  UNL1        0.2426
     24 C         -30.0650   -1.3770   23.5730 C.3     1  UNL1        0.2292
     25 O         -30.7290   -1.8780   24.7210 O.3     1  UNL1       -0.2162
     26 C         -26.3540    0.5760   25.7770 C.2     1  UNL1        0.1891
     27 F         -25.8600   -0.6810   25.7950 F       1  UNL1       -0.1996
     28 C         -21.4021    1.7140   27.6691 C.3     1  UNL1        0.0030
     29 C         -27.6537    1.5840   29.4603 C.3     1  UNL1        0.1101
     30 O         -28.0511    3.4676   31.8143 O.co2   1  UNL1       -0.2457
     31 C         -31.1241    3.5564   29.7547 C.3     1  UNL1        0.0000
     32 O         -22.4420   -0.0279   29.3419 O.3     1  UNL1       -0.2193
     33 C         -23.5005    0.3766   28.6549 C.3     1  UNL1        0.1922
     34 O         -26.2411   -0.3092   28.4525 O.3     1  UNL1       -0.4492
     35 C         -30.4739    2.7221   27.9664 C.3     1  UNL1        0.0000
     36 C         -23.4290    1.6016   26.2507 C.3     1  UNL1        0.0074
     37 C         -29.0941    1.9894   29.8727 C.3     1  UNL1        0.0224
     38 O         -28.4636   -0.5146   28.6670 O.2     1  UNL1       -0.2501
     39 C         -29.3592    1.5987   31.2714 C.3     1  UNL1        0.1146
     40 C         -24.5544    1.4381   27.1819 C.3     1  UNL1        0.0275
     41 O         -29.0381    2.4251   33.4273 O.co2   1  UNL1       -0.2457
     42 C         -29.8116    3.0532   29.2957 C.3     1  UNL1        0.0011
     43 C         -27.5444    0.2209   28.8484 C.2     1  UNL1        0.3170
     44 C         -24.8653   -0.0927   29.0041 C.3     1  UNL1        0.2041
     45 C         -28.7872    2.5985   32.2210 C.2     1  UNL1        0.3649
     46 C         -23.0453    1.1931   27.6369 C.3     1  UNL1        0.0358
@<TRIPOS>BOND
     1     1    44    1
     2     2     7    1
     3     2     1    1
     4     3     2    2
     5     4     3    1
     6     4     5    2
     7     5     6    1
     8     6     7    2
     9     8     1    1
    10     8     9    1
    11     8    12    1
    12     9    10    1
    13    10    11    1
    14    12    11    1
    15    14    13    1
    16    14    15    1
    17    15    18    2
    18    16    17    1
    19    16    15    1
    20    19    14    2
    21    20    21    2
    22    20    19    1
    23    21    26    1
    24    22    21    1
    25    23    22    1
    26    24    23    1
    27    24    25    1
    28    26    27    1
    29    26    13    2
    30    30    45   ar
    31    33    44    1
    32    33    32    1
    33    34    43    1
    34    35    42    1
    35    36    40    1
    36    36    46    1
    37    37    29    1
    38    37    39    1
    39    38    43    2
    40    39    45    1
    41    40    13    1
    42    40    46    1
    43    42    31    1
    44    42    37    1
    45    43    29    1
    46    44    34    1
    47    45    41   ar
    48    46    28    1
    49    46    33    1
