@<TRIPOS>MOLECULE
outputs/IAG933/test6/raw/output_7651_IAG933_linker_design_.xyz
 42 45 0 0 0
SMALL
GASTEIGER

@<TRIPOS>ATOM
      1 C         -24.8550   -1.0120   30.1430 C.3     1  UNL1        0.2074
      2 C         -24.9730   -2.5050   29.7880 C.2     1  UNL1        0.0218
      3 C         -23.9060   -3.1730   29.1460 C.2     1  UNL1       -0.0004
      4 C         -23.9890   -4.5490   28.8530 C.2     1  UNL1       -0.0002
      5 C         -25.1370   -5.2800   29.2050 C.2     1  UNL1       -0.0000
      6 C         -26.2320   -4.6110   29.7840 C.2     1  UNL1       -0.0002
      7 C         -26.1550   -3.2320   30.0650 C.2     1  UNL1       -0.0004
      8 C         -25.3870   -0.6790   31.5710 C.3     1  UNL1        0.1203
      9 C         -25.1890    0.7730   32.0280 C.3     1  UNL1        0.0233
     10 C         -25.3360    0.6840   33.5440 C.3     1  UNL1        0.0204
     11 C         -24.8290   -0.7150   33.9050 C.3     1  UNL1        0.0889
     12 N         -24.7580   -1.4810   32.6460 N.3     1  UNL1       -0.2150
     13 C         -25.6880    1.6140   26.4610 C.2     1  UNL1        0.0461
     14 C         -26.2500    2.9200   26.3950 C.2     1  UNL1        0.0768
     15 C         -25.6420    4.0930   27.1230 C.2     1  UNL1        0.2664
     16 N         -25.6140    5.2520   26.4490 N.am    1  UNL1       -0.1997
     17 C         -25.0260    6.4790   26.9630 C.3     1  UNL1        0.1388
     18 O         -25.1430    3.9660   28.2430 O.2     1  UNL1       -0.2683
     19 C         -27.4380    3.0910   25.6450 C.2     1  UNL1        0.1067
     20 N         -28.0750    2.0890   25.0030 N.2     1  UNL1       -0.2081
     21 C         -27.5430    0.8490   25.0790 C.2     1  UNL1        0.2533
     22 O         -28.1930   -0.2080   24.4770 O.2     1  UNL1       -0.4558
     23 C         -29.4600    0.0050   23.8660 C.3     1  UNL1        0.2426
     24 C         -30.0650   -1.3770   23.5730 C.3     1  UNL1        0.2292
     25 O         -30.7290   -1.8780   24.7210 O.3     1  UNL1       -0.2162
     26 C         -26.3540    0.5760   25.7770 C.2     1  UNL1        0.1933
     27 F         -25.8600   -0.6810   25.7950 F       1  UNL1       -0.1992
     28 N         -25.3008   -0.0071   29.1211 N.am    1  UNL1       -0.1231
     29 N         -27.1340    1.4882   29.6289 N.am    1  UNL1       -0.1654
     30 CB        -29.4958    0.4811   30.7898 C.3     1  UNL1        0.0263
     31 F         -21.1128    1.8888   27.5544 F       1  UNL1       -0.1551
     32 O         -28.6400    3.4099   31.9161 O.3     1  UNL1       -0.2185
     33 CA        -28.3441    1.4460   30.4883 C.3     1  UNL1        0.1320
     34 C         -24.2917    0.6283   28.3398 C.2     1  UNL1        0.3257
     35 C         -28.9256    2.8977   30.5858 C.3     1  UNL1        0.2037
     36 CL        -22.9803    2.5724   25.2053 Cl      1  UNL1       -0.0758
     37 N         -22.9069    0.6789   28.5706 N.pl3   1  UNL1        0.0203
     38 C         -23.3007    1.8430   26.6850 C.2     1  UNL1        0.1343
     39 O         -27.4717   -0.5346   28.6655 O.2     1  UNL1       -0.2217
     40 C         -22.3915    1.4871   27.6405 C.2     1  UNL1        0.3310
     41 C         -24.4819    1.3758   27.1285 C.2     1  UNL1        0.0997
     42 C         -26.6675    0.3076   29.0965 C.2     0  ACE0        0.4148
@<TRIPOS>BOND
     1     1    28    1
     2     2     7    1
     3     2     1    1
     4     3     2    2
     5     4     3    1
     6     4     5    2
     7     5     6    1
     8     6     7    2
     9     8     1    1
    10     8     9    1
    11     8    12    1
    12     9    10    1
    13    10    11    1
    14    12    11    1
    15    13    41    1
    16    14    13    1
    17    14    15    1
    18    15    18    2
    19    16    17    1
    20    16    15    1
    21    19    14    2
    22    20    21    2
    23    20    19    1
    24    21    26    1
    25    22    21    1
    26    23    22    1
    27    24    23    1
    28    24    25    1
    29    26    27    1
    30    26    13    2
    31    29    33    1
    32    31    40    1
    33    33    35    1
    34    33    30    1
    35    34    37    1
    36    34    28    1
    37    35    32    1
    38    36    38    1
    39    38    41    1
    40    38    40    2
    41    39    42    2
    42    40    37    1
    43    41    34    2
    44    42    28   am
    45    42    29    1
