@<TRIPOS>MOLECULE
outputs/IAG933/test6/raw/output_7652_IAG933_linker_design_.xyz
 42 47 0 0 0
SMALL
GASTEIGER

@<TRIPOS>ATOM
      1 C         -24.8550   -1.0120   30.1430 C.3     1  UNL1        0.1987
      2 C         -24.9730   -2.5050   29.7880 C.2     1  UNL1        0.0213
      3 C         -23.9060   -3.1730   29.1460 C.2     1  UNL1       -0.0004
      4 C         -23.9890   -4.5490   28.8530 C.2     1  UNL1       -0.0002
      5 C         -25.1370   -5.2800   29.2050 C.2     1  UNL1       -0.0000
      6 C         -26.2320   -4.6110   29.7840 C.2     1  UNL1       -0.0002
      7 C         -26.1550   -3.2320   30.0650 C.2     1  UNL1       -0.0004
      8 C         -25.3870   -0.6790   31.5710 C.3     1  UNL1        0.1197
      9 C         -25.1890    0.7730   32.0280 C.3     1  UNL1        0.0233
     10 C         -25.3360    0.6840   33.5440 C.3     1  UNL1        0.0204
     11 C         -24.8290   -0.7150   33.9050 C.3     1  UNL1        0.0889
     12 N         -24.7580   -1.4810   32.6460 N.3     1  UNL1       -0.2150
     13 C         -25.6880    1.6140   26.4610 C.2     1  UNL1        0.0349
     14 C         -26.2500    2.9200   26.3950 C.2     1  UNL1        0.0740
     15 C         -25.6420    4.0930   27.1230 C.2     1  UNL1        0.2662
     16 N         -25.6140    5.2520   26.4490 N.am    1  UNL1       -0.1997
     17 C         -25.0260    6.4790   26.9630 C.3     1  UNL1        0.1388
     18 O         -25.1430    3.9660   28.2430 O.2     1  UNL1       -0.2683
     19 C         -27.4380    3.0910   25.6450 C.2     1  UNL1        0.1065
     20 N         -28.0750    2.0890   25.0030 N.2     1  UNL1       -0.2081
     21 C         -27.5430    0.8490   25.0790 C.2     1  UNL1        0.2530
     22 O         -28.1930   -0.2080   24.4770 O.2     1  UNL1       -0.4558
     23 C         -29.4600    0.0050   23.8660 C.3     1  UNL1        0.2426
     24 C         -30.0650   -1.3770   23.5730 C.3     1  UNL1        0.2292
     25 O         -30.7290   -1.8780   24.7210 O.3     1  UNL1       -0.2162
     26 C         -26.3540    0.5760   25.7770 C.2     1  UNL1        0.1905
     27 F         -25.8600   -0.6810   25.7950 F       1  UNL1       -0.1995
     28 N         -23.3552    1.1327   26.6387 N.3     1  UNL1       -0.2210
     29 O         -21.9168    1.9392   25.7952 O.3     1  UNL1       -0.3273
     30 C         -24.6424    1.2077   27.2536 C.3     1  UNL1        0.1409
     31 C         -20.3606    0.1332   28.2759 C.3     1  UNL1        0.0170
     32 C         -26.3070    0.8436   29.0694 C.2     1  UNL1        0.4085
     33 C         -22.6993   -0.2517   29.0039 C.2     1  UNL1        0.3563
     34 C         -22.2064    1.1299   26.7840 C.3     1  UNL1        0.1908
     35 O         -27.2520    0.0267   29.1670 O.co2   1  UNL1       -0.2411
     36 C         -21.7579    0.3562   28.0015 C.3     1  UNL1        0.1533
     37 C         -23.3998    0.8211   24.1155 C.3     1  UNL1        0.0509
     38 N         -22.0745   -0.9290   29.8893 N.2     1  UNL1        0.1880
     39 C         -23.1255    1.5583   25.5371 C.3     1  UNL1        0.1805
     40 N         -24.1069   -0.2395   29.1571 N.pl3   1  UNL1       -0.1817
     41 C         -25.0984    0.3218   28.2487 C.3     1  UNL1        0.2820
     42 O         -26.2552    1.9081   29.6878 O.co2   1  UNL1       -0.2411
@<TRIPOS>BOND
     1     1     2    1
     2     2     7    1
     3     3     2    2
     4     4     3    1
     5     4     5    2
     6     5     6    1
     7     6     7    2
     8     8     1    1
     9     8     9    1
    10     8    12    1
    11     9    10    1
    12    10    11    1
    13    12    11    1
    14    13    30    1
    15    14    13    1
    16    14    15    1
    17    15    18    2
    18    16    17    1
    19    16    15    1
    20    19    14    2
    21    20    21    2
    22    20    19    1
    23    21    26    1
    24    22    21    1
    25    23    22    1
    26    24    23    1
    27    24    25    1
    28    26    27    1
    29    26    13    2
    30    28    34    1
    31    28    30    1
    32    29    34    1
    33    30    41    1
    34    32    35   ar
    35    32    42   ar
    36    33    40    1
    37    33    38    2
    38    34    36    1
    39    36    31    1
    40    36    33    1
    41    37    39    1
    42    39    29    1
    43    39    28    1
    44    39    34    1
    45    40     1    1
    46    41    32    1
    47    41    40    1
