@<TRIPOS>MOLECULE
outputs/IAG933/test6/raw/output_7653_IAG933_linker_design_.xyz
 44 48 0 0 0
SMALL
GASTEIGER

@<TRIPOS>ATOM
      1 C         -24.8550   -1.0120   30.1430 C.3     1  UNL1        0.0944
      2 C         -24.9730   -2.5050   29.7880 C.2     1  UNL1       -0.0140
      3 C         -23.9060   -3.1730   29.1460 C.2     1  UNL1       -0.0038
      4 C         -23.9890   -4.5490   28.8530 C.2     1  UNL1       -0.0003
      5 C         -25.1370   -5.2800   29.2050 C.2     1  UNL1       -0.0000
      6 C         -26.2320   -4.6110   29.7840 C.2     1  UNL1       -0.0003
      7 C         -26.1550   -3.2320   30.0650 C.2     1  UNL1       -0.0038
      8 C         -25.3870   -0.6790   31.5710 C.3     1  UNL1        0.0839
      9 C         -25.1890    0.7730   32.0280 C.3     1  UNL1        0.0196
     10 C         -25.3360    0.6840   33.5440 C.3     1  UNL1        0.0203
     11 C         -24.8290   -0.7150   33.9050 C.3     1  UNL1        0.0887
     12 N         -24.7580   -1.4810   32.6460 N.3     1  UNL1       -0.2187
     13 C         -25.6880    1.6140   26.4610 C.2     1  UNL1        0.0207
     14 C         -26.2500    2.9200   26.3950 C.2     1  UNL1        0.0729
     15 C         -25.6420    4.0930   27.1230 C.2     1  UNL1        0.2661
     16 N         -25.6140    5.2520   26.4490 N.am    1  UNL1       -0.1997
     17 C         -25.0260    6.4790   26.9630 C.3     1  UNL1        0.1388
     18 O         -25.1430    3.9660   28.2430 O.2     1  UNL1       -0.2683
     19 C         -27.4380    3.0910   25.6450 C.2     1  UNL1        0.1064
     20 N         -28.0750    2.0890   25.0030 N.2     1  UNL1       -0.2081
     21 C         -27.5430    0.8490   25.0790 C.2     1  UNL1        0.2530
     22 O         -28.1930   -0.2080   24.4770 O.2     1  UNL1       -0.4558
     23 C         -29.4600    0.0050   23.8660 C.3     1  UNL1        0.2426
     24 C         -30.0650   -1.3770   23.5730 C.3     1  UNL1        0.2292
     25 O         -30.7290   -1.8780   24.7210 O.3     1  UNL1       -0.2162
     26 C         -26.3540    0.5760   25.7770 C.2     1  UNL1        0.1894
     27 F         -25.8600   -0.6810   25.7950 F       1  UNL1       -0.1996
     28 C         -22.3355    1.5686   28.0016 C.3     1  UNL1        0.1806
     29 C         -25.6017   -0.3478   29.0518 C.2     1  UNL1        0.1136
     30 CL        -22.7636    2.2018   25.4458 Cl      1  UNL1       -0.1114
     31 C         -27.7357    3.9930   30.1928 C.3     1  UNL1        0.1423
     32 O         -26.6699   -0.4655   28.4271 O.2     1  UNL1       -0.4772
     33 C         -28.3789    0.9758   28.5196 C.3     1  UNL1        0.1978
     34 C         -22.9622    0.5670   28.8784 C.3     1  UNL1        0.0616
     35 O         -29.1807   -0.1955   28.2800 O.3     1  UNL1       -0.2191
     36 C         -29.2483    3.3659   28.6644 C.3     1  UNL1        0.1448
     37 O         -28.6324    4.4478   29.1590 O.3     1  UNL1       -0.3537
     38 C         -24.2778    0.5063   28.4201 C.2     1  UNL1       -0.0062
     39 C         -27.6066    0.1739   29.3368 C.3     1  UNL1        0.2376
     40 C         -24.4558    1.2136   27.2284 C.3     1  UNL1        0.0635
     41 C         -27.8251    2.6576   30.2754 C.3     1  UNL1        0.0372
     42 F         -21.0425    1.5432   27.6550 F       1  UNL1       -0.2356
     43 C         -28.5777    2.2997   29.2384 C.3     1  UNL1        0.0663
     44 C         -23.2053    1.6433   26.9282 C.3     1  UNL1        0.1205
@<TRIPOS>BOND
     1     1    29    1
     2     2     7    1
     3     2     1    1
     4     3     2    2
     5     4     3    1
     6     4     5    2
     7     5     6    1
     8     6     7    2
     9     8     1    1
    10     8     9    1
    11     8    12    1
    12     9    10    1
    13    10    11    1
    14    12    11    1
    15    14    13    1
    16    14    15    1
    17    15    18    2
    18    16    17    1
    19    16    15    1
    20    19    14    2
    21    20    21    2
    22    20    19    1
    23    21    26    1
    24    22    21    1
    25    23    22    1
    26    24    23    1
    27    24    25    1
    28    26    27    1
    29    26    13    2
    30    28    42    1
    31    28    34    1
    32    31    41    1
    33    32    29    1
    34    32    39    1
    35    33    35    1
    36    33    39    1
    37    36    37    1
    38    36    43    1
    39    37    31    1
    40    38    34    1
    41    38    29    2
    42    40    13    1
    43    40    38    1
    44    43    33    1
    45    43    41    1
    46    44    30    1
    47    44    40    1
    48    44    28    1
