@<TRIPOS>MOLECULE
outputs/IAG933/test6/raw/output_7655_IAG933_linker_design_.xyz
 40 43 0 0 0
SMALL
GASTEIGER

@<TRIPOS>ATOM
      1 C         -24.8550   -1.0120   30.1430 C.3     1  UNL1        0.1206
      2 C         -24.9730   -2.5050   29.7880 C.2     1  UNL1       -0.0025
      3 C         -23.9060   -3.1730   29.1460 C.2     1  UNL1       -0.0026
      4 C         -23.9890   -4.5490   28.8530 C.2     1  UNL1       -0.0003
      5 C         -25.1370   -5.2800   29.2050 C.2     1  UNL1       -0.0000
      6 C         -26.2320   -4.6110   29.7840 C.2     1  UNL1       -0.0003
      7 C         -26.1550   -3.2320   30.0650 C.2     1  UNL1       -0.0026
      8 C         -25.3870   -0.6790   31.5710 C.3     1  UNL1        0.0955
      9 C         -25.1890    0.7730   32.0280 C.3     1  UNL1        0.0209
     10 C         -25.3360    0.6840   33.5440 C.3     1  UNL1        0.0203
     11 C         -24.8290   -0.7150   33.9050 C.3     1  UNL1        0.0888
     12 N         -24.7580   -1.4810   32.6460 N.3     1  UNL1       -0.2174
     13 C         -25.6880    1.6140   26.4610 C.2     1  UNL1        0.0322
     14 C         -26.2500    2.9200   26.3950 C.2     1  UNL1        0.0735
     15 C         -25.6420    4.0930   27.1230 C.2     1  UNL1        0.2661
     16 N         -25.6140    5.2520   26.4490 N.am    1  UNL1       -0.1997
     17 C         -25.0260    6.4790   26.9630 C.3     1  UNL1        0.1388
     18 O         -25.1430    3.9660   28.2430 O.2     1  UNL1       -0.2683
     19 C         -27.4380    3.0910   25.6450 C.2     1  UNL1        0.1064
     20 N         -28.0750    2.0890   25.0030 N.2     1  UNL1       -0.2081
     21 C         -27.5430    0.8490   25.0790 C.2     1  UNL1        0.2530
     22 O         -28.1930   -0.2080   24.4770 O.2     1  UNL1       -0.4558
     23 C         -29.4600    0.0050   23.8660 C.3     1  UNL1        0.2426
     24 C         -30.0650   -1.3770   23.5730 C.3     1  UNL1        0.2292
     25 O         -30.7290   -1.8780   24.7210 O.3     1  UNL1       -0.2162
     26 C         -26.3540    0.5760   25.7770 C.2     1  UNL1        0.1900
     27 F         -25.8600   -0.6810   25.7950 F       1  UNL1       -0.1996
     28 C         -21.0890    1.1849   28.1392 C.2     1  UNL1        0.0185
     29 C         -21.6532   -0.0170   29.2291 C.3     1  UNL1        0.0910
     30 O         -21.7557    2.0580   25.0639 O.3     1  UNL1        0.0287
     31 C         -22.0170    1.5092   27.3358 C.1     1  UNL1       -0.0693
     32 C         -24.6781    0.2514   28.2162 C.2     1  UNL1        0.2434
     33 C         -23.1802    1.7069   26.7097 C.2     1  UNL1        0.2098
     34 O         -25.4911   -0.4413   27.8092 O.2     1  UNL1       -0.2736
     35 O         -22.9154    1.5620   30.2975 O.2     1  UNL1       -0.2744
     36 N         -24.0621   -0.1459   29.4445 N.am    1  UNL1       -0.2255
     37 C         -22.9273    0.4455   29.8178 C.2     1  UNL1        0.2319
     38 O         -23.0786    2.2551   25.3546 O.2     1  UNL1       -0.2988
     39 C         -24.3551    1.2755   27.1954 C.3     1  UNL1        0.1698
     40 C         -20.6227    0.0245   28.7859 C.3     1  UNL1        0.0441
@<TRIPOS>BOND
     1     1     2    1
     2     2     7    1
     3     3     2    2
     4     4     3    1
     5     4     5    2
     6     5     6    1
     7     6     7    2
     8     8     1    1
     9     8     9    1
    10     8    12    1
    11     9    10    1
    12    10    11    1
    13    12    11    1
    14    14    13    1
    15    14    15    1
    16    15    18    2
    17    16    17    1
    18    16    15    1
    19    19    14    2
    20    20    21    2
    21    20    19    1
    22    21    26    1
    23    22    21    1
    24    23    22    1
    25    24    23    1
    26    24    25    1
    27    26    27    1
    28    26    13    2
    29    28    40    1
    30    29    37    1
    31    30    38    1
    32    31    28    2
    33    32    36   am
    34    33    39    1
    35    33    31    2
    36    34    32    2
    37    36    37   am
    38    36     1    1
    39    37    35    2
    40    38    33    1
    41    39    13    1
    42    39    32    1
    43    40    29    1
