@<TRIPOS>MOLECULE
outputs/IAG933/test6/raw/output_7656_IAG933_linker_design_.xyz
 41 44 0 0 0
SMALL
GASTEIGER

@<TRIPOS>ATOM
      1 C         -24.8550   -1.0120   30.1430 C.3     1  UNL1        0.2429
      2 C         -24.9730   -2.5050   29.7880 C.2     1  UNL1        0.0254
      3 C         -23.9060   -3.1730   29.1460 C.2     1  UNL1       -0.0003
      4 C         -23.9890   -4.5490   28.8530 C.2     1  UNL1       -0.0002
      5 C         -25.1370   -5.2800   29.2050 C.2     1  UNL1       -0.0000
      6 C         -26.2320   -4.6110   29.7840 C.2     1  UNL1       -0.0002
      7 C         -26.1550   -3.2320   30.0650 C.2     1  UNL1       -0.0003
      8 C         -25.3870   -0.6790   31.5710 C.3     1  UNL1        0.1239
      9 C         -25.1890    0.7730   32.0280 C.3     1  UNL1        0.0235
     10 C         -25.3360    0.6840   33.5440 C.3     1  UNL1        0.0204
     11 C         -24.8290   -0.7150   33.9050 C.3     1  UNL1        0.0889
     12 N         -24.7580   -1.4810   32.6460 N.3     1  UNL1       -0.2149
     13 C         -25.6880    1.6140   26.4610 C.2     1  UNL1        0.0826
     14 C         -26.2500    2.9200   26.3950 C.2     1  UNL1        0.0780
     15 C         -25.6420    4.0930   27.1230 C.2     1  UNL1        0.2221
     16 N         -25.6140    5.2520   26.4490 N.2     1  UNL1       -0.2357
     17 C         -25.0260    6.4790   26.9630 C.3     1  UNL1        0.1550
     18 O         -25.1430    3.9660   28.2430 O.2     1  UNL1       -0.4604
     19 C         -27.4380    3.0910   25.6450 C.2     1  UNL1        0.1069
     20 N         -28.0750    2.0890   25.0030 N.2     1  UNL1       -0.2081
     21 C         -27.5430    0.8490   25.0790 C.2     1  UNL1        0.2534
     22 O         -28.1930   -0.2080   24.4770 O.2     1  UNL1       -0.4558
     23 C         -29.4600    0.0050   23.8660 C.3     1  UNL1        0.2426
     24 C         -30.0650   -1.3770   23.5730 C.3     1  UNL1        0.2292
     25 O         -30.7290   -1.8780   24.7210 O.3     1  UNL1       -0.2162
     26 C         -26.3540    0.5760   25.7770 C.2     1  UNL1        0.1967
     27 F         -25.8600   -0.6810   25.7950 F       1  UNL1       -0.1991
     28 C         -22.0867    0.7418   28.6694 C.2     1  UNL1        0.1242
     29 N         -23.4477   -0.5532   30.0482 N.pl3   1  UNL1       -0.0295
     30 C         -24.4359    1.2607   27.1716 C.2     1  UNL1        0.2154
     31 C         -23.1078    1.6980   26.7132 C.2     1  UNL1        0.1718
     32 C         -22.0392    1.4751   27.4965 C.2     1  UNL1        0.1688
     33 F         -20.8509    2.0086   27.2089 F       1  UNL1       -0.2023
     34 C         -27.6530    3.4610   30.4463 C.3     1  UNL1        0.0038
     35 C         -25.8370    4.9262   31.3733 C.3     1  UNL1        0.0038
     36 C         -23.3852    0.2332   28.9881 C.2     1  UNL1        0.3639
     37 C         -25.4893    3.7618   29.4877 C.3     1  UNL1        0.2070
     38 N         -24.5076    0.5157   28.2669 N.2     1  UNL1       -0.0349
     39 C         -26.1948    3.6221   30.7130 C.3     1  UNL1        0.0438
     40 N         -22.9991    2.2681   25.5000 N.pl3   1  UNL1       -0.0495
     41 F         -21.9615    2.3909   24.9105 F       1  UNL1       -0.0865
@<TRIPOS>BOND
     1     1    29    1
     2     2     7    1
     3     2     1    1
     4     3     2    2
     5     4     3    1
     6     4     5    2
     7     5     6    1
     8     6     7    2
     9     8     1    1
    10     8     9    1
    11     8    12    1
    12     9    10    1
    13    10    11    1
    14    12    11    1
    15    13    30    1
    16    14    13    1
    17    14    15    1
    18    15    18    1
    19    16    17    1
    20    16    15    2
    21    18    37    1
    22    19    14    2
    23    20    21    2
    24    20    19    1
    25    21    26    1
    26    22    21    1
    27    23    22    1
    28    24    23    1
    29    24    25    1
    30    26    27    1
    31    26    13    2
    32    28    36    1
    33    30    38    1
    34    31    30    2
    35    31    32    1
    36    32    28    2
    37    33    32    1
    38    34    39    1
    39    36    29    1
    40    37    39    1
    41    38    36    2
    42    39    35    1
    43    40    31    1
    44    41    40    1
