@<TRIPOS>MOLECULE
No_766-gen_results/8p0m/2024-11-27-11-27-31/
 20 22 0 0 0
SMALL
GASTEIGER

@<TRIPOS>ATOM
      1 C         -28.0162   -0.8135   28.8779 C.3     1  UNL1        0.0000
      2 C         -27.0636   -0.1189   28.6079 C.3     1  UNL1        0.0000
      3 C         -26.8756    1.1325   28.9134 C.3     1  UNL1        0.0005
      4 C         -25.6883    1.9515   28.5672 C.3     1  UNL1        0.0112
      5 C         -24.6394    1.2834   27.8753 C.3     1  UNL1        0.1034
      6 C         -24.8068   -0.0513   27.6040 C.3     1  UNL1        0.0112
      7 C         -25.9019   -0.7670   27.9511 C.3     1  UNL1        0.0006
      8 C         -28.6455   -0.5282   30.2428 C.3     1  UNL1        0.0000
      9 C         -28.9122    0.7961   30.4353 C.3     1  UNL1        0.0000
     10 C         -27.6444    1.6294   30.2030 C.3     1  UNL1        0.0000
     11 C         -23.4710    1.9776   27.3672 C.2     1  UNL1        0.3643
     12 O         -23.4181    2.7543   26.5189 O.co2   1  UNL1       -0.2457
     13 O         -22.3860    2.0047   28.3035 O.co2   1  UNL1       -0.2457
     14 C         -29.4090    1.2015   31.8492 C.3     1  UNL1        0.0000
     15 C         -29.5951    1.2535   29.2518 C.3     1  UNL1        0.0000
     16 C         -30.7664    1.9268   29.3497 C.3     1  UNL1        0.0000
     17 C         -31.2780    2.4644   28.6034 C.3     1  UNL1        0.0000
     18 C         -30.5901    1.8722   31.9166 C.3     1  UNL1        0.0000
     19 C         -31.1313    2.2221   30.7930 C.3     1  UNL1        0.0000
     20 C         -32.5282    3.1245   28.6408 C.3     1  UNL1        0.0000
@<TRIPOS>BOND
     1     2     3    1
     2     3     4    1
     3     4     5    1
     4     5     6    1
     5     2     7    1
     6     6     7    1
     7     1     8    1
     8     8     9    1
     9     3    10    1
    10     9    10    1
    11     5    11    1
    12    11    12   ar
    13    11    13   ar
    14     9    14    1
    15     9    15    1
    16    15    16    1
    17    16    19    1
    18    18    19    1
    19    17    20    1
    20    17    16    1
    21    14    18    1
    22     1     2    1
