@<TRIPOS>MOLECULE
outputs/IAG933/test6/raw/output_7661_IAG933_linker_design_.xyz
 42 45 0 0 0
SMALL
GASTEIGER

@<TRIPOS>ATOM
      1 C         -24.8550   -1.0120   30.1430 C.3     1  UNL1        0.0462
      2 C         -24.9730   -2.5050   29.7880 C.2     1  UNL1       -0.0207
      3 C         -23.9060   -3.1730   29.1460 C.2     1  UNL1       -0.0042
      4 C         -23.9890   -4.5490   28.8530 C.2     1  UNL1       -0.0003
      5 C         -25.1370   -5.2800   29.2050 C.2     1  UNL1       -0.0000
      6 C         -26.2320   -4.6110   29.7840 C.2     1  UNL1       -0.0003
      7 C         -26.1550   -3.2320   30.0650 C.2     1  UNL1       -0.0042
      8 C         -25.3870   -0.6790   31.5710 C.3     1  UNL1        0.1042
      9 C         -25.1890    0.7730   32.0280 C.3     1  UNL1        0.1328
     10 C         -25.3360    0.6840   33.5440 C.3     1  UNL1        0.0498
     11 C         -24.8290   -0.7150   33.9050 C.3     1  UNL1        0.0913
     12 N         -24.7580   -1.4810   32.6460 N.3     1  UNL1       -0.2166
     13 C         -25.6880    1.6140   26.4610 C.2     1  UNL1        0.1764
     14 C         -26.2500    2.9200   26.3950 C.2     1  UNL1        0.1105
     15 C         -25.6420    4.0930   27.1230 C.2     1  UNL1        0.2694
     16 N         -25.6140    5.2520   26.4490 N.am    1  UNL1       -0.1996
     17 C         -25.0260    6.4790   26.9630 C.3     1  UNL1        0.1388
     18 O         -25.1430    3.9660   28.2430 O.2     1  UNL1       -0.2682
     19 C         -27.4380    3.0910   25.6450 C.2     1  UNL1        0.1098
     20 N         -28.0750    2.0890   25.0030 N.2     1  UNL1       -0.2079
     21 C         -27.5430    0.8490   25.0790 C.2     1  UNL1        0.2564
     22 O         -28.1930   -0.2080   24.4770 O.2     1  UNL1       -0.4558
     23 C         -29.4600    0.0050   23.8660 C.3     1  UNL1        0.2426
     24 C         -30.0650   -1.3770   23.5730 C.3     1  UNL1        0.2292
     25 O         -30.7290   -1.8780   24.7210 O.3     1  UNL1       -0.2162
     26 C         -26.3540    0.5760   25.7770 C.2     1  UNL1        0.2267
     27 F         -25.8600   -0.6810   25.7950 F       1  UNL1       -0.1960
     28 C         -21.0281    1.8154   27.6176 C.3     1  UNL1        0.0228
     29 C         -24.8977    5.3116   32.6410 C.3     1  UNL1        0.0199
     30 O         -25.8963    1.9634   31.6546 O.3     1  UNL1       -0.3558
     31 C         -25.5117    3.1998   31.5223 C.3     1  UNL1        0.1311
     32 O         -24.5289    1.3717   27.0386 O.2     1  UNL1       -0.4713
     33 C         -27.8150    5.2781   30.2849 C.3     1  UNL1        0.0897
     34 C         -25.9916    6.8215   31.1628 C.3     1  UNL1        0.0722
     35 C         -22.4606    1.3550   27.9078 C.3     1  UNL1        0.1164
     36 N         -26.7937    5.6189   31.2696 N.3     1  UNL1       -0.2706
     37 C         -25.2172    6.7805   32.4790 C.3     1  UNL1        0.0188
     38 C         -24.4796    2.8263   30.9038 C.3     1  UNL1        0.0497
     39 N         -23.2240    1.8417   28.6909 N.3     1  UNL1       -0.2156
     40 C         -26.1036    4.5610   32.0502 C.3     1  UNL1        0.0849
     41 C         -23.8271    2.3514   29.8582 C.3     1  UNL1        0.0913
     42 C         -23.3608    1.4948   26.6119 C.3     1  UNL1        0.2227
@<TRIPOS>BOND
     1     2     7    1
     2     2     1    1
     3     3     2    2
     4     4     3    1
     5     4     5    2
     6     5     6    1
     7     6     7    2
     8     8     1    1
     9     8     9    1
    10     8    12    1
    11     9    30    1
    12     9    10    1
    13    10    11    1
    14    12    11    1
    15    13    32    1
    16    14    13    1
    17    14    15    1
    18    15    18    2
    19    16    17    1
    20    16    15    1
    21    19    14    2
    22    20    21    2
    23    20    19    1
    24    21    26    1
    25    22    21    1
    26    23    22    1
    27    24    23    1
    28    24    25    1
    29    26    27    1
    30    26    13    2
    31    31    38    1
    32    31    30    1
    33    33    36    1
    34    34    36    1
    35    34    37    1
    36    35    28    1
    37    35    39    1
    38    36    40    1
    39    37    29    1
    40    39    41    1
    41    40    31    1
    42    40    29    1
    43    41    38    1
    44    42    32    1
    45    42    35    1
