@<TRIPOS>MOLECULE
outputs/IAG933/test6/raw/output_7669_IAG933_linker_design_.xyz
 42 45 0 0 0
SMALL
GASTEIGER

@<TRIPOS>ATOM
      1 C         -24.8550   -1.0120   30.1430 C.3     1  UNL1        0.0741
      2 C         -24.9730   -2.5050   29.7880 C.2     1  UNL1       -0.0158
      3 C         -23.9060   -3.1730   29.1460 C.2     1  UNL1       -0.0039
      4 C         -23.9890   -4.5490   28.8530 C.2     1  UNL1       -0.0003
      5 C         -25.1370   -5.2800   29.2050 C.2     1  UNL1       -0.0000
      6 C         -26.2320   -4.6110   29.7840 C.2     1  UNL1       -0.0003
      7 C         -26.1550   -3.2320   30.0650 C.2     1  UNL1       -0.0039
      8 C         -25.3870   -0.6790   31.5710 C.3     1  UNL1        0.0821
      9 C         -25.1890    0.7730   32.0280 C.3     1  UNL1        0.0196
     10 C         -25.3360    0.6840   33.5440 C.3     1  UNL1        0.0203
     11 C         -24.8290   -0.7150   33.9050 C.3     1  UNL1        0.0887
     12 N         -24.7580   -1.4810   32.6460 N.3     1  UNL1       -0.2188
     13 C         -25.6880    1.6140   26.4610 C.2     1  UNL1        0.0411
     14 C         -26.2500    2.9200   26.3950 C.2     1  UNL1        0.0745
     15 C         -25.6420    4.0930   27.1230 C.2     1  UNL1        0.2662
     16 N         -25.6140    5.2520   26.4490 N.am    1  UNL1       -0.1997
     17 C         -25.0260    6.4790   26.9630 C.3     1  UNL1        0.1388
     18 O         -25.1430    3.9660   28.2430 O.2     1  UNL1       -0.2683
     19 C         -27.4380    3.0910   25.6450 C.2     1  UNL1        0.1065
     20 N         -28.0750    2.0890   25.0030 N.2     1  UNL1       -0.2081
     21 C         -27.5430    0.8490   25.0790 C.2     1  UNL1        0.2530
     22 O         -28.1930   -0.2080   24.4770 O.2     1  UNL1       -0.4558
     23 C         -29.4600    0.0050   23.8660 C.3     1  UNL1        0.2426
     24 C         -30.0650   -1.3770   23.5730 C.3     1  UNL1        0.2292
     25 O         -30.7290   -1.8780   24.7210 O.3     1  UNL1       -0.2162
     26 C         -26.3540    0.5760   25.7770 C.2     1  UNL1        0.1911
     27 F         -25.8600   -0.6810   25.7950 F       1  UNL1       -0.1995
     28 C         -24.4466    1.2499   27.4558 C.3     1  UNL1        0.1587
     29 C         -22.9139    2.6409   25.1415 C.3     1  UNL1        0.2522
     30 O         -20.8811    1.0104   28.1270 O.2     1  UNL1       -0.2836
     31 C         -29.5392   -1.0080   29.1448 C.2     1  UNL1        0.3877
     32 C         -26.2709    0.6083   28.7799 C.3     1  UNL1        0.1180
     33 N         -24.8146    0.6346   28.6334 N.pl3   1  UNL1       -0.2981
     34 O         -22.2697    1.9562   26.2052 O.2     1  UNL1       -0.4705
     35 C         -27.3848    0.2614   28.9202 C.2     1  UNL1        0.0020
     36 C         -28.1748   -0.8845   29.4289 C.2     1  UNL1        0.0833
     37 C         -22.8723    1.3915   27.2604 C.2     1  UNL1        0.1770
     38 C         -22.1529    0.7521   28.3033 C.2     1  UNL1        0.2280
     39 O         -29.9709   -0.6074   28.0743 O.co2   1  UNL1       -0.2406
     40 C         -24.1293   -0.0436   29.3230 C.2     1  UNL1        0.0340
     41 O         -30.2833   -1.6626   29.9900 O.co2   1  UNL1       -0.2406
     42 C         -22.6500   -0.0217   29.2366 C.2     1  UNL1        0.0554
@<TRIPOS>BOND
     1     1    40    1
     2     2     7    1
     3     2     1    1
     4     3     2    2
     5     4     3    1
     6     4     5    2
     7     5     6    1
     8     6     7    2
     9     8     1    1
    10     8     9    1
    11     8    12    1
    12     9    10    1
    13    10    11    1
    14    12    11    1
    15    14    13    1
    16    14    15    1
    17    15    18    2
    18    16    17    1
    19    16    15    1
    20    19    14    2
    21    20    21    2
    22    20    19    1
    23    21    26    1
    24    22    21    1
    25    23    22    1
    26    24    23    1
    27    24    25    1
    28    26    27    1
    29    26    13    2
    30    28    13    1
    31    28    33    1
    32    29    34    1
    33    30    38    1
    34    31    36    1
    35    31    41   ar
    36    32    35    1
    37    33    32    1
    38    33    40    1
    39    34    37    1
    40    35    36    2
    41    37    28    1
    42    37    38    2
    43    38    42    1
    44    39    31   ar
    45    42    40    2
