@<TRIPOS>MOLECULE
outputs/IAG933/test6/raw/output_767_IAG933_linker_design_.xyz
 45 49 0 0 0
SMALL
GASTEIGER

@<TRIPOS>ATOM
      1 C         -24.8550   -1.0120   30.1430 C.3     1  UNL1        0.1128
      2 C         -24.9730   -2.5050   29.7880 C.2     1  UNL1       -0.0030
      3 C         -23.9060   -3.1730   29.1460 C.2     1  UNL1       -0.0026
      4 C         -23.9890   -4.5490   28.8530 C.2     1  UNL1       -0.0003
      5 C         -25.1370   -5.2800   29.2050 C.2     1  UNL1       -0.0000
      6 C         -26.2320   -4.6110   29.7840 C.2     1  UNL1       -0.0003
      7 C         -26.1550   -3.2320   30.0650 C.2     1  UNL1       -0.0026
      8 C         -25.3870   -0.6790   31.5710 C.3     1  UNL1        0.0951
      9 C         -25.1890    0.7730   32.0280 C.3     1  UNL1        0.0209
     10 C         -25.3360    0.6840   33.5440 C.3     1  UNL1        0.0203
     11 C         -24.8290   -0.7150   33.9050 C.3     1  UNL1        0.0888
     12 N         -24.7580   -1.4810   32.6460 N.3     1  UNL1       -0.2174
     13 C         -25.6880    1.6140   26.4610 C.2     1  UNL1        0.0379
     14 C         -26.2500    2.9200   26.3950 C.2     1  UNL1        0.0764
     15 C         -25.6420    4.0930   27.1230 C.2     1  UNL1        0.2664
     16 N         -25.6140    5.2520   26.4490 N.am    1  UNL1       -0.1997
     17 C         -25.0260    6.4790   26.9630 C.3     1  UNL1        0.1388
     18 O         -25.1430    3.9660   28.2430 O.2     1  UNL1       -0.2683
     19 C         -27.4380    3.0910   25.6450 C.2     1  UNL1        0.1067
     20 N         -28.0750    2.0890   25.0030 N.2     1  UNL1       -0.2081
     21 C         -27.5430    0.8490   25.0790 C.2     1  UNL1        0.2533
     22 O         -28.1930   -0.2080   24.4770 O.2     1  UNL1       -0.4558
     23 C         -29.4600    0.0050   23.8660 C.3     1  UNL1        0.2426
     24 C         -30.0650   -1.3770   23.5730 C.3     1  UNL1        0.2292
     25 O         -30.7290   -1.8780   24.7210 O.3     1  UNL1       -0.2162
     26 C         -26.3540    0.5760   25.7770 C.2     1  UNL1        0.1929
     27 F         -25.8600   -0.6810   25.7950 F       1  UNL1       -0.1992
     28 C         -24.8716    0.5344   28.4494 C.3     1  UNL1        0.1725
     29 F         -21.1297    1.8376   27.4106 F       1  UNL1       -0.2019
     30 C         -23.4244    1.6684   26.8748 C.2     1  UNL1        0.0853
     31 CL        -23.0206    2.6811   25.4952 Cl      1  UNL1       -0.0801
     32 C         -31.7360    1.9611   28.8505 C.3     1  UNL1        0.2084
     33 O         -30.4746    2.6727   28.5743 O.3     1  UNL1       -0.4485
     34 N         -26.2134    0.3428   29.0456 N.3     1  UNL1       -0.1956
     35 N         -23.7217    0.0225   29.0070 N.pl3   1  UNL1       -0.2855
     36 C         -29.2896   -0.2344   27.8444 C.3     1  UNL1        0.0127
     37 C         -31.6450    0.4327   28.6022 C.3     1  UNL1        0.0475
     38 C         -28.9269    0.8414   28.8909 C.3     1  UNL1        0.1164
     39 C         -24.7043    1.2686   27.2546 C.2     1  UNL1        0.0277
     40 O         -28.0682    2.5245   30.5263 O.2     1  UNL1       -0.2501
     41 C         -22.3935    0.3911   28.7310 C.2     1  UNL1        0.0937
     42 C         -29.3375    2.2313   29.5416 C.2     1  UNL1        0.3179
     43 C         -30.7770   -0.0772   27.4649 C.3     1  UNL1        0.0044
     44 C         -27.6488    0.0032   29.6238 C.3     1  UNL1        0.1019
     45 C         -22.3493    1.2857   27.6841 C.2     1  UNL1        0.1649
@<TRIPOS>BOND
     1     1     2    1
     2     2     7    1
     3     3     2    2
     4     4     3    1
     5     4     5    2
     6     5     6    1
     7     6     7    2
     8     8     1    1
     9     8     9    1
    10     8    12    1
    11     9    10    1
    12    10    11    1
    13    12    11    1
    14    13    39    1
    15    14    13    1
    16    14    15    1
    17    15    18    2
    18    16    17    1
    19    16    15    1
    20    19    14    2
    21    20    21    2
    22    20    19    1
    23    21    26    1
    24    22    21    1
    25    23    22    1
    26    24    23    1
    27    24    25    1
    28    26    27    1
    29    26    13    2
    30    28    35    1
    31    28    34    1
    32    29    45    1
    33    30    39    2
    34    30    45    1
    35    31    30    1
    36    33    32    1
    37    33    42    1
    38    34    44    1
    39    35     1    1
    40    36    38    1
    41    37    32    1
    42    38    42    1
    43    38    44    1
    44    39    28    1
    45    41    35    1
    46    42    40    2
    47    43    36    1
    48    43    37    1
    49    45    41    2
