@<TRIPOS>MOLECULE
outputs/IAG933/test6/raw/output_7671_IAG933_linker_design_.xyz
 40 43 0 0 0
SMALL
GASTEIGER

@<TRIPOS>ATOM
      1 C         -24.8550   -1.0120   30.1430 C.3     1  UNL1        0.0692
      2 C         -24.9730   -2.5050   29.7880 C.2     1  UNL1       -0.0189
      3 C         -23.9060   -3.1730   29.1460 C.2     1  UNL1       -0.0042
      4 C         -23.9890   -4.5490   28.8530 C.2     1  UNL1       -0.0003
      5 C         -25.1370   -5.2800   29.2050 C.2     1  UNL1       -0.0000
      6 C         -26.2320   -4.6110   29.7840 C.2     1  UNL1       -0.0003
      7 C         -26.1550   -3.2320   30.0650 C.2     1  UNL1       -0.0042
      8 C         -25.3870   -0.6790   31.5710 C.3     1  UNL1        0.0790
      9 C         -25.1890    0.7730   32.0280 C.3     1  UNL1        0.0193
     10 C         -25.3360    0.6840   33.5440 C.3     1  UNL1        0.0202
     11 C         -24.8290   -0.7150   33.9050 C.3     1  UNL1        0.0887
     12 N         -24.7580   -1.4810   32.6460 N.3     1  UNL1       -0.2191
     13 C         -25.6880    1.6140   26.4610 C.3     1  UNL1        0.0967
     14 C         -26.2500    2.9200   26.3950 C.2     1  UNL1        0.0590
     15 C         -25.6420    4.0930   27.1230 C.2     1  UNL1        0.2628
     16 N         -25.6140    5.2520   26.4490 N.am    1  UNL1       -0.2000
     17 C         -25.0260    6.4790   26.9630 C.3     1  UNL1        0.1388
     18 O         -25.1430    3.9660   28.2430 O.2     1  UNL1       -0.2686
     19 C         -27.4380    3.0910   25.6450 C.2     1  UNL1        0.1025
     20 N         -28.0750    2.0890   25.0030 N.2     1  UNL1       -0.2118
     21 C         -27.5430    0.8490   25.0790 C.2     1  UNL1        0.2344
     22 O         -28.1930   -0.2080   24.4770 O.2     1  UNL1       -0.4585
     23 C         -29.4600    0.0050   23.8660 C.3     1  UNL1        0.2423
     24 C         -30.0650   -1.3770   23.5730 C.3     1  UNL1        0.2292
     25 O         -30.7290   -1.8780   24.7210 O.3     1  UNL1       -0.2162
     26 C         -26.3540    0.5760   25.7770 C.3     1  UNL1        0.2441
     27 F         -25.8600   -0.6810   25.7950 F       1  UNL1       -0.2265
     28 F         -20.4682    1.3141   27.5937 F       1  UNL1       -0.1806
     29 C         -21.7988    1.3924   27.3067 C.3     1  UNL1        0.3801
     30 F         -22.3629    0.0594   29.1644 F       1  UNL1       -0.2007
     31 O         -27.7568    0.8565   29.5960 O.co2   1  UNL1       -0.2437
     32 C         -27.2286   -0.1100   29.0593 C.2     1  UNL1        0.3845
     33 C         -23.4492    1.9993   25.7832 C.2     1  UNL1        0.1731
     34 O         -22.1430    1.9589   26.1241 O.2     1  UNL1       -0.4416
     35 C         -24.3875    1.5915   26.7373 C.2     1  UNL1        0.0390
     36 C         -24.0973    1.1714   27.9944 C.2     1  UNL1        0.0949
     37 OXT       -27.8146   -0.9953   28.4702 O.co2   1  UNL1       -0.2437
     38 N         -25.0206    1.0978   28.9965 N.pl3   1  UNL1       -0.2256
     39 C         -22.7426    0.8752   28.1817 C.2     1  UNL1        0.2064
     40 CA        -25.6914   -0.1997   29.1243 C.3     1  UNL1        0.2002
@<TRIPOS>BOND
     1     1    40    1
     2     2     7    1
     3     2     1    1
     4     3     2    2
     5     4     3    1
     6     4     5    2
     7     5     6    1
     8     6     7    2
     9     8     1    1
    10     8     9    1
    11     8    12    1
    12     9    10    1
    13    10    11    1
    14    12    11    1
    15    13    35    1
    16    14    13    1
    17    14    15    1
    18    15    18    2
    19    16    17    1
    20    16    15    1
    21    19    14    2
    22    20    21    2
    23    20    19    1
    24    21    26    1
    25    22    21    1
    26    23    22    1
    27    24    23    1
    28    24    25    1
    29    26    27    1
    30    26    13    1
    31    29    28    1
    32    29    39    1
    33    32    40    1
    34    32    31   ar
    35    33    34    1
    36    33    35    2
    37    34    29    1
    38    35    36    1
    39    36    39    2
    40    36    38    1
    41    37    32   ar
    42    39    30    1
    43    40    38    1
