@<TRIPOS>MOLECULE
outputs/IAG933/test6/raw/output_7674_IAG933_linker_design_.xyz
 44 48 0 0 0
SMALL
GASTEIGER

@<TRIPOS>ATOM
      1 C         -24.8550   -1.0120   30.1430 C.3     1  UNL1        0.0761
      2 C         -24.9730   -2.5050   29.7880 C.2     1  UNL1       -0.0178
      3 C         -23.9060   -3.1730   29.1460 C.2     1  UNL1       -0.0041
      4 C         -23.9890   -4.5490   28.8530 C.2     1  UNL1       -0.0003
      5 C         -25.1370   -5.2800   29.2050 C.2     1  UNL1       -0.0000
      6 C         -26.2320   -4.6110   29.7840 C.2     1  UNL1       -0.0003
      7 C         -26.1550   -3.2320   30.0650 C.2     1  UNL1       -0.0041
      8 C         -25.3870   -0.6790   31.5710 C.3     1  UNL1        0.0801
      9 C         -25.1890    0.7730   32.0280 C.3     1  UNL1        0.0193
     10 C         -25.3360    0.6840   33.5440 C.3     1  UNL1        0.0202
     11 C         -24.8290   -0.7150   33.9050 C.3     1  UNL1        0.0887
     12 N         -24.7580   -1.4810   32.6460 N.3     1  UNL1       -0.2190
     13 C         -25.6880    1.6140   26.4610 C.2     1  UNL1        0.0526
     14 C         -26.2500    2.9200   26.3950 C.2     1  UNL1        0.0778
     15 C         -25.6420    4.0930   27.1230 C.2     1  UNL1        0.2665
     16 N         -25.6140    5.2520   26.4490 N.am    1  UNL1       -0.1997
     17 C         -25.0260    6.4790   26.9630 C.3     1  UNL1        0.1388
     18 O         -25.1430    3.9660   28.2430 O.2     1  UNL1       -0.2683
     19 C         -27.4380    3.0910   25.6450 C.2     1  UNL1        0.1068
     20 N         -28.0750    2.0890   25.0030 N.2     1  UNL1       -0.2081
     21 C         -27.5430    0.8490   25.0790 C.2     1  UNL1        0.2533
     22 O         -28.1930   -0.2080   24.4770 O.2     1  UNL1       -0.4558
     23 C         -29.4600    0.0050   23.8660 C.3     1  UNL1        0.2426
     24 C         -30.0650   -1.3770   23.5730 C.3     1  UNL1        0.2292
     25 O         -30.7290   -1.8780   24.7210 O.3     1  UNL1       -0.2162
     26 C         -26.3540    0.5760   25.7770 C.2     1  UNL1        0.1943
     27 F         -25.8600   -0.6810   25.7950 F       1  UNL1       -0.1992
     28 C         -24.5112    1.3244   27.1634 C.2     1  UNL1        0.0682
     29 N         -26.7115    0.4634   28.8590 N.am    1  UNL1       -0.2633
     30 C         -28.9326    0.3578   28.4283 C.3     1  UNL1        0.1003
     31 O         -27.8680   -1.4830   29.1598 O.2     1  UNL1       -0.2748
     32 C         -22.3565    1.2327   27.5961 C.2     1  UNL1        0.1666
     33 C         -25.3471    0.0517   29.0775 C.3     1  UNL1        0.1614
     34 C         -27.7725   -0.3255   28.7545 C.2     1  UNL1        0.2278
     35 C         -27.1489    1.8710   29.2607 C.3     1  UNL1        0.1086
     36 N         -24.3342    0.6484   28.4135 N.pl3   1  UNL1       -0.2678
     37 C         -28.6990    1.7165   29.4695 C.3     1  UNL1        0.1062
     38 C         -28.8741    2.3427   31.0752 C.3     1  UNL1        0.1949
     39 S         -30.4560    2.2055   28.9203 S.3     1  UNL1       -0.0790
     40 C         -23.3294    1.7342   26.7300 C.2     1  UNL1        0.1000
     41 C         -22.9718    0.5821   28.6385 C.2     1  UNL1        0.0975
     42 CL        -22.9193    2.4604   25.2829 Cl      1  UNL1       -0.0785
     43 F         -21.0464    1.5816   27.3827 F       1  UNL1       -0.2019
     44 O         -29.6207    3.5546   31.2654 O.3     1  UNL1       -0.2194
@<TRIPOS>BOND
     1     1    33    1
     2     2     7    1
     3     2     1    1
     4     3     2    2
     5     4     3    1
     6     4     5    2
     7     5     6    1
     8     6     7    2
     9     8     1    1
    10     8     9    1
    11     8    12    1
    12     9    10    1
    13    10    11    1
    14    12    11    1
    15    13    28    1
    16    14    13    1
    17    14    15    1
    18    15    18    2
    19    16    17    1
    20    16    15    1
    21    19    14    2
    22    20    21    2
    23    20    19    1
    24    21    26    1
    25    22    21    1
    26    23    22    1
    27    24    23    1
    28    24    25    1
    29    26    27    1
    30    26    13    2
    31    28    36    1
    32    29    33    1
    33    29    35    1
    34    30    34    1
    35    30    37    1
    36    32    41    2
    37    33    36    1
    38    34    29   am
    39    34    31    2
    40    35    37    1
    41    36    41    1
    42    37    39    1
    43    37    38    1
    44    38    44    1
    45    40    28    2
    46    40    32    1
    47    42    40    1
    48    43    32    1
