@<TRIPOS>MOLECULE
outputs/IAG933/test6/raw/output_7675_IAG933_linker_design_.xyz
 45 48 0 0 0
SMALL
GASTEIGER

@<TRIPOS>ATOM
      1 C         -24.8550   -1.0120   30.1430 C.3     1  UNL1        0.0616
      2 C         -24.9730   -2.5050   29.7880 C.2     1  UNL1       -0.0194
      3 C         -23.9060   -3.1730   29.1460 C.2     1  UNL1       -0.0042
      4 C         -23.9890   -4.5490   28.8530 C.2     1  UNL1       -0.0003
      5 C         -25.1370   -5.2800   29.2050 C.2     1  UNL1       -0.0000
      6 C         -26.2320   -4.6110   29.7840 C.2     1  UNL1       -0.0003
      7 C         -26.1550   -3.2320   30.0650 C.2     1  UNL1       -0.0042
      8 C         -25.3870   -0.6790   31.5710 C.3     1  UNL1        0.0786
      9 C         -25.1890    0.7730   32.0280 C.3     1  UNL1        0.0193
     10 C         -25.3360    0.6840   33.5440 C.3     1  UNL1        0.0202
     11 C         -24.8290   -0.7150   33.9050 C.3     1  UNL1        0.0887
     12 N         -24.7580   -1.4810   32.6460 N.3     1  UNL1       -0.2191
     13 C         -25.6880    1.6140   26.4610 C.2     1  UNL1        0.0384
     14 C         -26.2500    2.9200   26.3950 C.2     1  UNL1        0.0764
     15 C         -25.6420    4.0930   27.1230 C.2     1  UNL1        0.2664
     16 N         -25.6140    5.2520   26.4490 N.am    1  UNL1       -0.1997
     17 C         -25.0260    6.4790   26.9630 C.3     1  UNL1        0.1388
     18 O         -25.1430    3.9660   28.2430 O.2     1  UNL1       -0.2683
     19 C         -27.4380    3.0910   25.6450 C.2     1  UNL1        0.1067
     20 N         -28.0750    2.0890   25.0030 N.2     1  UNL1       -0.2081
     21 C         -27.5430    0.8490   25.0790 C.2     1  UNL1        0.2533
     22 O         -28.1930   -0.2080   24.4770 O.2     1  UNL1       -0.4558
     23 C         -29.4600    0.0050   23.8660 C.3     1  UNL1        0.2426
     24 C         -30.0650   -1.3770   23.5730 C.3     1  UNL1        0.2292
     25 O         -30.7290   -1.8780   24.7210 O.3     1  UNL1       -0.2162
     26 C         -26.3540    0.5760   25.7770 C.2     1  UNL1        0.1929
     27 F         -25.8600   -0.6810   25.7950 F       1  UNL1       -0.1992
     28 CL        -22.5527    2.4504   25.5623 Cl      1  UNL1       -0.0980
     29 N         -26.9347   -0.4757   28.9615 N.3     1  UNL1       -0.2110
     30 C         -30.0944    1.3696   28.9919 C.2     1  UNL1        0.1807
     31 O         -30.9910   -0.8624   26.9140 O.co2   1  UNL1       -0.2404
     32 C         -29.2479    0.2891   29.5483 C.3     1  UNL1        0.0795
     33 O         -21.0907    0.9137   27.8543 O.2     1  UNL1       -0.2480
     34 C         -25.4867   -0.0384   29.1398 C.3     1  UNL1        0.1348
     35 O         -30.0276    2.5567   29.5943 O.2     1  UNL1       -0.2911
     36 C         -28.4786   -0.5591   28.5827 C.3     1  UNL1        0.0968
     37 C         -24.4604    1.2844   27.1960 C.2     1  UNL1        0.0376
     38 C         -30.9768    1.2331   27.9098 C.2     1  UNL1        0.1235
     39 C         -22.3314    0.9667   27.8175 C.2     1  UNL1        0.3405
     40 C         -29.2974   -0.1955   30.9353 C.3     1  UNL1        0.0096
     41 C         -31.5163    0.2921   26.9585 C.2     1  UNL1        0.3908
     42 O         -32.2951    0.7190   26.0838 O.co2   1  UNL1       -0.2404
     43 C         -24.5005    0.6024   28.3852 C.2     1  UNL1        0.1397
     44 O         -23.2757    0.4426   28.8764 O.3     1  UNL1       -0.4263
     45 C         -23.1372    1.5855   26.8267 C.3     1  UNL1        0.2034
@<TRIPOS>BOND
     1     1    34    1
     2     2     7    1
     3     2     1    1
     4     3     2    2
     5     4     3    1
     6     4     5    2
     7     5     6    1
     8     6     7    2
     9     8     1    1
    10     8     9    1
    11     8    12    1
    12     9    10    1
    13    10    11    1
    14    12    11    1
    15    13    37    1
    16    14    13    1
    17    14    15    1
    18    15    18    2
    19    16    17    1
    20    16    15    1
    21    19    14    2
    22    20    21    2
    23    20    19    1
    24    21    26    1
    25    22    21    1
    26    23    22    1
    27    24    23    1
    28    24    25    1
    29    26    27    1
    30    26    13    2
    31    30    32    1
    32    30    35    1
    33    31    41   ar
    34    32    40    1
    35    34    29    1
    36    36    29    1
    37    36    32    1
    38    37    43    2
    39    38    30    2
    40    39    33    2
    41    39    44    1
    42    41    38    1
    43    42    41   ar
    44    43    44    1
    45    43    34    1
    46    45    28    1
    47    45    37    1
    48    45    39    1
