@<TRIPOS>MOLECULE
outputs/IAG933/test6/raw/output_7678_IAG933_linker_design_.xyz
 41 45 0 0 0
SMALL
GASTEIGER

@<TRIPOS>ATOM
      1 C         -24.8550   -1.0120   30.1430 C.3     1  UNL1        0.0980
      2 C         -24.9730   -2.5050   29.7880 C.2     1  UNL1       -0.0141
      3 C         -23.9060   -3.1730   29.1460 C.2     1  UNL1       -0.0038
      4 C         -23.9890   -4.5490   28.8530 C.2     1  UNL1       -0.0003
      5 C         -25.1370   -5.2800   29.2050 C.2     1  UNL1       -0.0000
      6 C         -26.2320   -4.6110   29.7840 C.2     1  UNL1       -0.0003
      7 C         -26.1550   -3.2320   30.0650 C.2     1  UNL1       -0.0038
      8 C         -25.3870   -0.6790   31.5710 C.3     1  UNL1        0.0838
      9 C         -25.1890    0.7730   32.0280 C.3     1  UNL1        0.0196
     10 C         -25.3360    0.6840   33.5440 C.3     1  UNL1        0.0203
     11 C         -24.8290   -0.7150   33.9050 C.3     1  UNL1        0.0887
     12 N         -24.7580   -1.4810   32.6460 N.3     1  UNL1       -0.2187
     13 C         -25.6880    1.6140   26.4610 C.2     1  UNL1        0.0907
     14 C         -26.2500    2.9200   26.3950 C.2     1  UNL1        0.0902
     15 C         -25.6420    4.0930   27.1230 C.2     1  UNL1        0.2676
     16 N         -25.6140    5.2520   26.4490 N.am    1  UNL1       -0.1997
     17 C         -25.0260    6.4790   26.9630 C.3     1  UNL1        0.1388
     18 O         -25.1430    3.9660   28.2430 O.2     1  UNL1       -0.2683
     19 C         -27.4380    3.0910   25.6450 C.2     1  UNL1        0.1080
     20 N         -28.0750    2.0890   25.0030 N.2     1  UNL1       -0.2080
     21 C         -27.5430    0.8490   25.0790 C.2     1  UNL1        0.2546
     22 O         -28.1930   -0.2080   24.4770 O.2     1  UNL1       -0.4558
     23 C         -29.4600    0.0050   23.8660 C.3     1  UNL1        0.2426
     24 C         -30.0650   -1.3770   23.5730 C.3     1  UNL1        0.2292
     25 O         -30.7290   -1.8780   24.7210 O.3     1  UNL1       -0.2162
     26 C         -26.3540    0.5760   25.7770 C.2     1  UNL1        0.2066
     27 F         -25.8600   -0.6810   25.7950 F       1  UNL1       -0.1979
     28 C         -23.5550    1.7994   26.2807 C.2     1  UNL1        0.0931
     29 C         -21.5763    1.5796   27.0527 C.2     1  UNL1        0.1261
     30 O         -26.8686    0.1025   29.1168 O.2     1  UNL1       -0.2934
     31 C         -21.2106    0.1893   28.8479 C.3     1  UNL1        0.1232
     32 C         -20.4458    1.1918   27.9838 C.3     1  UNL1        0.0879
     33 C         -25.6260   -0.0644   29.3146 C.2     1  UNL1        0.1828
     34 C         -22.9162    1.3906   27.4344 C.2     1  UNL1        0.0510
     35 N         -22.2605   -0.2561   29.1797 N.am    1  UNL1       -0.2032
     36 N         -24.3746    1.2859   26.8674 N.pl3   1  UNL1       -0.2697
     37 O         -21.5178    1.9620   25.7161 O.2     1  UNL1       -0.4533
     38 O         -22.8891    1.7078   29.9181 O.2     1  UNL1       -0.2711
     39 C         -22.7807    2.2024   25.2635 C.2     1  UNL1        0.1938
     40 C         -24.7649    1.0276   28.6107 C.3     1  UNL1        0.2138
     41 C         -23.3182    0.7056   28.9014 C.2     1  UNL1        0.2671
@<TRIPOS>BOND
     1     1    33    1
     2     2     7    1
     3     2     1    1
     4     3     2    2
     5     4     3    1
     6     4     5    2
     7     5     6    1
     8     6     7    2
     9     8     1    1
    10     8     9    1
    11     8    12    1
    12     9    10    1
    13    10    11    1
    14    12    11    1
    15    13    36    1
    16    14    13    1
    17    14    15    1
    18    15    18    2
    19    16    17    1
    20    16    15    1
    21    19    14    2
    22    20    21    2
    23    20    19    1
    24    21    26    1
    25    22    21    1
    26    23    22    1
    27    24    23    1
    28    24    25    1
    29    26    27    1
    30    26    13    2
    31    28    36    1
    32    28    34    1
    33    29    34    2
    34    29    32    1
    35    30    33    2
    36    31    35    1
    37    32    31    1
    38    36    40    1
    39    37    29    1
    40    39    37    1
    41    39    28    2
    42    40    41    1
    43    40    33    1
    44    41    35    1
    45    41    38    2
