@<TRIPOS>MOLECULE
outputs/IAG933/test6/raw/output_768_IAG933_linker_design_.xyz
 40 43 0 0 0
SMALL
GASTEIGER

@<TRIPOS>ATOM
      1 C         -24.8550   -1.0120   30.1430 C.3     1  UNL1        0.1324
      2 C         -24.9730   -2.5050   29.7880 C.2     1  UNL1       -0.0012
      3 C         -23.9060   -3.1730   29.1460 C.2     1  UNL1       -0.0026
      4 C         -23.9890   -4.5490   28.8530 C.2     1  UNL1       -0.0003
      5 C         -25.1370   -5.2800   29.2050 C.2     1  UNL1       -0.0000
      6 C         -26.2320   -4.6110   29.7840 C.2     1  UNL1       -0.0003
      7 C         -26.1550   -3.2320   30.0650 C.2     1  UNL1       -0.0026
      8 C         -25.3870   -0.6790   31.5710 C.3     1  UNL1        0.0968
      9 C         -25.1890    0.7730   32.0280 C.3     1  UNL1        0.0210
     10 C         -25.3360    0.6840   33.5440 C.3     1  UNL1        0.0203
     11 C         -24.8290   -0.7150   33.9050 C.3     1  UNL1        0.0888
     12 N         -24.7580   -1.4810   32.6460 N.3     1  UNL1       -0.2174
     13 C         -25.6880    1.6140   26.4610 C.2     1  UNL1        0.0465
     14 C         -26.2500    2.9200   26.3950 C.2     1  UNL1        0.0772
     15 C         -25.6420    4.0930   27.1230 C.2     1  UNL1        0.2664
     16 N         -25.6140    5.2520   26.4490 N.am    1  UNL1       -0.1997
     17 C         -25.0260    6.4790   26.9630 C.3     1  UNL1        0.1388
     18 O         -25.1430    3.9660   28.2430 O.2     1  UNL1       -0.2683
     19 C         -27.4380    3.0910   25.6450 C.2     1  UNL1        0.1067
     20 N         -28.0750    2.0890   25.0030 N.2     1  UNL1       -0.2081
     21 C         -27.5430    0.8490   25.0790 C.2     1  UNL1        0.2533
     22 O         -28.1930   -0.2080   24.4770 O.2     1  UNL1       -0.4558
     23 C         -29.4600    0.0050   23.8660 C.3     1  UNL1        0.2426
     24 C         -30.0650   -1.3770   23.5730 C.3     1  UNL1        0.2292
     25 O         -30.7290   -1.8780   24.7210 O.3     1  UNL1       -0.2162
     26 C         -26.3540    0.5760   25.7770 C.2     1  UNL1        0.1937
     27 F         -25.8600   -0.6810   25.7950 F       1  UNL1       -0.1992
     28 CL        -22.5167    2.7187   24.9023 Cl      1  UNL1       -0.0346
     29 C         -21.6692    1.0303   28.3877 C.3     1  UNL1        0.2348
     30 N         -26.4479   -0.4012   28.4508 N.am    1  UNL1       -0.0690
     31 O         -28.5128   -0.3684   27.7206 O.co2   1  UNL1       -0.2190
     32 C         -24.2602    0.6613   28.4332 C.2     1  UNL1        0.0740
     33 O         -28.1203    0.5689   29.6223 O.co2   1  UNL1       -0.2190
     34 C         -24.5946    1.2815   27.3881 C.2     1  UNL1        0.0553
     35 N         -25.3097   -0.1499   29.0044 N.pl3   1  UNL1       -0.2108
     36 C         -27.7028   -0.0074   28.6011 C.2     1  UNL1        0.4807
     37 C         -23.5639    1.4875   27.0662 C.1     1  UNL1       -0.0520
     38 O         -21.6661    1.7875   27.2381 O.2     1  UNL1       -0.4552
     39 C         -22.9038    0.5685   29.0319 C.2     1  UNL1        0.0375
     40 C         -22.6550    2.0381   26.3864 C.2     1  UNL1        0.2353
@<TRIPOS>BOND
     1     1    35    1
     2     2     7    1
     3     2     1    1
     4     3     2    2
     5     4     3    1
     6     4     5    2
     7     5     6    1
     8     6     7    2
     9     8     1    1
    10     8     9    1
    11     8    12    1
    12     9    10    1
    13    10    11    1
    14    12    11    1
    15    13    34    1
    16    14    13    1
    17    14    15    1
    18    15    18    2
    19    16    17    1
    20    16    15    1
    21    19    14    2
    22    20    21    2
    23    20    19    1
    24    21    26    1
    25    22    21    1
    26    23    22    1
    27    24    23    1
    28    24    25    1
    29    26    27    1
    30    26    13    2
    31    28    40    1
    32    29    39    1
    33    30    36    1
    34    30    35    1
    35    31    36   ar
    36    32    35    1
    37    32    39    2
    38    34    32    1
    39    36    33   ar
    40    37    34    2
    41    38    29    1
    42    40    37    2
    43    40    38    1
