@<TRIPOS>MOLECULE
outputs/IAG933/test6/raw/output_7680_IAG933_linker_design_.xyz
 42 45 0 0 0
SMALL
GASTEIGER

@<TRIPOS>ATOM
      1 C         -24.8550   -1.0120   30.1430 C.3     1  UNL1        0.0425
      2 C         -24.9730   -2.5050   29.7880 C.2     1  UNL1       -0.0208
      3 C         -23.9060   -3.1730   29.1460 C.2     1  UNL1       -0.0042
      4 C         -23.9890   -4.5490   28.8530 C.2     1  UNL1       -0.0003
      5 C         -25.1370   -5.2800   29.2050 C.2     1  UNL1       -0.0000
      6 C         -26.2320   -4.6110   29.7840 C.2     1  UNL1       -0.0003
      7 C         -26.1550   -3.2320   30.0650 C.2     1  UNL1       -0.0042
      8 C         -25.3870   -0.6790   31.5710 C.3     1  UNL1        0.0771
      9 C         -25.1890    0.7730   32.0280 C.3     1  UNL1        0.0192
     10 C         -25.3360    0.6840   33.5440 C.3     1  UNL1        0.0202
     11 C         -24.8290   -0.7150   33.9050 C.3     1  UNL1        0.0887
     12 N         -24.7580   -1.4810   32.6460 N.3     1  UNL1       -0.2191
     13 C         -25.6880    1.6140   26.4610 C.2     1  UNL1        0.0431
     14 C         -26.2500    2.9200   26.3950 C.2     1  UNL1        0.0767
     15 C         -25.6420    4.0930   27.1230 C.2     1  UNL1        0.2664
     16 N         -25.6140    5.2520   26.4490 N.am    1  UNL1       -0.1997
     17 C         -25.0260    6.4790   26.9630 C.3     1  UNL1        0.1388
     18 O         -25.1430    3.9660   28.2430 O.2     1  UNL1       -0.2683
     19 C         -27.4380    3.0910   25.6450 C.2     1  UNL1        0.1067
     20 N         -28.0750    2.0890   25.0030 N.2     1  UNL1       -0.2081
     21 C         -27.5430    0.8490   25.0790 C.2     1  UNL1        0.2533
     22 O         -28.1930   -0.2080   24.4770 O.2     1  UNL1       -0.4558
     23 C         -29.4600    0.0050   23.8660 C.3     1  UNL1        0.2426
     24 C         -30.0650   -1.3770   23.5730 C.3     1  UNL1        0.2292
     25 O         -30.7290   -1.8780   24.7210 O.3     1  UNL1       -0.2162
     26 C         -26.3540    0.5760   25.7770 C.2     1  UNL1        0.1932
     27 F         -25.8600   -0.6810   25.7950 F       1  UNL1       -0.1992
     28 C         -29.8848    0.0703   30.5146 C.3     1  UNL1        0.0355
     29 C         -24.4297    1.3516   26.9414 C.2     1  UNL1        0.0649
     30 F         -22.8769    2.2759   25.2316 F       1  UNL1       -0.1632
     31 O         -22.2377    2.1450   27.0477 O.2     1  UNL1       -0.4197
     32 C         -24.2890    0.5656   28.1445 C.2     1  UNL1        0.0244
     33 C         -21.9453    1.2307   27.9289 C.3     1  UNL1        0.3914
     34 O         -29.6731   -0.5169   28.0521 O.3     1  UNL1       -0.2231
     35 C         -27.8828    0.6052   29.2418 C.3     1  UNL1        0.0332
     36 C         -25.3024   -0.0432   29.0490 C.3     1  UNL1        0.0310
     37 C         -29.0629   -0.3606   29.3200 C.3     1  UNL1        0.1521
     38 O         -22.4050   -0.6856   29.1600 O.2     1  UNL1       -0.2848
     39 C         -26.6791    0.0792   28.7566 C.3     1  UNL1        0.0074
     40 C         -22.9080    0.4022   28.4792 C.2     1  UNL1        0.2438
     41 F         -20.6176    1.0781   28.0449 F       1  UNL1       -0.1795
     42 C         -23.3213    1.9526   26.3705 C.2     1  UNL1        0.2852
@<TRIPOS>BOND
     1     1    36    1
     2     2     7    1
     3     2     1    1
     4     3     2    2
     5     4     3    1
     6     4     5    2
     7     5     6    1
     8     6     7    2
     9     8     1    1
    10     8     9    1
    11     8    12    1
    12     9    10    1
    13    10    11    1
    14    12    11    1
    15    13    29    1
    16    14    13    1
    17    14    15    1
    18    15    18    2
    19    16    17    1
    20    16    15    1
    21    19    14    2
    22    20    21    2
    23    20    19    1
    24    21    26    1
    25    22    21    1
    26    23    22    1
    27    24    23    1
    28    24    25    1
    29    26    27    1
    30    26    13    2
    31    29    32    1
    32    30    42    1
    33    31    33    1
    34    32    40    2
    35    32    36    1
    36    33    41    1
    37    33    40    1
    38    34    37    1
    39    35    37    1
    40    36    39    1
    41    37    28    1
    42    39    35    1
    43    40    38    1
    44    42    29    2
    45    42    31    1
