@<TRIPOS>MOLECULE
outputs/IAG933/test6/raw/output_7683_IAG933_linker_design_.xyz
 36 39 0 0 0
SMALL
GASTEIGER

@<TRIPOS>ATOM
      1 C         -24.8550   -1.0120   30.1430 C.3     0  UNK0        0.1476
      2 C         -24.9730   -2.5050   29.7880 C.2     0  UNK0       -0.0095
      3 C         -23.9060   -3.1730   29.1460 C.2     0  UNK0       -0.0037
      4 C         -23.9890   -4.5490   28.8530 C.2     0  UNK0       -0.0003
      5 C         -25.1370   -5.2800   29.2050 C.2     0  UNK0       -0.0000
      6 C         -26.2320   -4.6110   29.7840 C.2     0  UNK0       -0.0003
      7 C         -26.1550   -3.2320   30.0650 C.2     0  UNK0       -0.0037
      8 C         -25.3870   -0.6790   31.5710 C.3     0  UNK0        0.0885
      9 C         -25.1890    0.7730   32.0280 C.3     0  UNK0        0.0198
     10 C         -25.3360    0.6840   33.5440 C.3     0  UNK0        0.0203
     11 C         -24.8290   -0.7150   33.9050 C.3     0  UNK0        0.0887
     12 N         -24.7580   -1.4810   32.6460 N.3     0  UNK0       -0.2185
     13 C         -25.6880    1.6140   26.4610 C.2     1  UNK1        0.0821
     14 C         -26.2500    2.9200   26.3950 C.2     1  UNK1        0.0801
     15 C         -25.6420    4.0930   27.1230 C.2     1  UNK1        0.2665
     16 N         -25.6140    5.2520   26.4490 N.am    1  UNK1       -0.1997
     17 C         -25.0260    6.4790   26.9630 C.3     1  UNK1        0.1388
     18 O         -25.1430    3.9660   28.2430 O.2     1  UNK1       -0.2683
     19 C         -27.4380    3.0910   25.6450 C.2     1  UNK1        0.1068
     20 N         -28.0750    2.0890   25.0030 N.2     1  UNK1       -0.2081
     21 C         -27.5430    0.8490   25.0790 C.2     1  UNK1        0.2534
     22 O         -28.1930   -0.2080   24.4770 O.2     1  UNK1       -0.4558
     23 C         -29.4600    0.0050   23.8660 C.3     1  UNK1        0.2426
     24 C         -30.0650   -1.3770   23.5730 C.3     1  UNK1        0.2292
     25 O         -30.7290   -1.8780   24.7210 O.3     1  UNK1       -0.2162
     26 C         -26.3540    0.5760   25.7770 C.2     1  UNK1        0.1966
     27 F         -25.8600   -0.6810   25.7950 F       1  UNK1       -0.1991
     28 C         -22.5538    1.0830   27.9835 C.3     1  UNK1        0.3113
     29 N         -23.0102    0.2548   29.0525 N.2     1  UNK1       -0.0589
     30 C         -24.7520    1.1075   27.2312 C.2     1  UNK1        0.2242
     31 C         -24.3393   -0.1236   29.1100 C.2     0  UNK0        0.3421
     32 C         -23.5559    1.5023   26.9675 C.2     1  UNK1        0.2649
     33 O         -20.0096    1.5949   28.3492 O.3     1  UNK1       -0.2150
     34 O         -23.2386    2.1713   25.8861 O.2     1  UNK1       -0.2829
     35 C         -21.1519    1.4210   27.6017 C.3     1  UNK1        0.2433
     36 N         -25.1711    0.2626   28.1086 N.pl3   0  UNK0       -0.0066
@<TRIPOS>BOND
     1     1    31    1
     2     2     7    1
     3     2     1    1
     4     3     2    2
     5     4     3    1
     6     4     5    2
     7     5     6    1
     8     6     7    2
     9     8     1    1
    10     8     9    1
    11     8    12    1
    12     9    10    1
    13    10    11    1
    14    12    11    1
    15    13    30    1
    16    14    13    1
    17    14    15    1
    18    15    18    2
    19    16    17    1
    20    16    15    1
    21    19    14    2
    22    20    21    2
    23    20    19    1
    24    21    26    1
    25    22    21    1
    26    23    22    1
    27    24    23    1
    28    24    25    1
    29    26    27    1
    30    26    13    2
    31    28    35    1
    32    28    29    1
    33    29    31    2
    34    30    36    1
    35    32    30    2
    36    32    28    1
    37    34    32    1
    38    35    33    1
    39    36    31    1
