@<TRIPOS>MOLECULE
outputs/IAG933/test6/raw/output_7684_IAG933_linker_design_.xyz
 42 45 0 0 0
SMALL
GASTEIGER

@<TRIPOS>ATOM
      1 C         -24.8550   -1.0120   30.1430 C.3     1  UNL1        0.2031
      2 C         -24.9730   -2.5050   29.7880 C.2     1  UNL1        0.0217
      3 C         -23.9060   -3.1730   29.1460 C.2     1  UNL1       -0.0004
      4 C         -23.9890   -4.5490   28.8530 C.2     1  UNL1       -0.0002
      5 C         -25.1370   -5.2800   29.2050 C.2     1  UNL1       -0.0000
      6 C         -26.2320   -4.6110   29.7840 C.2     1  UNL1       -0.0002
      7 C         -26.1550   -3.2320   30.0650 C.2     1  UNL1       -0.0004
      8 C         -25.3870   -0.6790   31.5710 C.3     1  UNL1        0.1201
      9 C         -25.1890    0.7730   32.0280 C.3     1  UNL1        0.0233
     10 C         -25.3360    0.6840   33.5440 C.3     1  UNL1        0.0204
     11 C         -24.8290   -0.7150   33.9050 C.3     1  UNL1        0.0889
     12 N         -24.7580   -1.4810   32.6460 N.3     1  UNL1       -0.2150
     13 C         -25.6880    1.6140   26.4610 C.3     1  UNL1        0.1026
     14 C         -26.2500    2.9200   26.3950 C.2     1  UNL1        0.0592
     15 C         -25.6420    4.0930   27.1230 C.2     1  UNL1        0.2628
     16 N         -25.6140    5.2520   26.4490 N.am    1  UNL1       -0.2000
     17 C         -25.0260    6.4790   26.9630 C.3     1  UNL1        0.1388
     18 O         -25.1430    3.9660   28.2430 O.2     1  UNL1       -0.2686
     19 C         -27.4380    3.0910   25.6450 C.2     1  UNL1        0.1025
     20 N         -28.0750    2.0890   25.0030 N.2     1  UNL1       -0.2118
     21 C         -27.5430    0.8490   25.0790 C.2     1  UNL1        0.2344
     22 O         -28.1930   -0.2080   24.4770 O.2     1  UNL1       -0.4585
     23 C         -29.4600    0.0050   23.8660 C.3     1  UNL1        0.2423
     24 C         -30.0650   -1.3770   23.5730 C.3     1  UNL1        0.2292
     25 O         -30.7290   -1.8780   24.7210 O.3     1  UNL1       -0.2162
     26 C         -26.3540    0.5760   25.7770 C.3     1  UNL1        0.2444
     27 F         -25.8600   -0.6810   25.7950 F       1  UNL1       -0.2265
     28 N         -24.4173   -0.0059   29.1254 N.pl3   1  UNL1       -0.1667
     29 O         -28.8101   -0.3286   27.7739 O.2     1  UNL1       -0.2429
     30 F         -22.1482    2.2158   25.3164 F       1  UNL1        0.0138
     31 C         -23.6287    1.7489   26.9371 C.2     1  UNL1        0.2061
     32 N         -26.7365    0.0851   28.7998 N.am    1  UNL1        0.0261
     33 C         -28.7480    1.4870   29.3650 C.3     1  UNL1        0.1057
     34 C         -25.3761    0.4644   28.3775 C.2     1  UNL1        0.3215
     35 C         -29.5533    2.5629   28.6348 C.3     1  UNL1        0.0122
     36 C         -22.6916    1.2260   27.9344 C.2     1  UNL1        0.1359
     37 C         -28.1652    0.3722   28.5731 C.2     1  UNL1        0.3515
     38 O         -23.4466    2.2546   25.6664 O.2     1  UNL1       -0.2910
     39 CL        -21.0163    1.6095   27.8043 Cl      1  UNL1       -0.0752
     40 C         -23.1220    0.3708   28.9702 C.2     1  UNL1        0.1905
     41 C         -27.4921    2.3263   29.8219 C.3     1  UNL1        0.0122
     42 C         -24.9113    1.2118   27.3122 C.2     1  UNL1        0.1045
@<TRIPOS>BOND
     1     1     2    1
     2     2     7    1
     3     3     2    2
     4     4     3    1
     5     4     5    2
     6     5     6    1
     7     6     7    2
     8     8     1    1
     9     8     9    1
    10     8    12    1
    11     9    10    1
    12    10    11    1
    13    12    11    1
    14    13    42    1
    15    14    13    1
    16    14    15    1
    17    15    18    2
    18    16    17    1
    19    16    15    1
    20    19    14    2
    21    20    21    2
    22    20    19    1
    23    21    26    1
    24    22    21    1
    25    23    22    1
    26    24    23    1
    27    24    25    1
    28    26    27    1
    29    26    13    1
    30    28     1    1
    31    29    37    2
    32    30    38    1
    33    31    42    2
    34    31    36    1
    35    33    41    1
    36    34    32    2
    37    34    28    1
    38    35    33    1
    39    36    40    2
    40    37    32    1
    41    37    33    1
    42    38    31    1
    43    39    36    1
    44    40    28    1
    45    42    34    1
