@<TRIPOS>MOLECULE
outputs/IAG933/test6/raw/output_7689_IAG933_linker_design_.xyz
 44 48 0 0 0
SMALL
GASTEIGER

@<TRIPOS>ATOM
      1 C         -24.8550   -1.0120   30.1430 C.3     1  UNL1        0.0966
      2 C         -24.9730   -2.5050   29.7880 C.2     1  UNL1       -0.0064
      3 C         -23.9060   -3.1730   29.1460 C.2     1  UNL1       -0.0029
      4 C         -23.9890   -4.5490   28.8530 C.2     1  UNL1       -0.0003
      5 C         -25.1370   -5.2800   29.2050 C.2     1  UNL1       -0.0000
      6 C         -26.2320   -4.6110   29.7840 C.2     1  UNL1       -0.0003
      7 C         -26.1550   -3.2320   30.0650 C.2     1  UNL1       -0.0029
      8 C         -25.3870   -0.6790   31.5710 C.3     1  UNL1        0.0916
      9 C         -25.1890    0.7730   32.0280 C.3     1  UNL1        0.0206
     10 C         -25.3360    0.6840   33.5440 C.3     1  UNL1        0.0203
     11 C         -24.8290   -0.7150   33.9050 C.3     1  UNL1        0.0888
     12 N         -24.7580   -1.4810   32.6460 N.3     1  UNL1       -0.2178
     13 C         -25.6880    1.6140   26.4610 C.3     1  UNL1        0.0759
     14 C         -26.2500    2.9200   26.3950 C.2     1  UNL1        0.0552
     15 C         -25.6420    4.0930   27.1230 C.2     1  UNL1        0.2625
     16 N         -25.6140    5.2520   26.4490 N.am    1  UNL1       -0.2000
     17 C         -25.0260    6.4790   26.9630 C.3     1  UNL1        0.1388
     18 O         -25.1430    3.9660   28.2430 O.2     1  UNL1       -0.2687
     19 C         -27.4380    3.0910   25.6450 C.2     1  UNL1        0.1021
     20 N         -28.0750    2.0890   25.0030 N.2     1  UNL1       -0.2119
     21 C         -27.5430    0.8490   25.0790 C.2     1  UNL1        0.2341
     22 O         -28.1930   -0.2080   24.4770 O.2     1  UNL1       -0.4585
     23 C         -29.4600    0.0050   23.8660 C.3     1  UNL1        0.2423
     24 C         -30.0650   -1.3770   23.5730 C.3     1  UNL1        0.2292
     25 O         -30.7290   -1.8780   24.7210 O.3     1  UNL1       -0.2162
     26 C         -26.3540    0.5760   25.7770 C.3     1  UNL1        0.2404
     27 F         -25.8600   -0.6810   25.7950 F       1  UNL1       -0.2269
     28 C         -26.1266    4.7649   31.2643 C.3     1  UNL1        0.1746
     29 C         -23.2911    0.2683   29.6185 C.3     1  UNL1        0.0854
     30 C         -24.9667    1.2034   27.5513 C.3     1  UNL1        0.0565
     31 C         -26.8915    0.7142   28.8746 C.2     1  UNL1        0.2219
     32 C         -25.4954    0.7281   28.6552 C.3     1  UNL1        0.1323
     33 C         -23.6387    1.3157   27.5684 C.2     1  UNL1        0.0571
     34 O         -27.6135    4.8747   31.1555 O.3     1  UNL1       -0.3457
     35 N         -21.5434    1.9162   27.0053 N.2     1  UNL1       -0.0338
     36 C         -22.8725    2.0532   26.6703 C.2     1  UNL1        0.4077
     37 O         -27.5326   -0.3338   28.7899 O.2     1  UNL1       -0.2815
     38 C         -22.7822    0.8356   28.5660 C.3     1  UNL1        0.1112
     39 C         -28.0441    2.9842   29.8068 C.2     1  UNL1        0.0500
     40 C         -21.4134    1.0841   28.1263 C.2     1  UNL1        0.2144
     41 N         -23.3534    2.8304   25.6317 N.pl3   1  UNL1        0.2156
     42 N         -24.7106   -0.0453   29.2851 N.3     1  UNL1       -0.2626
     43 C         -28.3180    3.6304   31.0241 C.3     1  UNL1        0.1767
     44 C         -27.6898    1.8956   29.3396 C.1     1  UNL1       -0.0652
@<TRIPOS>BOND
     1     1     2    1
     2     2     7    1
     3     3     2    2
     4     4     3    1
     5     4     5    2
     6     5     6    1
     7     6     7    2
     8     8     1    1
     9     8     9    1
    10     8    12    1
    11     9    10    1
    12    10    11    1
    13    12    11    1
    14    13    14    1
    15    13    30    1
    16    14    15    1
    17    15    18    2
    18    16    17    1
    19    16    15    1
    20    19    14    2
    21    20    21    2
    22    20    19    1
    23    21    26    1
    24    22    21    1
    25    23    22    1
    26    24    23    1
    27    24    25    1
    28    26    27    1
    29    26    13    1
    30    30    33    1
    31    30    32    1
    32    31    44    2
    33    32    31    1
    34    32    42    1
    35    33    38    1
    36    34    28    1
    37    35    40    2
    38    36    35    1
    39    36    33    2
    40    37    31    1
    41    38    40    1
    42    38    29    1
    43    39    43    1
    44    41    36    1
    45    42    29    1
    46    42     1    1
    47    43    34    1
    48    44    39    2
