@<TRIPOS>MOLECULE
outputs/IAG933/test6/raw/output_769_IAG933_linker_design_.xyz
 45 48 0 0 0
SMALL
GASTEIGER

@<TRIPOS>ATOM
      1 C         -24.8550   -1.0120   30.1430 C.3     1  UNL1        0.0567
      2 C         -24.9730   -2.5050   29.7880 C.2     1  UNL1       -0.0195
      3 C         -23.9060   -3.1730   29.1460 C.2     1  UNL1       -0.0042
      4 C         -23.9890   -4.5490   28.8530 C.2     1  UNL1       -0.0003
      5 C         -25.1370   -5.2800   29.2050 C.2     1  UNL1       -0.0000
      6 C         -26.2320   -4.6110   29.7840 C.2     1  UNL1       -0.0003
      7 C         -26.1550   -3.2320   30.0650 C.2     1  UNL1       -0.0042
      8 C         -25.3870   -0.6790   31.5710 C.3     1  UNL1        0.0784
      9 C         -25.1890    0.7730   32.0280 C.3     1  UNL1        0.0192
     10 C         -25.3360    0.6840   33.5440 C.3     1  UNL1        0.0202
     11 C         -24.8290   -0.7150   33.9050 C.3     1  UNL1        0.0887
     12 N         -24.7580   -1.4810   32.6460 N.3     1  UNL1       -0.2191
     13 C         -25.6880    1.6140   26.4610 C.2     1  UNL1        0.0359
     14 C         -26.2500    2.9200   26.3950 C.2     1  UNL1        0.0742
     15 C         -25.6420    4.0930   27.1230 C.2     1  UNL1        0.2662
     16 N         -25.6140    5.2520   26.4490 N.am    1  UNL1       -0.1997
     17 C         -25.0260    6.4790   26.9630 C.3     1  UNL1        0.1388
     18 O         -25.1430    3.9660   28.2430 O.2     1  UNL1       -0.2683
     19 C         -27.4380    3.0910   25.6450 C.2     1  UNL1        0.1065
     20 N         -28.0750    2.0890   25.0030 N.2     1  UNL1       -0.2081
     21 C         -27.5430    0.8490   25.0790 C.2     1  UNL1        0.2530
     22 O         -28.1930   -0.2080   24.4770 O.2     1  UNL1       -0.4558
     23 C         -29.4600    0.0050   23.8660 C.3     1  UNL1        0.2426
     24 C         -30.0650   -1.3770   23.5730 C.3     1  UNL1        0.2292
     25 O         -30.7290   -1.8780   24.7210 O.3     1  UNL1       -0.2162
     26 C         -26.3540    0.5760   25.7770 C.2     1  UNL1        0.1907
     27 F         -25.8600   -0.6810   25.7950 F       1  UNL1       -0.1995
     28 O         -23.2922    1.6936   30.2857 O.2     1  UNL1       -0.2258
     29 C         -21.1950    1.1735   28.1433 C.2     1  UNL1        0.1845
     30 N         -24.6148    1.0207   28.6060 N.am    1  UNL1       -0.2427
     31 C         -24.4412    1.3149   27.2019 C.3     1  UNL1        0.1260
     32 C         -23.4633    1.1213   29.1622 C.2     1  UNL1        0.4097
     33 C         -26.8568   -0.2794   28.7412 C.3     1  UNL1        0.0422
     34 C         -28.8820    3.6409   28.9788 C.3     1  UNL1        0.0420
     35 C         -28.1203   -0.1460   29.5230 C.3     1  UNL1        0.0996
     36 C         -27.2650    2.6416   30.4464 C.2     1  UNL1        0.0114
     37 C         -30.2319    3.6243   29.7511 C.3     1  UNL1        0.0156
     38 C         -30.0290    1.1905   28.7747 C.2     1  UNL1        0.2291
     39 C         -21.2840    1.9797   27.0525 C.2     1  UNL1        0.0441
     40 C         -28.2362    2.3851   29.5831 C.2     1  UNL1        0.0312
     41 C         -25.4067   -0.0517   29.1460 C.3     1  UNL1        0.0859
     42 O         -30.4256    0.2631   28.0405 O.2     1  UNL1       -0.2745
     43 O         -22.3701    0.3207   28.5394 O.3     1  UNL1       -0.4070
     44 C         -30.9212    2.3226   29.2746 C.3     1  UNL1        0.0860
     45 N         -28.7167    1.1867   29.2971 N.am    1  UNL1       -0.2623
@<TRIPOS>BOND
     1     1    41    1
     2     2     7    1
     3     2     1    1
     4     3     2    2
     5     4     3    1
     6     4     5    2
     7     5     6    1
     8     6     7    2
     9     8     1    1
    10     8     9    1
    11     8    12    1
    12     9    10    1
    13    10    11    1
    14    12    11    1
    15    13    31    1
    16    14    13    1
    17    14    15    1
    18    15    18    2
    19    16    17    1
    20    16    15    1
    21    19    14    2
    22    20    21    2
    23    20    19    1
    24    21    26    1
    25    22    21    1
    26    23    22    1
    27    24    23    1
    28    24    25    1
    29    26    27    1
    30    26    13    2
    31    29    43    1
    32    30    41    1
    33    30    32   am
    34    31    30    1
    35    32    28    2
    36    33    35    1
    37    34    40    1
    38    34    37    1
    39    38    44    1
    40    38    45   am
    41    39    29    2
    42    40    36    2
    43    41    33    1
    44    42    38    2
    45    43    32    1
    46    44    37    1
    47    45    35    1
    48    45    40    1
