@<TRIPOS>MOLECULE
outputs/IAG933/test6/raw/output_7690_IAG933_linker_design_.xyz
 42 46 0 0 0
SMALL
GASTEIGER

@<TRIPOS>ATOM
      1 C         -24.8550   -1.0120   30.1430 C.3     1  UNL1        0.1206
      2 C         -24.9730   -2.5050   29.7880 C.2     1  UNL1       -0.0027
      3 C         -23.9060   -3.1730   29.1460 C.2     1  UNL1       -0.0026
      4 C         -23.9890   -4.5490   28.8530 C.2     1  UNL1       -0.0003
      5 C         -25.1370   -5.2800   29.2050 C.2     1  UNL1       -0.0000
      6 C         -26.2320   -4.6110   29.7840 C.2     1  UNL1       -0.0003
      7 C         -26.1550   -3.2320   30.0650 C.2     1  UNL1       -0.0026
      8 C         -25.3870   -0.6790   31.5710 C.3     1  UNL1        0.0954
      9 C         -25.1890    0.7730   32.0280 C.3     1  UNL1        0.0209
     10 C         -25.3360    0.6840   33.5440 C.3     1  UNL1        0.0203
     11 C         -24.8290   -0.7150   33.9050 C.3     1  UNL1        0.0888
     12 N         -24.7580   -1.4810   32.6460 N.3     1  UNL1       -0.2174
     13 C         -25.6880    1.6140   26.4610 C.3     1  UNL1        0.0837
     14 C         -26.2500    2.9200   26.3950 C.2     1  UNL1        0.0554
     15 C         -25.6420    4.0930   27.1230 C.2     1  UNL1        0.2625
     16 N         -25.6140    5.2520   26.4490 N.am    1  UNL1       -0.2000
     17 C         -25.0260    6.4790   26.9630 C.3     1  UNL1        0.1388
     18 O         -25.1430    3.9660   28.2430 O.2     1  UNL1       -0.2687
     19 C         -27.4380    3.0910   25.6450 C.2     1  UNL1        0.1022
     20 N         -28.0750    2.0890   25.0030 N.2     1  UNL1       -0.2119
     21 C         -27.5430    0.8490   25.0790 C.2     1  UNL1        0.2341
     22 O         -28.1930   -0.2080   24.4770 O.2     1  UNL1       -0.4585
     23 C         -29.4600    0.0050   23.8660 C.3     1  UNL1        0.2423
     24 C         -30.0650   -1.3770   23.5730 C.3     1  UNL1        0.2292
     25 O         -30.7290   -1.8780   24.7210 O.3     1  UNL1       -0.2162
     26 C         -26.3540    0.5760   25.7770 C.3     1  UNL1        0.2406
     27 F         -25.8600   -0.6810   25.7950 F       1  UNL1       -0.2269
     28 O         -26.4605    0.8334   29.0086 O.2     1  UNL1       -0.2528
     29 C         -25.0523    0.9971   28.8821 C.3     1  UNL1        0.4244
     30 O         -22.8013    2.3282   25.1922 O.3     1  UNL1       -0.4439
     31 C         -23.4883    1.7282   24.1242 C.3     1  UNL1        0.2558
     32 C         -22.3473    0.9236   28.3235 C.ar    1  UNL1        0.1085
     33 C         -22.9191    0.1412   29.3832 C.2     1  UNL1        0.2586
     34 N         -19.9447    1.0732   28.5858 N.pl3   1  UNL1       -0.0875
     35 O         -21.0584    1.6948   26.6475 O.2     1  UNL1       -0.4066
     36 N         -24.2297   -0.0346   29.3421 N.am    1  UNL1       -0.2053
     37 C         -24.6110    1.3706   27.5028 C.3     1  UNL1        0.1407
     38 C         -21.0357    1.2144   27.9005 C.ar    1  UNL1        0.2422
     39 C         -22.3797    1.8688   26.3106 C.ar    1  UNL1        0.2940
     40 O         -22.0907   -0.3504   30.1956 O.2     1  UNL1       -0.2696
     41 O         -24.7791    2.1919   29.7295 O.2     1  UNL1       -0.2528
     42 C         -23.2367    1.4449   27.4223 C.ar    1  UNL1        0.0678
@<TRIPOS>BOND
     1     1     2    1
     2     2     7    1
     3     3     2    2
     4     4     3    1
     5     4     5    2
     6     5     6    1
     7     6     7    2
     8     8     1    1
     9     8     9    1
    10     8    12    1
    11     9    10    1
    12    10    11    1
    13    12    11    1
    14    13    14    1
    15    13    37    1
    16    14    15    1
    17    15    18    2
    18    16    17    1
    19    16    15    1
    20    19    14    2
    21    20    21    2
    22    20    19    1
    23    21    26    1
    24    22    21    1
    25    23    22    1
    26    24    23    1
    27    24    25    1
    28    26    27    1
    29    26    13    1
    30    29    28    1
    31    29    36    1
    32    29    41    1
    33    30    39    1
    34    31    30    1
    35    32    33    1
    36    33    40    2
    37    35    38   ar
    38    36    33   am
    39    36     1    1
    40    37    42    1
    41    37    29    1
    42    38    32   ar
    43    38    34    1
    44    39    35   ar
    45    39    42   ar
    46    42    32   ar
