@<TRIPOS>MOLECULE
No_770-gen_results/8p0m/2024-11-27-11-27-31/
 14 15 0 0 0
SMALL
GASTEIGER

@<TRIPOS>ATOM
      1 C         -28.0162   -0.8135   28.8779 C.ar    1  UNL1        0.0536
      2 C         -27.0636   -0.1189   28.6079 C.ar    1  UNL1        0.0045
      3 C         -27.0010    0.6913   27.4910 C.ar    1  UNL1        0.0001
      4 C         -28.1373    0.7363   26.6350 C.ar    1  UNL1        0.0000
      5 C         -29.2360    0.0765   27.0690 C.ar    1  UNL1        0.0001
      6 C         -29.2177   -0.6429   28.1747 C.ar    1  UNL1        0.0045
      7 C         -28.0030   -1.6604   30.1266 C.2     1  UNL1        0.2490
      8 O         -27.1218   -2.5017   30.2445 O.2     1  UNL1       -0.2699
      9 N         -29.2001   -1.8741   30.8089 N.am    1  UNL1       -0.2761
     10 C         -30.2866   -1.0126   30.8019 C.3     1  UNL1        0.0937
     11 C         -31.3920   -1.5938   31.3900 C.3     1  UNL1        0.0216
     12 C         -29.5321   -3.1817   31.2635 C.3     1  UNL1        0.0937
     13 C         -30.6722   -3.5342   31.7983 C.3     1  UNL1        0.0216
     14 C         -31.6036   -2.7126   31.9605 C.3     1  UNL1        0.0035
@<TRIPOS>BOND
     1     1     7    1
     2     7     8    2
     3     7     9   am
     4     9    10    1
     5     9    12    1
     6    11    14    1
     7    13    14    1
     8    10    11    1
     9    13    12    1
    10     1     2   ar
    11     2     3   ar
    12     3     4   ar
    13     4     5   ar
    14     5     6   ar
    15     6     1   ar
