@<TRIPOS>MOLECULE
outputs/IAG933/test6/raw/output_7703_IAG933_linker_design_.xyz
 46 50 0 0 0
SMALL
GASTEIGER

@<TRIPOS>ATOM
      1 C         -24.8550   -1.0120   30.1430 C.3     1  UNL1        0.0603
      2 C         -24.9730   -2.5050   29.7880 C.2     1  UNL1       -0.0194
      3 C         -23.9060   -3.1730   29.1460 C.2     1  UNL1       -0.0042
      4 C         -23.9890   -4.5490   28.8530 C.2     1  UNL1       -0.0003
      5 C         -25.1370   -5.2800   29.2050 C.2     1  UNL1       -0.0000
      6 C         -26.2320   -4.6110   29.7840 C.2     1  UNL1       -0.0003
      7 C         -26.1550   -3.2320   30.0650 C.2     1  UNL1       -0.0042
      8 C         -25.3870   -0.6790   31.5710 C.3     1  UNL1        0.0785
      9 C         -25.1890    0.7730   32.0280 C.3     1  UNL1        0.0193
     10 C         -25.3360    0.6840   33.5440 C.3     1  UNL1        0.0202
     11 C         -24.8290   -0.7150   33.9050 C.3     1  UNL1        0.0887
     12 N         -24.7580   -1.4810   32.6460 N.3     1  UNL1       -0.2191
     13 C         -25.6880    1.6140   26.4610 C.2     1  UNL1        0.1015
     14 C         -26.2500    2.9200   26.3950 C.2     1  UNL1        0.0912
     15 C         -25.6420    4.0930   27.1230 C.2     1  UNL1        0.2677
     16 N         -25.6140    5.2520   26.4490 N.am    1  UNL1       -0.1997
     17 C         -25.0260    6.4790   26.9630 C.3     1  UNL1        0.1388
     18 O         -25.1430    3.9660   28.2430 O.2     1  UNL1       -0.2683
     19 C         -27.4380    3.0910   25.6450 C.2     1  UNL1        0.1080
     20 N         -28.0750    2.0890   25.0030 N.2     1  UNL1       -0.2080
     21 C         -27.5430    0.8490   25.0790 C.2     1  UNL1        0.2546
     22 O         -28.1930   -0.2080   24.4770 O.2     1  UNL1       -0.4558
     23 C         -29.4600    0.0050   23.8660 C.3     1  UNL1        0.2426
     24 C         -30.0650   -1.3770   23.5730 C.3     1  UNL1        0.2292
     25 O         -30.7290   -1.8780   24.7210 O.3     1  UNL1       -0.2162
     26 C         -26.3540    0.5760   25.7770 C.2     1  UNL1        0.2075
     27 F         -25.8600   -0.6810   25.7950 F       1  UNL1       -0.1979
     28 C         -23.4173    1.9140   27.2631 C.3     1  UNL1        0.1429
     29 C         -29.1964    1.5076   28.9119 C.3     1  UNL1        0.0776
     30 C         -26.9927    5.0119   30.1394 C.2     1  UNL1        0.2685
     31 O         -28.3184    5.0372   29.7854 O.2     1  UNL1       -0.4181
     32 N         -26.9645    2.5114   29.8082 N.2     1  UNL1       -0.2563
     33 N         -24.6359    1.1825   27.4545 N.pl3   1  UNL1       -0.2314
     34 N         -26.3890    6.1419   30.3435 N.2     1  UNL1       -0.1052
     35 C         -28.9603    3.7943   29.4509 C.2     1  UNL1        0.2260
     36 C         -26.3493    3.8674   30.3381 C.2     1  UNL1        0.1533
     37 N         -30.2897    3.5736   29.3788 N.2     1  UNL1       -0.2393
     38 O         -22.4474    0.1719   29.2282 O.3     1  UNL1       -0.2213
     39 C         -28.2941    2.6050   29.2973 C.3     1  UNL1        0.1847
     40 N         -25.0332    1.0131   28.7839 N.3     1  UNL1       -0.1267
     41 C         -21.0557    1.2962   27.7710 C.3     1  UNL1        0.0374
     42 C         -30.4830    2.2227   29.2057 C.3     1  UNL1        0.1351
     43 C         -22.4433    1.3412   28.4293 C.3     1  UNL1        0.1733
     44 C         -27.0633   -0.2591   28.6007 C.2     1  UNL1       -0.0114
     45 C         -28.1059    0.2536   28.5480 C.2     1  UNL1       -0.0251
     46 C         -25.4546   -0.2565   28.9782 C.3     1  UNL1        0.1208
@<TRIPOS>BOND
     1     1    46    1
     2     2     7    1
     3     2     1    1
     4     3     2    2
     5     4     3    1
     6     4     5    2
     7     5     6    1
     8     6     7    2
     9     8     1    1
    10     8     9    1
    11     8    12    1
    12     9    10    1
    13    10    11    1
    14    12    11    1
    15    13    33    1
    16    14    13    1
    17    14    15    1
    18    15    18    2
    19    16    17    1
    20    16    15    1
    21    19    14    2
    22    20    21    2
    23    20    19    1
    24    21    26    1
    25    22    21    1
    26    23    22    1
    27    24    23    1
    28    24    25    1
    29    26    27    1
    30    26    13    2
    31    28    33    1
    32    28    43    1
    33    29    45    1
    34    29    42    1
    35    29    39    1
    36    30    36    1
    37    30    34    2
    38    31    30    1
    39    32    36    2
    40    33    40    1
    41    35    31    1
    42    37    35    2
    43    39    35    1
    44    39    32    1
    45    40    46    1
    46    42    37    1
    47    43    41    1
    48    43    38    1
    49    45    44    2
    50    46    44    1
