@<TRIPOS>MOLECULE
outputs/IAG933/test6/raw/output_7705_IAG933_linker_design_.xyz
 46 50 0 0 0
SMALL
GASTEIGER

@<TRIPOS>ATOM
      1 C         -24.8550   -1.0120   30.1430 C.3     1  UNL1        0.0614
      2 C         -24.9730   -2.5050   29.7880 C.2     1  UNL1       -0.0170
      3 C         -23.9060   -3.1730   29.1460 C.2     1  UNL1       -0.0039
      4 C         -23.9890   -4.5490   28.8530 C.2     1  UNL1       -0.0003
      5 C         -25.1370   -5.2800   29.2050 C.2     1  UNL1       -0.0000
      6 C         -26.2320   -4.6110   29.7840 C.2     1  UNL1       -0.0003
      7 C         -26.1550   -3.2320   30.0650 C.2     1  UNL1       -0.0039
      8 C         -25.3870   -0.6790   31.5710 C.3     1  UNL1        0.0809
      9 C         -25.1890    0.7730   32.0280 C.3     1  UNL1        0.0195
     10 C         -25.3360    0.6840   33.5440 C.3     1  UNL1        0.0203
     11 C         -24.8290   -0.7150   33.9050 C.3     1  UNL1        0.0887
     12 N         -24.7580   -1.4810   32.6460 N.3     1  UNL1       -0.2188
     13 C         -25.6880    1.6140   26.4610 C.2     1  UNL1        0.0993
     14 C         -26.2500    2.9200   26.3950 C.2     1  UNL1        0.0910
     15 C         -25.6420    4.0930   27.1230 C.2     1  UNL1        0.2677
     16 N         -25.6140    5.2520   26.4490 N.am    1  UNL1       -0.1997
     17 C         -25.0260    6.4790   26.9630 C.3     1  UNL1        0.1388
     18 O         -25.1430    3.9660   28.2430 O.2     1  UNL1       -0.2683
     19 C         -27.4380    3.0910   25.6450 C.2     1  UNL1        0.1080
     20 N         -28.0750    2.0890   25.0030 N.2     1  UNL1       -0.2080
     21 C         -27.5430    0.8490   25.0790 C.2     1  UNL1        0.2546
     22 O         -28.1930   -0.2080   24.4770 O.2     1  UNL1       -0.4558
     23 C         -29.4600    0.0050   23.8660 C.3     1  UNL1        0.2426
     24 C         -30.0650   -1.3770   23.5730 C.3     1  UNL1        0.2292
     25 O         -30.7290   -1.8780   24.7210 O.3     1  UNL1       -0.2162
     26 C         -26.3540    0.5760   25.7770 C.2     1  UNL1        0.2073
     27 F         -25.8600   -0.6810   25.7950 F       1  UNL1       -0.1979
     28 F         -31.3638   -1.5915   30.9135 F       1  UNL1       -0.2234
     29 C         -31.6902   -0.8911   29.8034 C.3     1  UNL1        0.1815
     30 C         -31.2904   -1.6125   28.5620 C.3     1  UNL1        0.0487
     31 C         -30.1208   -1.1420   27.6160 C.3     1  UNL1        0.0085
     32 C         -29.0801   -0.1353   28.1505 C.3     1  UNL1        0.0235
     33 C         -27.7420   -0.6459   28.2103 C.2     1  UNL1       -0.0267
     34 N         -31.3473    0.4849   29.8976 N.3     1  UNL1       -0.2484
     35 C         -24.2739    0.4600   28.2169 C.2     1  UNL1        0.0368
     36 C         -32.3154    1.2722   30.6936 C.3     1  UNL1        0.0917
     37 N         -24.5014    1.3260   27.1706 N.pl3   1  UNL1       -0.2422
     38 C         -22.1964    1.2776   27.8160 C.3     1  UNL1        0.0721
     39 C         -32.9444   -0.9661   29.3840 C.3     1  UNL1        0.0525
     40 C         -22.8695    0.3130   28.4021 C.3     1  UNL1        0.0544
     41 C         -26.7135    0.0211   29.0900 C.2     1  UNL1       -0.0076
     42 C         -28.9734    1.0097   29.1666 C.3     1  UNL1        0.0217
     43 C         -20.8216    1.6550   28.1927 C.3     1  UNL1        0.0137
     44 S         -23.1042    2.2496   26.6979 S.3     1  UNL1       -0.0441
     45 C         -30.0144    0.9146   30.2909 C.3     1  UNL1        0.0747
     46 C         -25.2974   -0.1351   29.1423 C.2     1  UNL1       -0.0070
@<TRIPOS>BOND
     1     1    46    1
     2     2     7    1
     3     2     1    1
     4     3     2    2
     5     4     3    1
     6     4     5    2
     7     5     6    1
     8     6     7    2
     9     8     1    1
    10     8     9    1
    11     8    12    1
    12     9    10    1
    13    10    11    1
    14    12    11    1
    15    13    37    1
    16    14    13    1
    17    14    15    1
    18    15    18    2
    19    16    17    1
    20    16    15    1
    21    19    14    2
    22    20    21    2
    23    20    19    1
    24    21    26    1
    25    22    21    1
    26    23    22    1
    27    24    23    1
    28    24    25    1
    29    26    27    1
    30    26    13    2
    31    29    39    1
    32    29    34    1
    33    29    28    1
    34    30    29    1
    35    31    32    1
    36    31    30    1
    37    32    33    1
    38    32    42    1
    39    33    41    2
    40    34    45    1
    41    34    36    1
    42    35    40    1
    43    35    46    2
    44    37    35    1
    45    38    43    1
    46    38    40    1
    47    41    46    1
    48    42    45    1
    49    44    37    1
    50    44    38    1
