@<TRIPOS>MOLECULE
outputs/IAG933/test6/raw/output_7711_IAG933_linker_design_.xyz
 44 48 0 0 0
SMALL
GASTEIGER

@<TRIPOS>ATOM
      1 C         -24.8550   -1.0120   30.1430 C.3     1  UNL1        0.2002
      2 C         -24.9730   -2.5050   29.7880 C.2     1  UNL1        0.0213
      3 C         -23.9060   -3.1730   29.1460 C.2     1  UNL1       -0.0004
      4 C         -23.9890   -4.5490   28.8530 C.2     1  UNL1       -0.0002
      5 C         -25.1370   -5.2800   29.2050 C.2     1  UNL1       -0.0000
      6 C         -26.2320   -4.6110   29.7840 C.2     1  UNL1       -0.0002
      7 C         -26.1550   -3.2320   30.0650 C.2     1  UNL1       -0.0004
      8 C         -25.3870   -0.6790   31.5710 C.3     1  UNL1        0.1198
      9 C         -25.1890    0.7730   32.0280 C.3     1  UNL1        0.0233
     10 C         -25.3360    0.6840   33.5440 C.3     1  UNL1        0.0204
     11 C         -24.8290   -0.7150   33.9050 C.3     1  UNL1        0.0889
     12 N         -24.7580   -1.4810   32.6460 N.3     1  UNL1       -0.2150
     13 C         -25.6880    1.6140   26.4610 C.2     1  UNL1        0.0425
     14 C         -26.2500    2.9200   26.3950 C.2     1  UNL1        0.0765
     15 C         -25.6420    4.0930   27.1230 C.2     1  UNL1        0.2664
     16 N         -25.6140    5.2520   26.4490 N.am    1  UNL1       -0.1997
     17 C         -25.0260    6.4790   26.9630 C.3     1  UNL1        0.1388
     18 O         -25.1430    3.9660   28.2430 O.2     1  UNL1       -0.2683
     19 C         -27.4380    3.0910   25.6450 C.2     1  UNL1        0.1067
     20 N         -28.0750    2.0890   25.0030 N.2     1  UNL1       -0.2081
     21 C         -27.5430    0.8490   25.0790 C.2     1  UNL1        0.2533
     22 O         -28.1930   -0.2080   24.4770 O.2     1  UNL1       -0.4558
     23 C         -29.4600    0.0050   23.8660 C.3     1  UNL1        0.2426
     24 C         -30.0650   -1.3770   23.5730 C.3     1  UNL1        0.2292
     25 O         -30.7290   -1.8780   24.7210 O.3     1  UNL1       -0.2162
     26 C         -26.3540    0.5760   25.7770 C.2     1  UNL1        0.1930
     27 F         -25.8600   -0.6810   25.7950 F       1  UNL1       -0.1992
     28 N         -24.3816   -0.0344   29.1632 N.pl3   1  UNL1       -0.1693
     29 N         -22.1409    0.3506   29.9167 N.pl3   1  UNL1        0.2095
     30 C         -24.8200    1.2994   27.2690 C.2     1  UNL1        0.0783
     31 C         -21.2361    1.4695   26.8006 C.3     1  UNL1        0.1829
     32 C         -25.3065    0.4130   28.2822 C.3     1  UNL1        0.2832
     33 C         -23.6222    1.7002   26.7821 C.2     1  UNL1        0.1485
     34 C         -30.1358    0.6283   27.2990 C.3     1  UNL1        0.1868
     35 O         -21.4889    1.9866   25.4368 O.3     1  UNL1       -0.3105
     36 N         -26.6424   -0.0583   28.3007 N.pl3   1  UNL1       -0.1918
     37 O         -23.5915    2.4922   25.7663 O.2     1  UNL1       -0.4481
     38 C         -22.7389    2.1656   24.6922 C.3     1  UNL1        0.3612
     39 O         -31.4079    0.9979   26.8666 O.3     1  UNL1       -0.2200
     40 C         -22.4946    1.1518   27.5771 C.2     1  UNL1        0.1257
     41 C         -22.9980    0.4943   28.9522 C.2     1  UNL1        0.3673
     42 C         -29.7048    1.0148   28.7104 C.3     1  UNL1        0.0629
     43 C         -29.1430   -0.2831   29.2287 C.2     1  UNL1       -0.0059
     44 C         -27.7953   -0.4989   28.9798 C.2     1  UNL1        0.0800
@<TRIPOS>BOND
     1     1     2    1
     2     2     7    1
     3     3     2    2
     4     4     3    1
     5     4     5    2
     6     5     6    1
     7     6     7    2
     8     8     1    1
     9     8     9    1
    10     8    12    1
    11     9    10    1
    12    10    11    1
    13    12    11    1
    14    13    30    1
    15    14    13    1
    16    14    15    1
    17    15    18    2
    18    16    17    1
    19    16    15    1
    20    19    14    2
    21    20    21    2
    22    20    19    1
    23    21    26    1
    24    22    21    1
    25    23    22    1
    26    24    23    1
    27    24    25    1
    28    26    27    1
    29    26    13    2
    30    28     1    1
    31    30    32    1
    32    31    40    1
    33    32    36    1
    34    32    28    1
    35    33    30    2
    36    33    40    1
    37    34    42    1
    38    35    31    1
    39    36    44    1
    40    37    33    1
    41    38    35    1
    42    38    37    1
    43    39    34    1
    44    40    41    2
    45    41    28    1
    46    41    29    1
    47    42    43    1
    48    44    43    2
