@<TRIPOS>MOLECULE
outputs/IAG933/test6/raw/output_7714_IAG933_linker_design_.xyz
 45 49 0 0 0
SMALL
GASTEIGER

@<TRIPOS>ATOM
      1 C         -24.8550   -1.0120   30.1430 C.3     1  UNL1        0.0424
      2 C         -24.9730   -2.5050   29.7880 C.2     1  UNL1       -0.0210
      3 C         -23.9060   -3.1730   29.1460 C.2     1  UNL1       -0.0042
      4 C         -23.9890   -4.5490   28.8530 C.2     1  UNL1       -0.0003
      5 C         -25.1370   -5.2800   29.2050 C.2     1  UNL1       -0.0000
      6 C         -26.2320   -4.6110   29.7840 C.2     1  UNL1       -0.0003
      7 C         -26.1550   -3.2320   30.0650 C.2     1  UNL1       -0.0042
      8 C         -25.3870   -0.6790   31.5710 C.3     1  UNL1        0.0838
      9 C         -25.1890    0.7730   32.0280 C.3     1  UNL1        0.0767
     10 C         -25.3360    0.6840   33.5440 C.3     1  UNL1        0.0276
     11 C         -24.8290   -0.7150   33.9050 C.3     1  UNL1        0.0891
     12 N         -24.7580   -1.4810   32.6460 N.3     1  UNL1       -0.2187
     13 C         -25.6880    1.6140   26.4610 C.2     1  UNL1        0.1762
     14 C         -26.2500    2.9200   26.3950 C.2     1  UNL1        0.1105
     15 C         -25.6420    4.0930   27.1230 C.2     1  UNL1        0.2694
     16 N         -25.6140    5.2520   26.4490 N.am    1  UNL1       -0.1996
     17 C         -25.0260    6.4790   26.9630 C.3     1  UNL1        0.1388
     18 O         -25.1430    3.9660   28.2430 O.2     1  UNL1       -0.2682
     19 C         -27.4380    3.0910   25.6450 C.2     1  UNL1        0.1098
     20 N         -28.0750    2.0890   25.0030 N.2     1  UNL1       -0.2079
     21 C         -27.5430    0.8490   25.0790 C.2     1  UNL1        0.2564
     22 O         -28.1930   -0.2080   24.4770 O.2     1  UNL1       -0.4558
     23 C         -29.4600    0.0050   23.8660 C.3     1  UNL1        0.2426
     24 C         -30.0650   -1.3770   23.5730 C.3     1  UNL1        0.2292
     25 O         -30.7290   -1.8780   24.7210 O.3     1  UNL1       -0.2162
     26 C         -26.3540    0.5760   25.7770 C.2     1  UNL1        0.2267
     27 F         -25.8600   -0.6810   25.7950 F       1  UNL1       -0.1960
     28 C         -22.6013    0.1031   29.9646 C.3     1  UNL1        0.0156
     29 O         -21.9648    1.9612   26.7391 O.co2   1  UNL1       -0.2455
     30 C         -22.9534    0.9965   28.7686 C.3     1  UNL1        0.1432
     31 C         -26.8711    5.2159   30.7035 C.3     1  UNL1        0.1208
     32 C         -25.0902    4.1634   33.0513 C.3     1  UNL1        0.0237
     33 C         -27.6496    4.8424   33.2521 C.3     1  UNL1        0.0476
     34 C         -24.8892    2.1780   31.6150 C.2     1  UNL1        0.1660
     35 C         -21.8285    1.2634   27.8038 C.2     1  UNL1        0.3678
     36 O         -24.5304    1.0694   27.0660 O.2     1  UNL1       -0.4760
     37 C         -24.2549    1.1190   28.5426 C.3     1  UNL1        0.1770
     38 C         -25.2647   -0.0181   29.0556 C.3     1  UNL1        0.0499
     39 C         -25.8405    3.1851   32.0697 C.3     1  UNL1        0.1175
     40 O         -20.7184    0.8786   28.0085 O.co2   1  UNL1       -0.2455
     41 C         -26.1690    5.2741   33.3698 C.3     1  UNL1        0.0058
     42 O         -29.1406    4.1247   31.2874 O.3     1  UNL1       -0.2075
     43 C         -27.7118    4.4708   31.6919 C.3     1  UNL1        0.1891
     44 O         -23.9922    2.4465   30.8676 O.2     1  UNL1       -0.2946
     45 N         -26.4484    3.9954   30.9631 N.3     1  UNL1       -0.2416
@<TRIPOS>BOND
     1     1    38    1
     2     2     7    1
     3     2     1    1
     4     3     2    2
     5     4     3    1
     6     4     5    2
     7     5     6    1
     8     6     7    2
     9     8     1    1
    10     8     9    1
    11     8    12    1
    12     9    34    1
    13     9    10    1
    14    10    11    1
    15    12    11    1
    16    13    36    1
    17    14    13    1
    18    14    15    1
    19    15    18    2
    20    16    17    1
    21    16    15    1
    22    19    14    2
    23    20    21    2
    24    20    19    1
    25    21    26    1
    26    22    21    1
    27    23    22    1
    28    24    23    1
    29    24    25    1
    30    26    27    1
    31    26    13    2
    32    29    35   ar
    33    30    28    1
    34    31    43    1
    35    32    41    1
    36    33    41    1
    37    35    40   ar
    38    35    30    1
    39    36    37    1
    40    37    30    1
    41    37    38    1
    42    39    34    1
    43    39    32    1
    44    43    42    1
    45    43    33    1
    46    44    34    2
    47    45    31    1
    48    45    43    1
    49    45    39    1
