@<TRIPOS>MOLECULE
outputs/IAG933/test6/raw/output_7719_IAG933_linker_design_.xyz
 41 45 0 0 0
SMALL
GASTEIGER

@<TRIPOS>ATOM
      1 C         -24.8550   -1.0120   30.1430 C.3     1  UNL1        0.0646
      2 C         -24.9730   -2.5050   29.7880 C.2     1  UNL1       -0.0169
      3 C         -23.9060   -3.1730   29.1460 C.2     1  UNL1       -0.0039
      4 C         -23.9890   -4.5490   28.8530 C.2     1  UNL1       -0.0003
      5 C         -25.1370   -5.2800   29.2050 C.2     1  UNL1       -0.0000
      6 C         -26.2320   -4.6110   29.7840 C.2     1  UNL1       -0.0003
      7 C         -26.1550   -3.2320   30.0650 C.2     1  UNL1       -0.0039
      8 C         -25.3870   -0.6790   31.5710 C.3     1  UNL1        0.0810
      9 C         -25.1890    0.7730   32.0280 C.3     1  UNL1        0.0195
     10 C         -25.3360    0.6840   33.5440 C.3     1  UNL1        0.0203
     11 C         -24.8290   -0.7150   33.9050 C.3     1  UNL1        0.0887
     12 N         -24.7580   -1.4810   32.6460 N.3     1  UNL1       -0.2188
     13 C         -25.6880    1.6140   26.4610 C.3     1  UNL1        0.1565
     14 C         -26.2500    2.9200   26.3950 C.2     1  UNL1        0.0756
     15 C         -25.6420    4.0930   27.1230 C.2     1  UNL1        0.2642
     16 N         -25.6140    5.2520   26.4490 N.am    1  UNL1       -0.1999
     17 C         -25.0260    6.4790   26.9630 C.3     1  UNL1        0.1388
     18 O         -25.1430    3.9660   28.2430 O.2     1  UNL1       -0.2686
     19 C         -27.4380    3.0910   25.6450 C.2     1  UNL1        0.1040
     20 N         -28.0750    2.0890   25.0030 N.2     1  UNL1       -0.2117
     21 C         -27.5430    0.8490   25.0790 C.2     1  UNL1        0.2361
     22 O         -28.1930   -0.2080   24.4770 O.2     1  UNL1       -0.4585
     23 C         -29.4600    0.0050   23.8660 C.3     1  UNL1        0.2423
     24 C         -30.0650   -1.3770   23.5730 C.3     1  UNL1        0.2292
     25 O         -30.7290   -1.8780   24.7210 O.3     1  UNL1       -0.2162
     26 C         -26.3540    0.5760   25.7770 C.3     1  UNL1        0.2606
     27 F         -25.8600   -0.6810   25.7950 F       1  UNL1       -0.2248
     28 C         -21.2665   -0.4534   29.2862 C.3     1  UNL1        0.2561
     29 C         -20.8221    1.1821   27.5994 C.3     1  UNL1        0.2036
     30 F         -21.7358   -0.2199   30.4365 F       1  UNL1       -0.2131
     31 C         -25.2557    0.9943   28.7884 C.ar    1  UNL1        0.1489
     32 N         -26.0350    1.7957   29.5204 N.pl3   1  UNL1       -0.1092
     33 F         -22.0495    2.4422   26.1811 F       1  UNL1       -0.2278
     34 C         -23.4373   -0.1025   28.4465 C.ar    1  UNL1        0.0815
     35 C         -23.4820    0.9494   27.5819 C.ar    1  UNL1        0.0885
     36 N         -22.3183   -0.8340   28.5918 N.pl3   1  UNL1       -0.2051
     37 F         -19.8431    2.1246   27.4030 F       1  UNL1       -0.2338
     38 C         -24.6404   -0.0323   29.2038 C.ar    1  UNL1        0.0321
     39 C         -20.1793    0.1486   28.3985 C.3     1  UNL1        0.0967
     40 C         -22.1841    1.4070   27.1069 C.3     1  UNL1        0.2323
     41 N         -24.8621    1.2495   27.5433 N.ar    1  UNL1       -0.3083
@<TRIPOS>BOND
     1     1    38    1
     2     2     7    1
     3     2     1    1
     4     3     2    2
     5     4     3    1
     6     4     5    2
     7     5     6    1
     8     6     7    2
     9     8     1    1
    10     8     9    1
    11     8    12    1
    12     9    10    1
    13    10    11    1
    14    12    11    1
    15    13    41    1
    16    14    13    1
    17    14    15    1
    18    15    18    2
    19    16    17    1
    20    16    15    1
    21    19    14    2
    22    20    21    2
    23    20    19    1
    24    21    26    1
    25    22    21    1
    26    23    22    1
    27    24    23    1
    28    24    25    1
    29    26    27    1
    30    26    13    1
    31    28    30    1
    32    29    37    1
    33    29    39    1
    34    31    38   ar
    35    31    32    1
    36    34    36    1
    37    34    38   ar
    38    35    34   ar
    39    36    28    1
    40    39    28    1
    41    40    33    1
    42    40    35    1
    43    40    29    1
    44    41    35   ar
    45    41    31   ar
