@<TRIPOS>MOLECULE
outputs/IAG933/test6/raw/output_7720_IAG933_linker_design_.xyz
 42 46 0 0 0
SMALL
GASTEIGER

@<TRIPOS>ATOM
      1 C         -24.8550   -1.0120   30.1430 C.3     1  UNL1        0.1162
      2 C         -24.9730   -2.5050   29.7880 C.2     1  UNL1       -0.0028
      3 C         -23.9060   -3.1730   29.1460 C.2     1  UNL1       -0.0026
      4 C         -23.9890   -4.5490   28.8530 C.2     1  UNL1       -0.0003
      5 C         -25.1370   -5.2800   29.2050 C.2     1  UNL1       -0.0000
      6 C         -26.2320   -4.6110   29.7840 C.2     1  UNL1       -0.0003
      7 C         -26.1550   -3.2320   30.0650 C.2     1  UNL1       -0.0026
      8 C         -25.3870   -0.6790   31.5710 C.3     1  UNL1        0.1221
      9 C         -25.1890    0.7730   32.0280 C.3     1  UNL1        0.1346
     10 C         -25.3360    0.6840   33.5440 C.3     1  UNL1        0.0499
     11 C         -24.8290   -0.7150   33.9050 C.3     1  UNL1        0.0914
     12 N         -24.7580   -1.4810   32.6460 N.3     1  UNL1       -0.2149
     13 C         -25.6880    1.6140   26.4610 C.3     1  UNL1        0.0790
     14 C         -26.2500    2.9200   26.3950 C.2     1  UNL1        0.0553
     15 C         -25.6420    4.0930   27.1230 C.2     1  UNL1        0.2625
     16 N         -25.6140    5.2520   26.4490 N.am    1  UNL1       -0.2000
     17 C         -25.0260    6.4790   26.9630 C.3     1  UNL1        0.1388
     18 O         -25.1430    3.9660   28.2430 O.2     1  UNL1       -0.2687
     19 C         -27.4380    3.0910   25.6450 C.2     1  UNL1        0.1022
     20 N         -28.0750    2.0890   25.0030 N.2     1  UNL1       -0.2119
     21 C         -27.5430    0.8490   25.0790 C.2     1  UNL1        0.2341
     22 O         -28.1930   -0.2080   24.4770 O.2     1  UNL1       -0.4585
     23 C         -29.4600    0.0050   23.8660 C.3     1  UNL1        0.2423
     24 C         -30.0650   -1.3770   23.5730 C.3     1  UNL1        0.2292
     25 O         -30.7290   -1.8780   24.7210 O.3     1  UNL1       -0.2162
     26 C         -26.3540    0.5760   25.7770 C.3     1  UNL1        0.2405
     27 F         -25.8600   -0.6810   25.7950 F       1  UNL1       -0.2269
     28 C         -21.3694    0.5031   27.9229 C.3     1  UNL1        0.1841
     29 F         -23.2345    1.3517   24.7923 F       1  UNL1       -0.1700
     30 O         -26.7127    0.2103   28.5963 O.2     1  UNL1       -0.2749
     31 O         -21.2731   -0.3497   29.0552 O.3     1  UNL1       -0.2204
     32 C         -25.3761    0.4092   28.3767 C.2     1  UNL1        0.2261
     33 C         -24.1184    2.0925   30.2262 C.3     1  UNL1        0.1618
     34 C         -24.6985    1.2216   27.4799 C.3     1  UNL1        0.0924
     35 N         -24.6413    0.0738   29.4792 N.am    1  UNL1       -0.2750
     36 F         -23.3711    3.3059   25.7579 F       1  UNL1       -0.1700
     37 F         -21.5523    2.1510   25.7312 F       1  UNL1       -0.1700
     38 C         -22.8588    2.1187   25.8981 C.3     1  UNL1        0.3981
     39 C         -23.5847    0.9601   29.4894 C.3     1  UNL1        0.1079
     40 C         -23.4135    1.5125   27.1679 C.3     1  UNL1        0.1083
     41 O         -24.4950    1.9201   31.5446 O.3     1  UNL1       -0.3529
     42 C         -22.7377    1.1194   28.1529 C.3     1  UNL1        0.0624
@<TRIPOS>BOND
     1     1     2    1
     2     1     8    1
     3     2     7    1
     4     3     2    2
     5     4     3    1
     6     4     5    2
     7     5     6    1
     8     6     7    2
     9     8     9    1
    10     8    12    1
    11     9    10    1
    12    10    11    1
    13    12    11    1
    14    13    14    1
    15    13    34    1
    16    14    15    1
    17    15    18    2
    18    16    17    1
    19    16    15    1
    20    19    14    2
    21    20    21    2
    22    20    19    1
    23    21    26    1
    24    22    21    1
    25    23    22    1
    26    24    23    1
    27    24    25    1
    28    26    27    1
    29    26    13    1
    30    28    31    1
    31    29    38    1
    32    32    30    2
    33    32    35   am
    34    33    41    1
    35    34    32    1
    36    35    39    1
    37    35     1    1
    38    36    38    1
    39    37    38    1
    40    39    33    1
    41    40    38    1
    42    40    34    1
    43    40    42    1
    44    41     9    1
    45    42    28    1
    46    42    39    1
