@<TRIPOS>MOLECULE
outputs/IAG933/test6/raw/output_7728_IAG933_linker_design_.xyz
 44 48 0 0 0
SMALL
GASTEIGER

@<TRIPOS>ATOM
      1 C         -24.8550   -1.0120   30.1430 C.3     1  UNL1        0.0448
      2 C         -24.9730   -2.5050   29.7880 C.2     1  UNL1       -0.0208
      3 C         -23.9060   -3.1730   29.1460 C.2     1  UNL1       -0.0042
      4 C         -23.9890   -4.5490   28.8530 C.2     1  UNL1       -0.0003
      5 C         -25.1370   -5.2800   29.2050 C.2     1  UNL1       -0.0000
      6 C         -26.2320   -4.6110   29.7840 C.2     1  UNL1       -0.0003
      7 C         -26.1550   -3.2320   30.0650 C.2     1  UNL1       -0.0042
      8 C         -25.3870   -0.6790   31.5710 C.3     1  UNL1        0.0772
      9 C         -25.1890    0.7730   32.0280 C.3     1  UNL1        0.0192
     10 C         -25.3360    0.6840   33.5440 C.3     1  UNL1        0.0202
     11 C         -24.8290   -0.7150   33.9050 C.3     1  UNL1        0.0887
     12 N         -24.7580   -1.4810   32.6460 N.3     1  UNL1       -0.2191
     13 C         -25.6880    1.6140   26.4610 C.2     1  UNL1        0.0590
     14 C         -26.2500    2.9200   26.3950 C.2     1  UNL1        0.0803
     15 C         -25.6420    4.0930   27.1230 C.2     1  UNL1        0.2667
     16 N         -25.6140    5.2520   26.4490 N.am    1  UNL1       -0.1997
     17 C         -25.0260    6.4790   26.9630 C.3     1  UNL1        0.1388
     18 O         -25.1430    3.9660   28.2430 O.2     1  UNL1       -0.2683
     19 C         -27.4380    3.0910   25.6450 C.2     1  UNL1        0.1067
     20 N         -28.0750    2.0890   25.0030 N.2     1  UNL1       -0.2112
     21 C         -27.5430    0.8490   25.0790 C.2     1  UNL1        0.2389
     22 O         -28.1930   -0.2080   24.4770 O.2     1  UNL1       -0.4583
     23 C         -29.4600    0.0050   23.8660 C.3     1  UNL1        0.2423
     24 C         -30.0650   -1.3770   23.5730 C.3     1  UNL1        0.2292
     25 O         -30.7290   -1.8780   24.7210 O.3     1  UNL1       -0.2162
     26 C         -26.3540    0.5760   25.7770 C.3     1  UNL1        0.2653
     27 F         -25.8600   -0.6810   25.7950 F       1  UNL1       -0.2217
     28 C         -30.0314    1.1300   29.3053 C.3     1  UNL1        0.0355
     29 O         -30.4738    1.7827   31.5320 O.3     1  UNL1       -0.2231
     30 C         -22.1086    0.3829   28.8055 C.2     1  UNL1        0.0018
     31 C         -24.8793    0.0473   29.0623 C.3     1  UNL1        0.0574
     32 C         -29.4642   -0.2391   29.7235 C.3     1  UNL1        0.0355
     33 C         -21.2322    1.1739   28.0471 C.3     1  UNL1        0.1684
     34 C         -23.3018    2.5611   25.1765 C.3     1  UNL1        0.0376
     35 C         -22.8652    1.8921   26.4818 C.3     1  UNL1        0.1446
     36 C         -28.1905    2.5699   30.0964 C.3     1  UNL1        0.1423
     37 C         -24.5713    1.2220   27.0269 C.1     1  UNL1       -0.1050
     38 C         -26.1357    0.9122   29.1789 C.3     1  UNL1        0.1468
     39 O         -21.5663    1.8435   26.8654 O.3     1  UNL1       -0.3465
     40 C         -23.5588    0.4774   28.4937 C.2     1  UNL1       -0.0162
     41 C         -23.8093    1.1351   27.4393 C.2     1  UNL1        0.0346
     42 C         -29.1564    2.2702   28.9730 C.3     1  UNL1        0.0347
     43 O         -27.0779    1.5743   30.0619 O.3     1  UNL1       -0.3534
     44 C         -29.8375    0.7102   30.8223 C.3     1  UNL1        0.1522
@<TRIPOS>BOND
     1     1    31    1
     2     2     7    1
     3     2     1    1
     4     3     2    2
     5     4     3    1
     6     4     5    2
     7     5     6    1
     8     6     7    2
     9     8     1    1
    10     8     9    1
    11     8    12    1
    12     9    10    1
    13    10    11    1
    14    12    11    1
    15    13    37    2
    16    14    13    1
    17    14    15    1
    18    15    18    2
    19    16    17    1
    20    16    15    1
    21    19    14    2
    22    20    21    2
    23    20    19    1
    24    21    26    1
    25    22    21    1
    26    23    22    1
    27    24    23    1
    28    24    25    1
    29    26    27    1
    30    26    13    1
    31    28    42    1
    32    28    32    1
    33    28    44    1
    34    31    38    1
    35    32    44    1
    36    33    30    1
    37    35    34    1
    38    35    39    1
    39    35    41    1
    40    37    41    2
    41    38    43    1
    42    39    33    1
    43    40    30    2
    44    40    31    1
    45    41    40    1
    46    42    36    1
    47    43    36    1
    48    44    29    1
