@<TRIPOS>MOLECULE
No_773-gen_results/8p0m/2024-11-27-11-27-31/
 19 20 0 0 0
SMALL
GASTEIGER

@<TRIPOS>ATOM
      1 C         -28.0162   -0.8135   28.8779 C.ar    1  UNL1        0.0817
      2 C         -27.0636   -0.1189   28.6079 C.ar    1  UNL1        0.0362
      3 C         -26.9716    0.7139   27.5060 C.ar    1  UNL1        0.1401
      4 C         -28.1053    0.7744   26.6421 C.ar    1  UNL1        0.0272
      5 C         -29.2041    0.1179   27.0477 C.ar    1  UNL1        0.0046
      6 C         -29.2127   -0.6088   28.1281 C.ar    1  UNL1        0.0043
      7 C         -30.3709    0.2326   26.1381 C.3     1  UNL1        0.1713
      8 N         -30.2836    0.1310   24.9011 N.3     1  UNL1       -0.2061
      9 C         -31.4733   -0.8149   26.5816 C.2     1  UNL1        0.3822
     10 C         -31.0475    1.6828   26.4264 C.3     1  UNL1        0.0313
     11 F         -25.8151    1.3412   27.1504 F       1  UNL1       -0.2042
     12 C         -28.0642   -1.6787   30.1583 C.2     1  UNL1        0.3878
     13 O         -28.5375   -1.4547   31.1075 O.co2   1  UNL1       -0.2406
     14 O         -27.4167   -2.8630   29.9218 O.co2   1  UNL1       -0.2406
     15 O         -31.8031   -0.9518   27.6588 O.co2   1  UNL1       -0.2438
     16 O         -32.0941   -1.3323   25.6198 O.co2   1  UNL1       -0.2438
     17 C         -31.1013    2.4502   25.5103 C.3     1  UNL1        0.0038
     18 C         -30.6802    2.1722   24.1938 C.3     1  UNL1        0.0189
     19 C         -30.1939    0.9830   23.9245 C.3     1  UNL1        0.0896
@<TRIPOS>BOND
     1     5     7    1
     2     7     8    1
     3     7     9    1
     4     7    10    1
     5     3    11    1
     6     1    12    1
     7    12    13   ar
     8    12    14   ar
     9     9    15   ar
    10     9    16   ar
    11    17    18    1
    12     8    19    1
    13    19    18    1
    14    17    10    1
    15     1     2   ar
    16     2     3   ar
    17     3     4   ar
    18     4     5   ar
    19     5     6   ar
    20     6     1   ar
