@<TRIPOS>MOLECULE
outputs/IAG933/test6/raw/output_7736_IAG933_linker_design_.xyz
 43 47 0 0 0
SMALL
GASTEIGER

@<TRIPOS>ATOM
      1 C         -24.8550   -1.0120   30.1430 C.3     1  UNL1        0.0981
      2 C         -24.9730   -2.5050   29.7880 C.2     1  UNL1       -0.0064
      3 C         -23.9060   -3.1730   29.1460 C.2     1  UNL1       -0.0029
      4 C         -23.9890   -4.5490   28.8530 C.2     1  UNL1       -0.0003
      5 C         -25.1370   -5.2800   29.2050 C.2     1  UNL1       -0.0000
      6 C         -26.2320   -4.6110   29.7840 C.2     1  UNL1       -0.0003
      7 C         -26.1550   -3.2320   30.0650 C.2     1  UNL1       -0.0029
      8 C         -25.3870   -0.6790   31.5710 C.3     1  UNL1        0.0916
      9 C         -25.1890    0.7730   32.0280 C.3     1  UNL1        0.0206
     10 C         -25.3360    0.6840   33.5440 C.3     1  UNL1        0.0203
     11 C         -24.8290   -0.7150   33.9050 C.3     1  UNL1        0.0888
     12 N         -24.7580   -1.4810   32.6460 N.3     1  UNL1       -0.2178
     13 C         -25.6880    1.6140   26.4610 C.3     1  UNL1        0.1007
     14 C         -26.2500    2.9200   26.3950 C.2     1  UNL1        0.0551
     15 C         -25.6420    4.0930   27.1230 C.2     1  UNL1        0.2182
     16 N         -25.6140    5.2520   26.4490 N.2     1  UNL1       -0.2359
     17 C         -25.0260    6.4790   26.9630 C.3     1  UNL1        0.1550
     18 O         -25.1430    3.9660   28.2430 O.2     1  UNL1       -0.4572
     19 C         -27.4380    3.0910   25.6450 C.2     1  UNL1        0.1023
     20 N         -28.0750    2.0890   25.0030 N.2     1  UNL1       -0.2119
     21 C         -27.5430    0.8490   25.0790 C.2     1  UNL1        0.2342
     22 O         -28.1930   -0.2080   24.4770 O.2     1  UNL1       -0.4585
     23 C         -29.4600    0.0050   23.8660 C.3     1  UNL1        0.2423
     24 C         -30.0650   -1.3770   23.5730 C.3     1  UNL1        0.2292
     25 O         -30.7290   -1.8780   24.7210 O.3     1  UNL1       -0.2162
     26 C         -26.3540    0.5760   25.7770 C.3     1  UNL1        0.2425
     27 F         -25.8600   -0.6810   25.7950 F       1  UNL1       -0.2268
     28 C         -26.7203    5.1138   31.4874 C.2     1  UNL1       -0.0007
     29 O         -23.6240    1.5304   25.3933 O.3     1  UNL1       -0.2226
     30 C         -24.1978    1.4199   26.7248 C.3     1  UNL1        0.1630
     31 C         -27.6891    6.0434   31.9134 C.2     1  UNL1       -0.0002
     32 C         -27.4486    5.4549   29.2379 C.2     1  UNL1       -0.0007
     33 N         -23.9977   -0.0844   29.4951 N.3     1  UNL1       -0.2456
     34 C         -25.6027    3.8187   29.6563 C.3     1  UNL1        0.2192
     35 C         -23.4771    1.4078   27.7247 C.3     1  UNL1        0.0739
     36 C         -28.4537    6.2916   29.6450 C.2     1  UNL1       -0.0002
     37 C         -28.5299    6.6390   30.9859 C.2     1  UNL1       -0.0000
     38 C         -26.4339    2.4475   29.7445 C.3     1  UNL1        0.1917
     39 C         -21.8963    1.6548   27.6080 C.3     1  UNL1        0.0066
     40 C         -26.5608    4.8317   30.1287 C.2     1  UNL1        0.0198
     41 C         -22.5747   -0.3077   29.6925 C.3     1  UNL1        0.0919
     42 C         -24.3887    1.0485   28.9806 C.3     1  UNL1        0.1790
     43 O         -25.4230    1.7163   29.0953 O.3     1  UNL1       -0.3366
@<TRIPOS>BOND
     1     1    33    1
     2     2     7    1
     3     2     1    1
     4     3     2    2
     5     4     3    1
     6     4     5    2
     7     5     6    1
     8     6     7    2
     9     8     1    1
    10     8     9    1
    11     8    12    1
    12     9    10    1
    13    10    11    1
    14    12    11    1
    15    13    14    1
    16    13    30    1
    17    14    15    1
    18    15    18    1
    19    16    17    1
    20    16    15    2
    21    18    34    1
    22    19    14    2
    23    20    21    2
    24    20    19    1
    25    21    26    1
    26    22    21    1
    27    23    22    1
    28    24    23    1
    29    24    25    1
    30    26    27    1
    31    26    13    1
    32    28    31    1
    33    30    29    1
    34    30    35    1
    35    32    36    2
    36    32    40    1
    37    33    41    1
    38    34    38    1
    39    34    40    1
    40    35    39    1
    41    35    42    1
    42    36    37    1
    43    37    31    2
    44    40    28    2
    45    42    43    1
    46    42    33    1
    47    43    38    1
