@<TRIPOS>MOLECULE
outputs/IAG933/test6/raw/output_774_IAG933_linker_design_.xyz
 49 53 0 0 0
SMALL
GASTEIGER

@<TRIPOS>ATOM
      1 C         -24.8550   -1.0120   30.1430 C.3     1  UNL1        0.0713
      2 C         -24.9730   -2.5050   29.7880 C.2     1  UNL1       -0.0184
      3 C         -23.9060   -3.1730   29.1460 C.2     1  UNL1       -0.0041
      4 C         -23.9890   -4.5490   28.8530 C.2     1  UNL1       -0.0003
      5 C         -25.1370   -5.2800   29.2050 C.2     1  UNL1       -0.0000
      6 C         -26.2320   -4.6110   29.7840 C.2     1  UNL1       -0.0003
      7 C         -26.1550   -3.2320   30.0650 C.2     1  UNL1       -0.0041
      8 C         -25.3870   -0.6790   31.5710 C.3     1  UNL1        0.0795
      9 C         -25.1890    0.7730   32.0280 C.3     1  UNL1        0.0193
     10 C         -25.3360    0.6840   33.5440 C.3     1  UNL1        0.0202
     11 C         -24.8290   -0.7150   33.9050 C.3     1  UNL1        0.0887
     12 N         -24.7580   -1.4810   32.6460 N.3     1  UNL1       -0.2190
     13 C         -25.6880    1.6140   26.4610 C.2     1  UNL1        0.0415
     14 C         -26.2500    2.9200   26.3950 C.2     1  UNL1        0.0767
     15 C         -25.6420    4.0930   27.1230 C.2     1  UNL1        0.2664
     16 N         -25.6140    5.2520   26.4490 N.am    1  UNL1       -0.1997
     17 C         -25.0260    6.4790   26.9630 C.3     1  UNL1        0.1388
     18 O         -25.1430    3.9660   28.2430 O.2     1  UNL1       -0.2683
     19 C         -27.4380    3.0910   25.6450 C.2     1  UNL1        0.1067
     20 N         -28.0750    2.0890   25.0030 N.2     1  UNL1       -0.2081
     21 C         -27.5430    0.8490   25.0790 C.2     1  UNL1        0.2533
     22 O         -28.1930   -0.2080   24.4770 O.2     1  UNL1       -0.4558
     23 C         -29.4600    0.0050   23.8660 C.3     1  UNL1        0.2426
     24 C         -30.0650   -1.3770   23.5730 C.3     1  UNL1        0.2292
     25 O         -30.7290   -1.8780   24.7210 O.3     1  UNL1       -0.2162
     26 C         -26.3540    0.5760   25.7770 C.2     1  UNL1        0.1932
     27 F         -25.8600   -0.6810   25.7950 F       1  UNL1       -0.1992
     28 C         -30.9875    6.4892   27.2742 C.2     1  UNL1        0.0417
     29 C         -23.1758    1.7856   26.3550 C.2     1  UNL1        0.1429
     30 C         -33.1357    5.4091   27.2226 C.2     1  UNL1       -0.0001
     31 N         -29.9236    2.2405   28.0203 N.3     1  UNL1       -0.2145
     32 C         -25.3181   -0.0642   29.0593 C.3     1  UNL1        0.1601
     33 C         -30.3731    5.2337   27.3589 C.2     1  UNL1        0.1931
     34 C         -24.0865    0.6802   28.2999 C.2     1  UNL1        0.0885
     35 C         -21.9070    1.7828   26.9514 C.2     1  UNL1        0.0503
     36 C         -29.6624    0.9584   28.4910 C.3     1  UNL1        0.0757
     37 O         -29.0544    5.2203   27.6594 O.2     1  UNL1       -0.2869
     38 F         -23.1385    2.1742   25.0006 F       1  UNL1       -0.2041
     39 N         -22.8329    0.6831   28.8126 N.2     1  UNL1       -0.2456
     40 C         -32.3759    6.5858   27.1492 C.2     1  UNL1        0.0033
     41 C         -29.8757   -0.1395   27.4248 C.3     1  UNL1        0.0189
     42 O         -26.7098   -0.0167   28.6319 O.3     1  UNL1       -0.3499
     43 C         -32.5577    4.1642   27.2442 C.2     1  UNL1        0.0003
     44 C         -31.1851    3.9668   27.1801 C.2     1  UNL1        0.0342
     45 C         -28.0180   -0.3761   29.1678 C.3     1  UNL1        0.1440
     46 C         -24.3494    1.3592   27.0328 C.2     1  UNL1        0.0459
     47 C         -21.7517    1.1996   28.1858 C.2     1  UNL1        0.1008
     48 C         -30.6976    2.5747   27.0352 C.3     1  UNL1        0.1181
     49 C         -28.6011    0.8449   29.5946 C.3     1  UNL1        0.0495
@<TRIPOS>BOND
     1     1    32    1
     2     2     7    1
     3     2     1    1
     4     3     2    2
     5     4     3    1
     6     4     5    2
     7     5     6    1
     8     6     7    2
     9     8     1    1
    10     8     9    1
    11     8    12    1
    12     9    10    1
    13    10    11    1
    14    12    11    1
    15    13    46    1
    16    14    13    1
    17    14    15    1
    18    15    18    2
    19    16    17    1
    20    16    15    1
    21    19    14    2
    22    20    21    2
    23    20    19    1
    24    21    26    1
    25    22    21    1
    26    23    22    1
    27    24    23    1
    28    24    25    1
    29    26    27    1
    30    26    13    2
    31    28    33    1
    32    29    35    2
    33    29    46    1
    34    30    43    2
    35    31    36    1
    36    32    42    1
    37    33    37    1
    38    34    39    1
    39    34    32    1
    40    35    47    1
    41    36    41    1
    42    36    49    1
    43    38    29    1
    44    40    30    1
    45    40    28    2
    46    42    45    1
    47    44    43    1
    48    44    33    2
    49    45    49    1
    50    46    34    2
    51    47    39    2
    52    48    44    1
    53    48    31    1
