@<TRIPOS>MOLECULE
outputs/IAG933/test6/raw/output_7743_IAG933_linker_design_.xyz
 49 54 0 0 0
SMALL
GASTEIGER

@<TRIPOS>ATOM
      1 C         -24.8550   -1.0120   30.1430 C.3     1  UNL1        0.1124
      2 C         -24.9730   -2.5050   29.7880 C.2     1  UNL1       -0.0030
      3 C         -23.9060   -3.1730   29.1460 C.2     1  UNL1       -0.0026
      4 C         -23.9890   -4.5490   28.8530 C.2     1  UNL1       -0.0003
      5 C         -25.1370   -5.2800   29.2050 C.2     1  UNL1       -0.0000
      6 C         -26.2320   -4.6110   29.7840 C.2     1  UNL1       -0.0003
      7 C         -26.1550   -3.2320   30.0650 C.2     1  UNL1       -0.0026
      8 C         -25.3870   -0.6790   31.5710 C.3     1  UNL1        0.0951
      9 C         -25.1890    0.7730   32.0280 C.3     1  UNL1        0.0209
     10 C         -25.3360    0.6840   33.5440 C.3     1  UNL1        0.0203
     11 C         -24.8290   -0.7150   33.9050 C.3     1  UNL1        0.0888
     12 N         -24.7580   -1.4810   32.6460 N.3     1  UNL1       -0.2174
     13 C         -25.6880    1.6140   26.4610 C.3     1  UNL1        0.1446
     14 C         -26.2500    2.9200   26.3950 C.2     1  UNL1        0.0731
     15 C         -25.6420    4.0930   27.1230 C.2     1  UNL1        0.2640
     16 N         -25.6140    5.2520   26.4490 N.am    1  UNL1       -0.1999
     17 C         -25.0260    6.4790   26.9630 C.3     1  UNL1        0.1388
     18 O         -25.1430    3.9660   28.2430 O.2     1  UNL1       -0.2686
     19 C         -27.4380    3.0910   25.6450 C.2     1  UNL1        0.1038
     20 N         -28.0750    2.0890   25.0030 N.2     1  UNL1       -0.2118
     21 C         -27.5430    0.8490   25.0790 C.2     1  UNL1        0.2358
     22 O         -28.1930   -0.2080   24.4770 O.2     1  UNL1       -0.4585
     23 C         -29.4600    0.0050   23.8660 C.3     1  UNL1        0.2423
     24 C         -30.0650   -1.3770   23.5730 C.3     1  UNL1        0.2292
     25 O         -30.7290   -1.8780   24.7210 O.3     1  UNL1       -0.2162
     26 C         -26.3540    0.5760   25.7770 C.3     1  UNL1        0.2581
     27 F         -25.8600   -0.6810   25.7950 F       1  UNL1       -0.2251
     28 C         -21.5970    1.0490   27.7848 C.2     1  UNL1        0.0181
     29 C         -33.7202   -0.1578   27.5152 C.2     1  UNL1       -0.0043
     30 C         -22.6161    1.5287   27.1398 C.2     1  UNL1        0.1490
     31 C         -31.4181    0.3486   26.9218 C.2     1  UNL1       -0.0068
     32 C         -27.3462    0.0106   28.5745 C.3     1  UNL1        0.1274
     33 C         -32.5582   -0.5244   26.8653 C.2     1  UNL1       -0.0221
     34 O         -22.6090    2.0809   25.7985 O.2     1  UNL1       -0.4705
     35 C         -32.7000    2.0021   28.1160 C.2     1  UNL1       -0.0026
     36 C         -23.1160    1.3748   24.5844 C.3     1  UNL1        0.2525
     37 C         -25.9039    0.6315   28.6149 C.3     1  UNL1        0.1598
     38 C         -31.4816    1.5322   27.6652 C.2     1  UNL1       -0.0009
     39 C         -23.7583    0.5847   28.8819 C.2     1  UNL1        0.0472
     40 C         -23.7911    1.2694   27.9495 C.2     1  UNL1        0.0930
     41 N         -24.9318    0.1068   29.2423 N.pl3   1  UNL1       -0.2914
     42 O         -28.9893    0.9320   30.1519 O.2     1  UNL1       -0.2732
     43 C         -22.0666    0.3263   29.0672 C.3     1  UNL1        0.0716
     44 N         -24.9875    1.2235   27.7070 N.pl3   1  UNL1       -0.2845
     45 C         -28.5722    0.6694   28.9989 C.2     1  UNL1        0.2452
     46 C         -32.6848   -1.9476   26.2162 C.3     1  UNL1        0.0310
     47 N         -29.1588    1.0781   27.8996 N.am    1  UNL1       -0.2005
     48 C         -30.1679    2.1216   28.1717 C.3     1  UNL1        0.1415
     49 C         -33.7242    1.1047   28.0762 C.2     1  UNL1       -0.0006
@<TRIPOS>BOND
     1     1     2    1
     2     2     7    1
     3     3     2    2
     4     4     3    1
     5     4     5    2
     6     5     6    1
     7     6     7    2
     8     8     1    1
     9     8     9    1
    10     8    12    1
    11     9    10    1
    12    10    11    1
    13    12    11    1
    14    13    44    1
    15    14    13    1
    16    14    15    1
    17    15    18    2
    18    16    17    1
    19    16    15    1
    20    19    14    2
    21    20    21    2
    22    20    19    1
    23    21    26    1
    24    22    21    1
    25    23    22    1
    26    24    23    1
    27    24    25    1
    28    26    27    1
    29    26    13    1
    30    28    43    1
    31    29    49    1
    32    30    28    2
    33    30    40    1
    34    31    38    2
    35    32    45    1
    36    33    31    1
    37    33    29    2
    38    34    30    1
    39    36    34    1
    40    37    32    1
    41    37    41    1
    42    38    35    1
    43    38    48    1
    44    39    43    1
    45    39    41    1
    46    40    39    2
    47    41     1    1
    48    44    40    1
    49    44    37    1
    50    45    42    2
    51    46    33    1
    52    47    48    1
    53    47    45    1
    54    49    35    2
