@<TRIPOS>MOLECULE
outputs/IAG933/test6/raw/output_7746_IAG933_linker_design_.xyz
 46 49 0 0 0
SMALL
GASTEIGER

@<TRIPOS>ATOM
      1 C         -24.8550   -1.0120   30.1430 C.3     1  UNL1        0.1186
      2 C         -24.9730   -2.5050   29.7880 C.2     1  UNL1       -0.0026
      3 C         -23.9060   -3.1730   29.1460 C.2     1  UNL1       -0.0026
      4 C         -23.9890   -4.5490   28.8530 C.2     1  UNL1       -0.0003
      5 C         -25.1370   -5.2800   29.2050 C.2     1  UNL1       -0.0000
      6 C         -26.2320   -4.6110   29.7840 C.2     1  UNL1       -0.0003
      7 C         -26.1550   -3.2320   30.0650 C.2     1  UNL1       -0.0026
      8 C         -25.3870   -0.6790   31.5710 C.3     1  UNL1        0.0955
      9 C         -25.1890    0.7730   32.0280 C.3     1  UNL1        0.0209
     10 C         -25.3360    0.6840   33.5440 C.3     1  UNL1        0.0203
     11 C         -24.8290   -0.7150   33.9050 C.3     1  UNL1        0.0888
     12 N         -24.7580   -1.4810   32.6460 N.3     1  UNL1       -0.2174
     13 C         -25.6880    1.6140   26.4610 C.2     1  UNL1        0.0420
     14 C         -26.2500    2.9200   26.3950 C.2     1  UNL1        0.0768
     15 C         -25.6420    4.0930   27.1230 C.2     1  UNL1        0.2664
     16 N         -25.6140    5.2520   26.4490 N.am    1  UNL1       -0.1997
     17 C         -25.0260    6.4790   26.9630 C.3     1  UNL1        0.1388
     18 O         -25.1430    3.9660   28.2430 O.2     1  UNL1       -0.2683
     19 C         -27.4380    3.0910   25.6450 C.2     1  UNL1        0.1067
     20 N         -28.0750    2.0890   25.0030 N.2     1  UNL1       -0.2081
     21 C         -27.5430    0.8490   25.0790 C.2     1  UNL1        0.2533
     22 O         -28.1930   -0.2080   24.4770 O.2     1  UNL1       -0.4558
     23 C         -29.4600    0.0050   23.8660 C.3     1  UNL1        0.2426
     24 C         -30.0650   -1.3770   23.5730 C.3     1  UNL1        0.2292
     25 O         -30.7290   -1.8780   24.7210 O.3     1  UNL1       -0.2162
     26 C         -26.3540    0.5760   25.7770 C.2     1  UNL1        0.1933
     27 F         -25.8600   -0.6810   25.7950 F       1  UNL1       -0.1992
     28 C         -24.4780    1.5583   27.0877 C.2     1  UNL1        0.0308
     29 N         -25.7444   -0.1525   29.4037 N.am    1  UNL1       -0.2474
     30 O         -27.8153   -0.9210   28.8604 O.2     1  UNL1       -0.2745
     31 N         -22.5769    0.1597   28.5666 N.2     1  UNL1       -0.2702
     32 C         -28.8925    1.7965   29.5249 C.3     1  UNL1        0.0101
     33 O         -23.6318    3.4024   25.2781 O.2     1  UNL1       -0.2583
     34 C         -27.5894    1.4659   28.7776 C.3     1  UNL1        0.0857
     35 C         -23.1354    2.3193   25.6068 C.2     1  UNL1        0.3202
     36 C         -22.2966    1.1225   27.6080 C.2     1  UNL1        0.1066
     37 C         -27.1226    0.0251   29.0787 C.2     1  UNL1        0.2300
     38 C         -21.1181    1.2936   27.6081 C.3     1  UNL1        0.3161
     39 C         -25.0491    0.9638   28.9934 C.2     1  UNL1        0.1103
     40 C         -23.1246    1.7244   26.7357 C.3     1  UNL1        0.1611
     41 C         -24.7786    1.2837   28.0333 C.1     1  UNL1       -0.0884
     42 F         -23.2533    1.5194   24.4911 F       1  UNL1       -0.1628
     43 O         -20.2476    0.3485   28.3245 O.3     1  UNL1       -0.3204
     44 C         -22.0644   -0.4860   29.3760 C.3     1  UNL1        0.1570
     45 F         -20.4530    2.2367   27.0415 F       1  UNL1       -0.1974
     46 C         -21.0381   -0.3958   28.8325 C.3     1  UNL1        0.1716
@<TRIPOS>BOND
     1     1    29    1
     2     2     7    1
     3     2     1    1
     4     3     2    2
     5     4     3    1
     6     4     5    2
     7     5     6    1
     8     6     7    2
     9     8     1    1
    10     8     9    1
    11     8    12    1
    12     9    10    1
    13    10    11    1
    14    12    11    1
    15    13    28    1
    16    14    13    1
    17    14    15    1
    18    15    18    2
    19    16    17    1
    20    16    15    1
    21    19    14    2
    22    20    21    2
    23    20    19    1
    24    21    26    1
    25    22    21    1
    26    23    22    1
    27    24    23    1
    28    24    25    1
    29    26    27    1
    30    26    13    2
    31    28    41    2
    32    30    37    2
    33    31    44    1
    34    33    35    2
    35    34    37    1
    36    34    32    1
    37    36    38    1
    38    36    31    2
    39    37    29   am
    40    38    45    1
    41    38    43    1
    42    39    29    1
    43    40    35    1
    44    40    28    1
    45    40    36    1
    46    41    39    2
    47    42    35    1
    48    43    46    1
    49    46    44    1
