@<TRIPOS>MOLECULE
outputs/IAG933/test6/raw/output_7747_IAG933_linker_design_.xyz
 41 44 0 0 0
SMALL
GASTEIGER

@<TRIPOS>ATOM
      1 C         -24.8550   -1.0120   30.1430 C.3     1  UNL1        0.0549
      2 C         -24.9730   -2.5050   29.7880 C.2     1  UNL1       -0.0198
      3 C         -23.9060   -3.1730   29.1460 C.2     1  UNL1       -0.0042
      4 C         -23.9890   -4.5490   28.8530 C.2     1  UNL1       -0.0003
      5 C         -25.1370   -5.2800   29.2050 C.2     1  UNL1       -0.0000
      6 C         -26.2320   -4.6110   29.7840 C.2     1  UNL1       -0.0003
      7 C         -26.1550   -3.2320   30.0650 C.2     1  UNL1       -0.0042
      8 C         -25.3870   -0.6790   31.5710 C.3     1  UNL1        0.0782
      9 C         -25.1890    0.7730   32.0280 C.3     1  UNL1        0.0192
     10 C         -25.3360    0.6840   33.5440 C.3     1  UNL1        0.0202
     11 C         -24.8290   -0.7150   33.9050 C.3     1  UNL1        0.0887
     12 N         -24.7580   -1.4810   32.6460 N.3     1  UNL1       -0.2191
     13 C         -25.6880    1.6140   26.4610 C.3     1  UNL1        0.0987
     14 C         -26.2500    2.9200   26.3950 C.2     1  UNL1        0.0572
     15 C         -25.6420    4.0930   27.1230 C.2     1  UNL1        0.2625
     16 N         -25.6140    5.2520   26.4490 N.am    1  UNL1       -0.2000
     17 C         -25.0260    6.4790   26.9630 C.3     1  UNL1        0.1388
     18 O         -25.1430    3.9660   28.2430 O.2     1  UNL1       -0.2687
     19 C         -27.4380    3.0910   25.6450 C.2     1  UNL1        0.1022
     20 N         -28.0750    2.0890   25.0030 N.2     1  UNL1       -0.2119
     21 C         -27.5430    0.8490   25.0790 C.2     1  UNL1        0.2342
     22 O         -28.1930   -0.2080   24.4770 O.2     1  UNL1       -0.4585
     23 C         -29.4600    0.0050   23.8660 C.3     1  UNL1        0.2423
     24 C         -30.0650   -1.3770   23.5730 C.3     1  UNL1        0.2292
     25 O         -30.7290   -1.8780   24.7210 O.3     1  UNL1       -0.2162
     26 C         -26.3540    0.5760   25.7770 C.3     1  UNL1        0.2424
     27 F         -25.8600   -0.6810   25.7950 F       1  UNL1       -0.2268
     28 O         -28.4931    0.3767   30.4869 O.co2   1  UNL1       -0.2456
     29 C         -20.1297   -0.1100   28.4587 C.3     1  UNL1        0.0724
     30 C         -25.4137   -0.0730   29.0607 C.3     1  UNL1        0.0894
     31 C         -24.2249    1.5805   26.7852 C.3     1  UNL1        0.1389
     32 N         -24.3245    0.8785   28.8927 N.3     1  UNL1       -0.2169
     33 O         -23.1185    2.1808   26.1068 O.3     1  UNL1       -0.3539
     34 C         -27.8913   -0.0052   29.4969 C.2     1  UNL1        0.3663
     35 C         -21.9845    1.6461   26.6448 C.3     1  UNL1        0.1509
     36 O         -22.0042   -0.2918   29.6836 O.2     1  UNL1       -0.2959
     37 C         -23.6794    1.0983   27.8762 C.3     1  UNL1        0.1095
     38 C         -21.4595    0.1816   28.6234 C.2     1  UNL1        0.1546
     39 C         -26.7374    0.8262   29.0940 C.3     1  UNL1        0.1317
     40 C         -22.3631    0.9758   27.7423 C.3     1  UNL1        0.1055
     41 O         -28.1213   -1.0724   28.8704 O.co2   1  UNL1       -0.2456
@<TRIPOS>BOND
     1     1    30    1
     2     2     7    1
     3     2     1    1
     4     3     2    2
     5     4     3    1
     6     4     5    2
     7     5     6    1
     8     6     7    2
     9     8     1    1
    10     8     9    1
    11     8    12    1
    12     9    10    1
    13    10    11    1
    14    12    11    1
    15    13    14    1
    16    13    31    1
    17    14    15    1
    18    15    18    2
    19    16    17    1
    20    16    15    1
    21    19    14    2
    22    20    21    2
    23    20    19    1
    24    21    26    1
    25    22    21    1
    26    23    22    1
    27    24    23    1
    28    24    25    1
    29    26    27    1
    30    26    13    1
    31    29    38    1
    32    30    39    1
    33    31    33    1
    34    31    37    1
    35    32    30    1
    36    33    35    1
    37    34    28   ar
    38    35    40    1
    39    37    32    1
    40    38    36    2
    41    39    34    1
    42    40    37    1
    43    40    38    1
    44    41    34   ar
