@<TRIPOS>MOLECULE
outputs/IAG933/test6/raw/output_7755_IAG933_linker_design_.xyz
 44 48 0 0 0
SMALL
GASTEIGER

@<TRIPOS>ATOM
      1 C         -24.8550   -1.0120   30.1430 C.3     1  UNL1        0.0697
      2 C         -24.9730   -2.5050   29.7880 C.2     1  UNL1       -0.0184
      3 C         -23.9060   -3.1730   29.1460 C.2     1  UNL1       -0.0041
      4 C         -23.9890   -4.5490   28.8530 C.2     1  UNL1       -0.0003
      5 C         -25.1370   -5.2800   29.2050 C.2     1  UNL1       -0.0000
      6 C         -26.2320   -4.6110   29.7840 C.2     1  UNL1       -0.0003
      7 C         -26.1550   -3.2320   30.0650 C.2     1  UNL1       -0.0041
      8 C         -25.3870   -0.6790   31.5710 C.3     1  UNL1        0.0795
      9 C         -25.1890    0.7730   32.0280 C.3     1  UNL1        0.0193
     10 C         -25.3360    0.6840   33.5440 C.3     1  UNL1        0.0202
     11 C         -24.8290   -0.7150   33.9050 C.3     1  UNL1        0.0887
     12 N         -24.7580   -1.4810   32.6460 N.3     1  UNL1       -0.2190
     13 C         -25.6880    1.6140   26.4610 C.3     1  UNL1        0.0921
     14 C         -26.2500    2.9200   26.3950 C.2     1  UNL1        0.0589
     15 C         -25.6420    4.0930   27.1230 C.2     1  UNL1        0.2628
     16 N         -25.6140    5.2520   26.4490 N.am    1  UNL1       -0.2000
     17 C         -25.0260    6.4790   26.9630 C.3     1  UNL1        0.1388
     18 O         -25.1430    3.9660   28.2430 O.2     1  UNL1       -0.2686
     19 C         -27.4380    3.0910   25.6450 C.2     1  UNL1        0.1025
     20 N         -28.0750    2.0890   25.0030 N.2     1  UNL1       -0.2118
     21 C         -27.5430    0.8490   25.0790 C.2     1  UNL1        0.2344
     22 O         -28.1930   -0.2080   24.4770 O.2     1  UNL1       -0.4585
     23 C         -29.4600    0.0050   23.8660 C.3     1  UNL1        0.2423
     24 C         -30.0650   -1.3770   23.5730 C.3     1  UNL1        0.2292
     25 O         -30.7290   -1.8780   24.7210 O.3     1  UNL1       -0.2162
     26 C         -26.3540    0.5760   25.7770 C.3     1  UNL1        0.2440
     27 F         -25.8600   -0.6810   25.7950 F       1  UNL1       -0.2265
     28 C         -23.9690    0.8323   28.1181 C.2     1  UNL1        0.0014
     29 C         -29.5300    1.3862   29.0782 C.2     1  UNL1        0.0013
     30 C         -24.2648    1.4130   26.8535 C.2     1  UNL1       -0.0168
     31 C         -22.7059    1.0454   28.7352 C.2     1  UNL1       -0.0022
     32 C         -21.6608    1.5855   27.9677 C.2     1  UNL1       -0.0003
     33 O         -30.5452    4.1598   31.1663 O.2     1  UNL1       -0.4714
     34 C         -23.2041    1.9066   26.0804 C.2     1  UNL1       -0.0041
     35 C         -29.7700    3.1248   30.7337 C.2     1  UNL1        0.1387
     36 C         -21.9099    2.0153   26.6480 C.2     1  UNL1       -0.0003
     37 C         -30.2591    4.9420   32.3143 C.3     1  UNL1        0.2525
     38 C         -27.9549    1.5590   30.9220 C.2     1  UNL1        0.0013
     39 C         -24.9050   -0.2628   28.8307 C.3     1  UNL1        0.1429
     40 O         -26.3282   -0.1485   28.3700 O.3     1  UNL1       -0.3467
     41 C         -30.1798    2.5239   29.5392 C.2     1  UNL1        0.0367
     42 C         -28.6806    2.6330   31.4407 C.2     1  UNL1        0.0367
     43 C         -28.3366    0.9371   29.6811 C.2     1  UNL1        0.0075
     44 C         -27.6279   -0.1172   28.8943 C.3     1  UNL1        0.1689
@<TRIPOS>BOND
     1     1    39    1
     2     2     7    1
     3     2     1    1
     4     3     2    2
     5     4     3    1
     6     4     5    2
     7     5     6    1
     8     6     7    2
     9     8     1    1
    10     8     9    1
    11     8    12    1
    12     9    10    1
    13    10    11    1
    14    12    11    1
    15    13    30    1
    16    14    13    1
    17    14    15    1
    18    15    18    2
    19    16    17    1
    20    16    15    1
    21    19    14    2
    22    20    21    2
    23    20    19    1
    24    21    26    1
    25    22    21    1
    26    23    22    1
    27    24    23    1
    28    24    25    1
    29    26    27    1
    30    26    13    1
    31    28    31    1
    32    28    39    1
    33    29    41    2
    34    29    43    1
    35    30    28    2
    36    32    31    2
    37    33    37    1
    38    34    36    2
    39    34    30    1
    40    35    33    1
    41    35    42    2
    42    36    32    1
    43    38    42    1
    44    39    40    1
    45    40    44    1
    46    41    35    1
    47    43    38    2
    48    44    43    1
