@<TRIPOS>MOLECULE
outputs/IAG933/test6/raw/output_7758_IAG933_linker_design_.xyz
 41 44 0 0 0
SMALL
GASTEIGER

@<TRIPOS>ATOM
      1 C         -24.8550   -1.0120   30.1430 C.3     1  UNL1        0.0798
      2 C         -24.9730   -2.5050   29.7880 C.2     1  UNL1       -0.0155
      3 C         -23.9060   -3.1730   29.1460 C.2     1  UNL1       -0.0039
      4 C         -23.9890   -4.5490   28.8530 C.2     1  UNL1       -0.0003
      5 C         -25.1370   -5.2800   29.2050 C.2     1  UNL1       -0.0000
      6 C         -26.2320   -4.6110   29.7840 C.2     1  UNL1       -0.0003
      7 C         -26.1550   -3.2320   30.0650 C.2     1  UNL1       -0.0039
      8 C         -25.3870   -0.6790   31.5710 C.3     1  UNL1        0.1023
      9 C         -25.1890    0.7730   32.0280 C.3     1  UNL1        0.1151
     10 C         -25.3360    0.6840   33.5440 C.3     1  UNL1        0.0420
     11 C         -24.8290   -0.7150   33.9050 C.3     1  UNL1        0.0905
     12 N         -24.7580   -1.4810   32.6460 N.3     1  UNL1       -0.2169
     13 C         -25.6880    1.6140   26.4610 C.2     1  UNL1        0.0589
     14 C         -26.2500    2.9200   26.3950 C.2     1  UNL1        0.0781
     15 C         -25.6420    4.0930   27.1230 C.2     1  UNL1        0.2665
     16 N         -25.6140    5.2520   26.4490 N.am    1  UNL1       -0.1997
     17 C         -25.0260    6.4790   26.9630 C.3     1  UNL1        0.1388
     18 O         -25.1430    3.9660   28.2430 O.2     1  UNL1       -0.2683
     19 C         -27.4380    3.0910   25.6450 C.2     1  UNL1        0.1068
     20 N         -28.0750    2.0890   25.0030 N.2     1  UNL1       -0.2081
     21 C         -27.5430    0.8490   25.0790 C.2     1  UNL1        0.2533
     22 O         -28.1930   -0.2080   24.4770 O.2     1  UNL1       -0.4558
     23 C         -29.4600    0.0050   23.8660 C.3     1  UNL1        0.2426
     24 C         -30.0650   -1.3770   23.5730 C.3     1  UNL1        0.2292
     25 O         -30.7290   -1.8780   24.7210 O.3     1  UNL1       -0.2162
     26 C         -26.3540    0.5760   25.7770 C.2     1  UNL1        0.1946
     27 F         -25.8600   -0.6810   25.7950 F       1  UNL1       -0.1992
     28 C         -22.1146    1.6386   27.2189 C.2     1  UNL1        0.1622
     29 C         -24.6614    1.2759   27.1367 C.2     1  UNL1        0.1241
     30 C         -25.5681    3.1415   31.4610 C.2     1  UNL1        0.3227
     31 C         -24.2544   -0.0504   29.1069 C.2     1  UNL1        0.0603
     32 N         -26.2105    4.0958   30.8266 N.2     1  UNL1       -0.0901
     33 C         -24.6592    4.8318   32.8518 C.3     1  UNL1        0.2557
     34 N         -25.5797    1.8237   31.0956 N.pl3   1  UNL1       -0.1872
     35 O         -23.3998    2.5698   25.5803 O.2     1  UNL1       -0.2829
     36 F         -21.1642    2.2136   26.6759 F       1  UNL1       -0.2051
     37 C         -21.9179    0.8334   28.4365 C.3     1  UNL1        0.0871
     38 C         -23.4086    1.7972   26.6685 C.2     1  UNL1        0.2365
     39 N         -25.0754    0.4861   28.1895 N.2     1  UNL1       -0.2462
     40 C         -22.7634    0.0626   29.1924 C.2     1  UNL1       -0.0038
     41 O         -24.8761    3.4928   32.4919 O.2     1  UNL1       -0.4436
@<TRIPOS>BOND
     1     1    31    1
     2     2     7    1
     3     2     1    1
     4     3     2    2
     5     4     3    1
     6     4     5    2
     7     5     6    1
     8     6     7    2
     9     8     1    1
    10     8     9    1
    11     8    12    1
    12     9    34    1
    13     9    10    1
    14    10    11    1
    15    12    11    1
    16    13    29    1
    17    14    13    1
    18    14    15    1
    19    15    18    2
    20    16    17    1
    21    16    15    1
    22    19    14    2
    23    20    21    2
    24    20    19    1
    25    21    26    1
    26    22    21    1
    27    23    22    1
    28    24    23    1
    29    24    25    1
    30    26    27    1
    31    26    13    2
    32    28    37    1
    33    29    39    2
    34    30    41    1
    35    31    40    2
    36    32    30    2
    37    34    30    1
    38    35    38    1
    39    36    28    1
    40    37    40    1
    41    38    29    1
    42    38    28    2
    43    39    31    1
    44    41    33    1
