@<TRIPOS>MOLECULE
outputs/IAG933/test6/raw/output_776_IAG933_linker_design_.xyz
 43 47 0 0 0
SMALL
GASTEIGER

@<TRIPOS>ATOM
      1 C         -24.8550   -1.0120   30.1430 C.3     1  UNL1        0.0687
      2 C         -24.9730   -2.5050   29.7880 C.2     1  UNL1       -0.0187
      3 C         -23.9060   -3.1730   29.1460 C.2     1  UNL1       -0.0042
      4 C         -23.9890   -4.5490   28.8530 C.2     1  UNL1       -0.0003
      5 C         -25.1370   -5.2800   29.2050 C.2     1  UNL1       -0.0000
      6 C         -26.2320   -4.6110   29.7840 C.2     1  UNL1       -0.0003
      7 C         -26.1550   -3.2320   30.0650 C.2     1  UNL1       -0.0042
      8 C         -25.3870   -0.6790   31.5710 C.3     1  UNL1        0.0793
      9 C         -25.1890    0.7730   32.0280 C.3     1  UNL1        0.0193
     10 C         -25.3360    0.6840   33.5440 C.3     1  UNL1        0.0202
     11 C         -24.8290   -0.7150   33.9050 C.3     1  UNL1        0.0887
     12 N         -24.7580   -1.4810   32.6460 N.3     1  UNL1       -0.2190
     13 C         -25.6880    1.6140   26.4610 C.3     1  UNL1        0.0726
     14 C         -26.2500    2.9200   26.3950 C.2     1  UNL1        0.0549
     15 C         -25.6420    4.0930   27.1230 C.2     1  UNL1        0.2624
     16 N         -25.6140    5.2520   26.4490 N.am    1  UNL1       -0.2000
     17 C         -25.0260    6.4790   26.9630 C.3     1  UNL1        0.1388
     18 O         -25.1430    3.9660   28.2430 O.2     1  UNL1       -0.2687
     19 C         -27.4380    3.0910   25.6450 C.2     1  UNL1        0.1021
     20 N         -28.0750    2.0890   25.0030 N.2     1  UNL1       -0.2119
     21 C         -27.5430    0.8490   25.0790 C.2     1  UNL1        0.2341
     22 O         -28.1930   -0.2080   24.4770 O.2     1  UNL1       -0.4585
     23 C         -29.4600    0.0050   23.8660 C.3     1  UNL1        0.2423
     24 C         -30.0650   -1.3770   23.5730 C.3     1  UNL1        0.2292
     25 O         -30.7290   -1.8780   24.7210 O.3     1  UNL1       -0.2162
     26 C         -26.3540    0.5760   25.7770 C.3     1  UNL1        0.2401
     27 F         -25.8600   -0.6810   25.7950 F       1  UNL1       -0.2269
     28 C         -24.7780    1.2340   27.6807 C.3     1  UNL1        0.0393
     29 C         -27.3947    1.8248   29.4302 C.3     1  UNL1        0.0025
     30 C         -23.0324    1.8933   24.7961 C.3     1  UNL1        0.1769
     31 O         -26.9803   -0.5192   28.5715 O.3     1  UNL1       -0.2228
     32 C         -26.0048    1.1538   29.0549 C.3     1  UNL1        0.0314
     33 C         -24.7515    1.9011   29.0632 C.3     1  UNL1        0.0056
     34 C         -21.0130   -0.3100   28.9204 C.3     1  UNL1        0.0642
     35 C         -22.0655    1.6688   27.0753 C.3     1  UNL1        0.2634
     36 C         -20.1785    0.7025   28.1083 C.3     1  UNL1        0.1475
     37 C         -22.3546    0.2803   29.2441 C.3     1  UNL1        0.1449
     38 O         -20.9111    1.8047   27.6211 O.3     1  UNL1       -0.3286
     39 C         -23.4677    0.9004   27.1072 C.3     1  UNL1        0.1716
     40 C         -26.0336   -0.2384   29.4142 C.3     1  UNL1        0.1572
     41 O         -23.2391   -0.1320   28.0522 O.3     1  UNL1       -0.3510
     42 O         -21.9128    1.8079   25.5352 O.3     1  UNL1       -0.3260
     43 C         -27.5531    2.9657   30.3923 C.3     1  UNL1        0.0001
@<TRIPOS>BOND
     1     1    40    1
     2     2     7    1
     3     2     1    1
     4     3     2    2
     5     4     3    1
     6     4     5    2
     7     5     6    1
     8     6     7    2
     9     8     1    1
    10     8     9    1
    11     8    12    1
    12     9    10    1
    13    10    11    1
    14    12    11    1
    15    13    14    1
    16    13    28    1
    17    14    15    1
    18    15    18    2
    19    16    17    1
    20    16    15    1
    21    19    14    2
    22    20    21    2
    23    20    19    1
    24    21    26    1
    25    22    21    1
    26    23    22    1
    27    24    23    1
    28    24    25    1
    29    26    27    1
    30    26    13    1
    31    28    32    1
    32    28    33    1
    33    29    43    1
    34    30    42    1
    35    32    33    1
    36    32    40    1
    37    32    29    1
    38    34    37    1
    39    35    42    1
    40    35    39    1
    41    35    38    1
    42    36    34    1
    43    38    36    1
    44    39    28    1
    45    39    41    1
    46    40    31    1
    47    41    37    1
