@<TRIPOS>MOLECULE
outputs/IAG933/test6/raw/output_7763_IAG933_linker_design_.xyz
 48 53 0 0 0
SMALL
GASTEIGER

@<TRIPOS>ATOM
      1 C         -24.8550   -1.0120   30.1430 C.3     1  UNL1        0.0845
      2 C         -24.9730   -2.5050   29.7880 C.2     1  UNL1       -0.0173
      3 C         -23.9060   -3.1730   29.1460 C.2     1  UNL1       -0.0041
      4 C         -23.9890   -4.5490   28.8530 C.2     1  UNL1       -0.0003
      5 C         -25.1370   -5.2800   29.2050 C.2     1  UNL1       -0.0000
      6 C         -26.2320   -4.6110   29.7840 C.2     1  UNL1       -0.0003
      7 C         -26.1550   -3.2320   30.0650 C.2     1  UNL1       -0.0041
      8 C         -25.3870   -0.6790   31.5710 C.3     1  UNL1        0.0807
      9 C         -25.1890    0.7730   32.0280 C.3     1  UNL1        0.0193
     10 C         -25.3360    0.6840   33.5440 C.3     1  UNL1        0.0202
     11 C         -24.8290   -0.7150   33.9050 C.3     1  UNL1        0.0887
     12 N         -24.7580   -1.4810   32.6460 N.3     1  UNL1       -0.2190
     13 C         -25.6880    1.6140   26.4610 C.3     1  UNL1        0.0885
     14 C         -26.2500    2.9200   26.3950 C.2     1  UNL1        0.0562
     15 C         -25.6420    4.0930   27.1230 C.2     1  UNL1        0.2625
     16 N         -25.6140    5.2520   26.4490 N.am    1  UNL1       -0.2000
     17 C         -25.0260    6.4790   26.9630 C.3     1  UNL1        0.1388
     18 O         -25.1430    3.9660   28.2430 O.2     1  UNL1       -0.2687
     19 C         -27.4380    3.0910   25.6450 C.2     1  UNL1        0.1022
     20 N         -28.0750    2.0890   25.0030 N.2     1  UNL1       -0.2119
     21 C         -27.5430    0.8490   25.0790 C.2     1  UNL1        0.2341
     22 O         -28.1930   -0.2080   24.4770 O.2     1  UNL1       -0.4585
     23 C         -29.4600    0.0050   23.8660 C.3     1  UNL1        0.2423
     24 C         -30.0650   -1.3770   23.5730 C.3     1  UNL1        0.2292
     25 O         -30.7290   -1.8780   24.7210 O.3     1  UNL1       -0.2162
     26 C         -26.3540    0.5760   25.7770 C.3     1  UNL1        0.2414
     27 F         -25.8600   -0.6810   25.7950 F       1  UNL1       -0.2268
     28 C         -30.3575    2.4873   27.5333 C.3     1  UNL1        0.0467
     29 O         -25.1816   -0.3789   28.0149 O.3     1  UNL1       -0.2656
     30 C         -23.1760    0.6743   28.8831 C.3     1  UNL1        0.1772
     31 N         -27.1874   -0.3541   29.4349 N.3     1  UNL1       -0.1899
     32 C         -30.7984    4.6384   29.9674 C.3     1  UNL1        0.0720
     33 C         -30.3923    5.3614   27.1257 C.3     1  UNL1        0.0161
     34 C         -28.5836    0.1768   29.0700 C.3     1  UNL1        0.0940
     35 C         -28.6130    1.7046   29.0177 C.3     1  UNL1        0.0350
     36 C         -30.7229    3.9229   27.7360 C.3     1  UNL1        0.0601
     37 N         -30.6009    0.0679   27.6534 N.3     1  UNL1       -0.2165
     38 N         -23.9847    0.3903   27.8239 N.3     1  UNL1       -0.1507
     39 C         -29.9313    6.3256   28.2424 C.3     1  UNL1        0.0028
     40 C         -30.8673    6.0933   29.4645 C.3     1  UNL1        0.0174
     41 C         -31.2939    1.3058   27.1794 C.3     1  UNL1        0.0914
     42 C         -21.3144    1.7533   27.1443 C.1     1  UNL1       -0.0126
     43 C         -22.1063    1.3332   28.0145 C.1     1  UNL1       -0.0576
     44 C         -29.1729   -0.3376   27.7575 C.3     1  UNL1        0.1061
     45 C         -25.8131   -0.3176   29.0842 C.3     1  UNL1        0.2163
     46 C         -29.8755    2.5283   28.8674 C.3     1  UNL1        0.0615
     47 N         -29.9585    3.8807   29.0140 N.3     1  UNL1       -0.2750
     48 C         -24.2985    1.3989   26.8898 C.3     1  UNL1        0.1100
@<TRIPOS>BOND
     1     1    45    1
     2     2     7    1
     3     2     1    1
     4     3     2    2
     5     4     3    1
     6     4     5    2
     7     5     6    1
     8     6     7    2
     9     8     1    1
    10     8     9    1
    11     8    12    1
    12     9    10    1
    13    10    11    1
    14    12    11    1
    15    13    48    1
    16    14    13    1
    17    14    15    1
    18    15    18    2
    19    16    17    1
    20    16    15    1
    21    19    14    2
    22    20    21    2
    23    20    19    1
    24    21    26    1
    25    22    21    1
    26    23    22    1
    27    24    23    1
    28    24    25    1
    29    26    27    1
    30    26    13    1
    31    28    41    1
    32    28    36    1
    33    28    46    1
    34    33    39    1
    35    34    31    1
    36    35    34    1
    37    36    33    1
    38    36    47    1
    39    37    44    1
    40    38    29    1
    41    38    30    1
    42    39    40    1
    43    40    32    1
    44    41    37    1
    45    42    43    3
    46    43    30    1
    47    44    34    1
    48    45    29    1
    49    45    31    1
    50    46    47    1
    51    46    35    1
    52    47    32    1
    53    48    38    1
