@<TRIPOS>MOLECULE
outputs/IAG933/test6/raw/output_7767_IAG933_linker_design_.xyz
 40 44 0 0 0
SMALL
GASTEIGER

@<TRIPOS>ATOM
      1 C         -24.8550   -1.0120   30.1430 C.3     1  UNL1        0.1155
      2 C         -24.9730   -2.5050   29.7880 C.2     1  UNL1       -0.0125
      3 C         -23.9060   -3.1730   29.1460 C.2     1  UNL1       -0.0038
      4 C         -23.9890   -4.5490   28.8530 C.2     1  UNL1       -0.0003
      5 C         -25.1370   -5.2800   29.2050 C.2     1  UNL1       -0.0000
      6 C         -26.2320   -4.6110   29.7840 C.2     1  UNL1       -0.0003
      7 C         -26.1550   -3.2320   30.0650 C.2     1  UNL1       -0.0038
      8 C         -25.3870   -0.6790   31.5710 C.3     1  UNL1        0.0855
      9 C         -25.1890    0.7730   32.0280 C.3     1  UNL1        0.0197
     10 C         -25.3360    0.6840   33.5440 C.3     1  UNL1        0.0203
     11 C         -24.8290   -0.7150   33.9050 C.3     1  UNL1        0.0887
     12 N         -24.7580   -1.4810   32.6460 N.3     1  UNL1       -0.2186
     13 C         -25.6880    1.6140   26.4610 C.3     1  UNL1        0.0844
     14 C         -26.2500    2.9200   26.3950 C.2     1  UNL1        0.0556
     15 C         -25.6420    4.0930   27.1230 C.2     1  UNL1        0.2625
     16 N         -25.6140    5.2520   26.4490 N.am    1  UNL1       -0.2000
     17 C         -25.0260    6.4790   26.9630 C.3     1  UNL1        0.1388
     18 O         -25.1430    3.9660   28.2430 O.2     1  UNL1       -0.2687
     19 C         -27.4380    3.0910   25.6450 C.2     1  UNL1        0.1022
     20 N         -28.0750    2.0890   25.0030 N.2     1  UNL1       -0.2119
     21 C         -27.5430    0.8490   25.0790 C.2     1  UNL1        0.2341
     22 O         -28.1930   -0.2080   24.4770 O.2     1  UNL1       -0.4585
     23 C         -29.4600    0.0050   23.8660 C.3     1  UNL1        0.2423
     24 C         -30.0650   -1.3770   23.5730 C.3     1  UNL1        0.2292
     25 O         -30.7290   -1.8780   24.7210 O.3     1  UNL1       -0.2162
     26 C         -26.3540    0.5760   25.7770 C.3     1  UNL1        0.2408
     27 F         -25.8600   -0.6810   25.7950 F       1  UNL1       -0.2269
     28 O         -20.8154    0.9743   27.9339 O.2     1  UNL1       -0.4320
     29 C         -24.5347   -0.0315   29.2400 C.2     1  UNL1        0.2381
     30 O         -25.6144    0.5734   28.8240 O.2     1  UNL1       -0.2738
     31 C         -23.3437    1.0089   27.6796 C.2     1  UNL1        0.0961
     32 C         -24.2143    1.5854   26.7119 C.3     1  UNL1        0.1275
     33 C         -21.9706    1.3589   27.3047 C.2     1  UNL1        0.2425
     34 C         -23.4427    2.3623   25.9069 C.2     1  UNL1        0.2639
     35 N         -23.3536    0.1966   28.7989 N.am    1  UNL1       -0.2317
     36 O         -23.8020    3.2047   25.1122 O.2     1  UNL1       -0.2717
     37 C         -20.9631    0.0620   28.8737 C.2     1  UNL1        0.1978
     38 F         -21.2292    2.3662   25.4051 F       1  UNL1       -0.0983
     39 C         -22.2701   -0.3292   29.4069 C.2     1  UNL1        0.1128
     40 N         -22.1534    2.0691   26.2196 N.am    1  UNL1       -0.0692
@<TRIPOS>BOND
     1     1    29    1
     2     2     7    1
     3     2     1    1
     4     3     2    2
     5     4     3    1
     6     4     5    2
     7     5     6    1
     8     6     7    2
     9     8     1    1
    10     8     9    1
    11     8    12    1
    12     9    10    1
    13    10    11    1
    14    12    11    1
    15    13    14    1
    16    13    32    1
    17    14    15    1
    18    15    18    2
    19    16    17    1
    20    16    15    1
    21    19    14    2
    22    20    21    2
    23    20    19    1
    24    21    26    1
    25    22    21    1
    26    23    22    1
    27    24    23    1
    28    24    25    1
    29    26    27    1
    30    26    13    1
    31    28    37    1
    32    30    29    2
    33    31    35    1
    34    32    34    1
    35    32    31    1
    36    33    31    2
    37    33    28    1
    38    34    40   am
    39    35    29   am
    40    35    39    1
    41    36    34    2
    42    37    39    2
    43    38    40    1
    44    40    33    1
