@<TRIPOS>MOLECULE
outputs/IAG933/test6/raw/output_7772_IAG933_linker_design_.xyz
 48 52 0 0 0
SMALL
GASTEIGER

@<TRIPOS>ATOM
      1 C         -24.8550   -1.0120   30.1430 C.3     1  UNL1        0.1180
      2 C         -24.9730   -2.5050   29.7880 C.2     1  UNL1       -0.0026
      3 C         -23.9060   -3.1730   29.1460 C.2     1  UNL1       -0.0026
      4 C         -23.9890   -4.5490   28.8530 C.2     1  UNL1       -0.0003
      5 C         -25.1370   -5.2800   29.2050 C.2     1  UNL1       -0.0000
      6 C         -26.2320   -4.6110   29.7840 C.2     1  UNL1       -0.0003
      7 C         -26.1550   -3.2320   30.0650 C.2     1  UNL1       -0.0026
      8 C         -25.3870   -0.6790   31.5710 C.3     1  UNL1        0.0955
      9 C         -25.1890    0.7730   32.0280 C.3     1  UNL1        0.0209
     10 C         -25.3360    0.6840   33.5440 C.3     1  UNL1        0.0203
     11 C         -24.8290   -0.7150   33.9050 C.3     1  UNL1        0.0888
     12 N         -24.7580   -1.4810   32.6460 N.3     1  UNL1       -0.2174
     13 C         -25.6880    1.6140   26.4610 C.2     1  UNL1        0.0401
     14 C         -26.2500    2.9200   26.3950 C.2     1  UNL1        0.0766
     15 C         -25.6420    4.0930   27.1230 C.2     1  UNL1        0.2664
     16 N         -25.6140    5.2520   26.4490 N.am    1  UNL1       -0.1997
     17 C         -25.0260    6.4790   26.9630 C.3     1  UNL1        0.1388
     18 O         -25.1430    3.9660   28.2430 O.2     1  UNL1       -0.2683
     19 C         -27.4380    3.0910   25.6450 C.2     1  UNL1        0.1067
     20 N         -28.0750    2.0890   25.0030 N.2     1  UNL1       -0.2081
     21 C         -27.5430    0.8490   25.0790 C.2     1  UNL1        0.2533
     22 O         -28.1930   -0.2080   24.4770 O.2     1  UNL1       -0.4558
     23 C         -29.4600    0.0050   23.8660 C.3     1  UNL1        0.2426
     24 C         -30.0650   -1.3770   23.5730 C.3     1  UNL1        0.2292
     25 O         -30.7290   -1.8780   24.7210 O.3     1  UNL1       -0.2162
     26 C         -26.3540    0.5760   25.7770 C.2     1  UNL1        0.1931
     27 F         -25.8600   -0.6810   25.7950 F       1  UNL1       -0.1992
     28 C         -27.9521    1.5234   29.5506 C.3     1  UNL1        0.1029
     29 N         -30.4437    5.9323   30.0988 N.pl3   1  UNL1       -0.1856
     30 N         -32.5726    6.2075   31.1706 N.pl3   1  UNL1        0.1298
     31 C         -23.1928    1.9380   26.5602 C.2     1  UNL1        0.0589
     32 N         -25.1532    0.0821   29.1815 N.am    1  UNL1       -0.2549
     33 N         -28.7138    3.8667   30.4661 N.3     1  UNL1       -0.2667
     34 CL        -23.1875    2.9725   25.1495 Cl      1  UNL1       -0.0822
     35 C         -21.6882    0.8582   28.2595 C.2     1  UNL1        0.0021
     36 C         -24.3947    1.3267   27.1768 C.2     1  UNL1        0.0268
     37 C         -24.1953    0.5667   28.4084 C.2     1  UNL1        0.0550
     38 C         -21.9049    1.7000   27.1271 C.2     1  UNL1        0.0115
     39 C         -29.9318    5.3064   28.8287 C.3     1  UNL1        0.1851
     40 C         -29.3248    6.3537   31.0255 C.3     1  UNL1        0.1851
     41 C         -27.6912    2.7696   30.4213 C.3     1  UNL1        0.0819
     42 C         -26.6410    0.7021   29.2854 C.2     1  UNL1        0.2310
     43 N         -31.7432    7.7726   29.7640 N.pl3   1  UNL1        0.1298
     44 C         -22.8305    0.2691   28.8683 C.2     1  UNL1        0.0150
     45 C         -28.2694    5.2107   30.9050 C.3     1  UNL1        0.1132
     46 C         -31.6295    6.6098   30.3679 C.cat   1  UNL1        0.4955
     47 C         -29.4083    3.8934   29.1355 C.3     1  UNL1        0.1132
     48 O         -27.3050   -0.3113   28.8694 O.2     1  UNL1       -0.2745
@<TRIPOS>BOND
     1     1    32    1
     2     2     7    1
     3     2     1    1
     4     3     2    2
     5     4     3    1
     6     4     5    2
     7     5     6    1
     8     6     7    2
     9     8     1    1
    10     8     9    1
    11     8    12    1
    12     9    10    1
    13    10    11    1
    14    12    11    1
    15    13    36    1
    16    14    13    1
    17    14    15    1
    18    15    18    2
    19    16    17    1
    20    16    15    1
    21    19    14    2
    22    20    21    2
    23    20    19    1
    24    21    26    1
    25    22    21    1
    26    23    22    1
    27    24    23    1
    28    24    25    1
    29    26    27    1
    30    26    13    2
    31    28    41    1
    32    29    46    1
    33    29    40    1
    34    31    38    2
    35    31    36    1
    36    32    42   am
    37    33    45    1
    38    34    31    1
    39    35    44    2
    40    36    37    2
    41    37    44    1
    42    37    32    1
    43    38    35    1
    44    39    47    1
    45    39    29    1
    46    41    33    1
    47    42    28    1
    48    43    46    2
    49    45    40    1
    50    46    30    1
    51    47    33    1
    52    48    42    2
