@<TRIPOS>MOLECULE
outputs/IAG933/test6/raw/output_7775_IAG933_linker_design_.xyz
 47 52 0 0 0
SMALL
GASTEIGER

@<TRIPOS>ATOM
      1 C         -24.8550   -1.0120   30.1430 C.3     1  UNL1        0.0963
      2 C         -24.9730   -2.5050   29.7880 C.2     1  UNL1       -0.0064
      3 C         -23.9060   -3.1730   29.1460 C.2     1  UNL1       -0.0029
      4 C         -23.9890   -4.5490   28.8530 C.2     1  UNL1       -0.0003
      5 C         -25.1370   -5.2800   29.2050 C.2     1  UNL1       -0.0000
      6 C         -26.2320   -4.6110   29.7840 C.2     1  UNL1       -0.0003
      7 C         -26.1550   -3.2320   30.0650 C.2     1  UNL1       -0.0029
      8 C         -25.3870   -0.6790   31.5710 C.3     1  UNL1        0.0916
      9 C         -25.1890    0.7730   32.0280 C.3     1  UNL1        0.0206
     10 C         -25.3360    0.6840   33.5440 C.3     1  UNL1        0.0203
     11 C         -24.8290   -0.7150   33.9050 C.3     1  UNL1        0.0888
     12 N         -24.7580   -1.4810   32.6460 N.3     1  UNL1       -0.2178
     13 C         -25.6880    1.6140   26.4610 C.3     1  UNL1        0.0719
     14 C         -26.2500    2.9200   26.3950 C.2     1  UNL1        0.0549
     15 C         -25.6420    4.0930   27.1230 C.2     1  UNL1        0.2624
     16 N         -25.6140    5.2520   26.4490 N.am    1  UNL1       -0.2000
     17 C         -25.0260    6.4790   26.9630 C.3     1  UNL1        0.1388
     18 O         -25.1430    3.9660   28.2430 O.2     1  UNL1       -0.2687
     19 C         -27.4380    3.0910   25.6450 C.2     1  UNL1        0.1021
     20 N         -28.0750    2.0890   25.0030 N.2     1  UNL1       -0.2119
     21 C         -27.5430    0.8490   25.0790 C.2     1  UNL1        0.2341
     22 O         -28.1930   -0.2080   24.4770 O.2     1  UNL1       -0.4585
     23 C         -29.4600    0.0050   23.8660 C.3     1  UNL1        0.2423
     24 C         -30.0650   -1.3770   23.5730 C.3     1  UNL1        0.2292
     25 O         -30.7290   -1.8780   24.7210 O.3     1  UNL1       -0.2162
     26 C         -26.3540    0.5760   25.7770 C.3     1  UNL1        0.2400
     27 F         -25.8600   -0.6810   25.7950 F       1  UNL1       -0.2269
     28 O         -31.9405   -1.5565   27.4626 O.2     1  UNL1       -0.4801
     29 C         -31.6419   -3.2992   29.2558 C.3     1  UNL1        0.0478
     30 C         -27.6746   -1.0816   29.1267 C.3     1  UNL1        0.0178
     31 C         -30.1023   -1.2306   29.1431 C.3     1  UNL1        0.0567
     32 C         -32.6070   -2.4696   28.3806 C.3     1  UNL1        0.2049
     33 C         -31.1121    0.6917   28.0282 C.2     1  UNL1        0.0062
     34 C         -30.4587   -2.5282   29.8930 C.3     1  UNL1        0.0113
     35 C         -31.0446   -0.7120   28.1630 C.2     1  UNL1        0.1113
     36 C         -30.2255    1.4833   28.8050 C.3     1  UNL1        0.0289
     37 C         -29.0967    0.8904   29.4647 C.3     1  UNL1        0.0052
     38 C         -25.5139    0.8710   28.7486 C.3     1  UNL1        0.0731
     39 C         -23.4462    1.2682   27.0866 C.3     1  UNL1        0.0594
     40 C         -26.5609    0.1137   28.7908 C.3     1  UNL1        0.0724
     41 C         -22.3091    0.9105   27.9859 C.2     1  UNL1        0.1507
     42 O         -22.3667    0.2779   29.0186 O.2     1  UNL1       -0.2961
     43 C         -21.1057    1.6942   27.5185 C.3     1  UNL1        0.0722
     44 C         -24.7578    1.2231   27.5231 C.3     1  UNL1        0.0303
     45 C         -23.0895    2.0217   25.8104 C.3     1  UNL1        0.0078
     46 N         -25.4536   -0.1401   29.2186 N.3     1  UNL1       -0.2692
     47 C         -28.9501   -0.4753   29.2501 C.3     1  UNL1        0.0088
@<TRIPOS>BOND
     1     1     2    1
     2     2     7    1
     3     3     2    2
     4     4     3    1
     5     4     5    2
     6     5     6    1
     7     6     7    2
     8     8     1    1
     9     8     9    1
    10     8    12    1
    11     9    10    1
    12    10    11    1
    13    12    11    1
    14    13    44    1
    15    14    13    1
    16    14    15    1
    17    15    18    2
    18    16    17    1
    19    16    15    1
    20    19    14    2
    21    20    21    2
    22    20    19    1
    23    21    26    1
    24    22    21    1
    25    23    22    1
    26    24    23    1
    27    24    25    1
    28    26    27    1
    29    26    13    1
    30    28    35    1
    31    28    32    1
    32    29    34    1
    33    31    47    1
    34    31    34    1
    35    32    29    1
    36    33    35    2
    37    33    36    1
    38    35    31    1
    39    36    37    1
    40    38    44    1
    41    38    40    1
    42    38    46    1
    43    39    45    1
    44    39    41    1
    45    40    30    1
    46    40    46    1
    47    41    42    2
    48    43    41    1
    49    44    39    1
    50    46     1    1
    51    47    30    1
    52    47    37    1
