@<TRIPOS>MOLECULE
outputs/IAG933/test6/raw/output_7777_IAG933_linker_design_.xyz
 45 47 0 0 0
SMALL
GASTEIGER

@<TRIPOS>ATOM
      1 C         -24.8550   -1.0120   30.1430 C.3     1  UNL1        0.1140
      2 C         -24.9730   -2.5050   29.7880 C.2     1  UNL1       -0.0050
      3 C         -23.9060   -3.1730   29.1460 C.2     1  UNL1       -0.0029
      4 C         -23.9890   -4.5490   28.8530 C.2     1  UNL1       -0.0003
      5 C         -25.1370   -5.2800   29.2050 C.2     1  UNL1       -0.0000
      6 C         -26.2320   -4.6110   29.7840 C.2     1  UNL1       -0.0003
      7 C         -26.1550   -3.2320   30.0650 C.2     1  UNL1       -0.0029
      8 C         -25.3870   -0.6790   31.5710 C.3     1  UNL1        0.0930
      9 C         -25.1890    0.7730   32.0280 C.3     1  UNL1        0.0206
     10 C         -25.3360    0.6840   33.5440 C.3     1  UNL1        0.0203
     11 C         -24.8290   -0.7150   33.9050 C.3     1  UNL1        0.0888
     12 N         -24.7580   -1.4810   32.6460 N.3     1  UNL1       -0.2177
     13 C         -25.6880    1.6140   26.4610 C.2     1  UNL1        0.0407
     14 C         -26.2500    2.9200   26.3950 C.2     1  UNL1        0.0745
     15 C         -25.6420    4.0930   27.1230 C.2     1  UNL1        0.2244
     16 N         -25.6140    5.2520   26.4490 N.2     1  UNL1       -0.2356
     17 C         -25.0260    6.4790   26.9630 C.3     1  UNL1        0.1550
     18 O         -25.1430    3.9660   28.2430 O.2     1  UNL1       -0.4306
     19 C         -27.4380    3.0910   25.6450 C.2     1  UNL1        0.1068
     20 N         -28.0750    2.0890   25.0030 N.2     1  UNL1       -0.2081
     21 C         -27.5430    0.8490   25.0790 C.2     1  UNL1        0.2533
     22 O         -28.1930   -0.2080   24.4770 O.2     1  UNL1       -0.4558
     23 C         -29.4600    0.0050   23.8660 C.3     1  UNL1        0.2426
     24 C         -30.0650   -1.3770   23.5730 C.3     1  UNL1        0.2292
     25 O         -30.7290   -1.8780   24.7210 O.3     1  UNL1       -0.2162
     26 C         -26.3540    0.5760   25.7770 C.2     1  UNL1        0.1931
     27 F         -25.8600   -0.6810   25.7950 F       1  UNL1       -0.1992
     28 C         -26.2163    5.9041   32.1708 C.3     1  UNL1        0.1071
     29 C         -24.2216    0.9304   29.1565 C.3     1  UNL1        0.2508
     30 N         -24.6925    2.1153   29.5420 N.3     1  UNL1       -0.1258
     31 N         -24.7849    7.2156   33.5039 N.3     1  UNL1       -0.1309
     32 O         -22.9476    2.3443   27.2495 O.2     1  UNL1       -0.4580
     33 C         -25.5056    3.0500   29.1118 C.3     1  UNL1        0.3467
     34 N         -26.7133    3.3167   29.4994 N.3     1  UNL1       -0.0663
     35 N         -27.0294    4.4214   30.1719 N.am    1  UNL1       -0.1710
     36 N         -25.2272   -0.1561   29.1597 N.3     1  UNL1       -0.1785
     37 C         -26.1545    5.5105   30.6220 C.2     1  UNL1        0.2436
     38 O         -29.2727    3.4163   30.4497 O.3     1  UNL1       -0.1944
     39 C         -22.1459    2.5132   26.0504 C.3     1  UNL1        0.2540
     40 C         -25.6980    7.2982   32.3561 C.3     1  UNL1        0.1189
     41 C         -21.0844    1.4404   27.9140 C.2     1  UNL1        0.0592
     42 C         -22.3895    1.4588   28.0977 C.2     1  UNL1        0.2122
     43 O         -25.4379    6.1648   29.9376 O.2     1  UNL1       -0.2734
     44 C         -28.4639    4.5860   30.4135 C.3     1  UNL1        0.2962
     45 N         -23.0094    0.6189   28.9598 N.pl3   1  UNL1       -0.1721
@<TRIPOS>BOND
     1     1    36    1
     2     2     7    1
     3     2     1    1
     4     3     2    2
     5     4     3    1
     6     4     5    2
     7     5     6    1
     8     6     7    2
     9     8     1    1
    10     8     9    1
    11     8    12    1
    12     9    10    1
    13    10    11    1
    14    12    11    1
    15    14    13    1
    16    14    15    1
    17    15    18    1
    18    16    17    1
    19    16    15    2
    20    19    14    2
    21    20    21    2
    22    20    19    1
    23    21    26    1
    24    22    21    1
    25    23    22    1
    26    24    23    1
    27    24    25    1
    28    26    27    1
    29    26    13    2
    30    28    40    1
    31    29    45    1
    32    29    36    1
    33    29    30    1
    34    32    42    1
    35    33    18    1
    36    33    34    1
    37    33    30    1
    38    34    35    1
    39    35    44    1
    40    35    37   am
    41    37    28    1
    42    39    32    1
    43    40    31    1
    44    41    42    2
    45    42    45    1
    46    43    37    2
    47    44    38    1
