@<TRIPOS>MOLECULE
outputs/IAG933/test6/raw/output_7783_IAG933_linker_design_.xyz
 45 49 0 0 0
SMALL
GASTEIGER

@<TRIPOS>ATOM
      1 C         -24.8550   -1.0120   30.1430 C.3     1  UNL1        0.0971
      2 C         -24.9730   -2.5050   29.7880 C.2     1  UNL1       -0.0064
      3 C         -23.9060   -3.1730   29.1460 C.2     1  UNL1       -0.0029
      4 C         -23.9890   -4.5490   28.8530 C.2     1  UNL1       -0.0003
      5 C         -25.1370   -5.2800   29.2050 C.2     1  UNL1       -0.0000
      6 C         -26.2320   -4.6110   29.7840 C.2     1  UNL1       -0.0003
      7 C         -26.1550   -3.2320   30.0650 C.2     1  UNL1       -0.0029
      8 C         -25.3870   -0.6790   31.5710 C.3     1  UNL1        0.0916
      9 C         -25.1890    0.7730   32.0280 C.3     1  UNL1        0.0206
     10 C         -25.3360    0.6840   33.5440 C.3     1  UNL1        0.0203
     11 C         -24.8290   -0.7150   33.9050 C.3     1  UNL1        0.0888
     12 N         -24.7580   -1.4810   32.6460 N.3     1  UNL1       -0.2178
     13 C         -25.6880    1.6140   26.4610 C.2     1  UNL1        0.0366
     14 C         -26.2500    2.9200   26.3950 C.2     1  UNL1        0.0763
     15 C         -25.6420    4.0930   27.1230 C.2     1  UNL1        0.2664
     16 N         -25.6140    5.2520   26.4490 N.am    1  UNL1       -0.1997
     17 C         -25.0260    6.4790   26.9630 C.3     1  UNL1        0.1388
     18 O         -25.1430    3.9660   28.2430 O.2     1  UNL1       -0.2683
     19 C         -27.4380    3.0910   25.6450 C.2     1  UNL1        0.1067
     20 N         -28.0750    2.0890   25.0030 N.2     1  UNL1       -0.2081
     21 C         -27.5430    0.8490   25.0790 C.2     1  UNL1        0.2533
     22 O         -28.1930   -0.2080   24.4770 O.2     1  UNL1       -0.4558
     23 C         -29.4600    0.0050   23.8660 C.3     1  UNL1        0.2426
     24 C         -30.0650   -1.3770   23.5730 C.3     1  UNL1        0.2292
     25 O         -30.7290   -1.8780   24.7210 O.3     1  UNL1       -0.2162
     26 C         -26.3540    0.5760   25.7770 C.2     1  UNL1        0.1928
     27 F         -25.8600   -0.6810   25.7950 F       1  UNL1       -0.1992
     28 CL        -22.7870    2.6487   25.3626 Cl      1  UNL1       -0.0810
     29 C         -23.0782    0.6649   28.7049 C.2     1  UNL1        0.1537
     30 C         -28.0214    0.2724   29.2889 C.2     1  UNL1        0.2437
     31 C         -31.0528   -1.0574   27.7110 C.3     1  UNL1        0.0560
     32 N         -29.2444   -0.2487   28.9749 N.am    1  UNL1       -0.2541
     33 C         -23.2370    1.7765   26.7800 C.2     1  UNL1        0.0740
     34 C         -22.3289    1.4500   27.7606 C.2     1  UNL1        0.1242
     35 N         -25.3628   -0.1802   29.0355 N.3     1  UNL1       -0.2535
     36 F         -22.4699    0.0078   29.6830 F       1  UNL1       -0.2057
     37 O         -30.6038    1.3090   27.8638 O.3     1  UNL1       -0.2006
     38 C         -30.0124    0.0562   27.8503 C.3     1  UNL1        0.2302
     39 C         -29.9493   -1.1615   29.8134 C.3     1  UNL1        0.0959
     40 C         -24.4991    1.2973   27.1528 C.2     1  UNL1        0.0132
     41 N         -20.8732    1.6726   27.8104 N.pl3   1  UNL1       -0.1251
     42 C         -26.8054   -0.4107   28.6652 C.3     1  UNL1        0.1595
     43 C         -24.4027    0.5670   28.3545 C.3     1  UNL1        0.1340
     44 O         -27.9784    1.1850   30.0529 O.2     1  UNL1       -0.2733
     45 C         -31.0275   -1.7442   29.0646 C.3     1  UNL1        0.0260
@<TRIPOS>BOND
     1     1    35    1
     2     2     7    1
     3     2     1    1
     4     3     2    2
     5     4     3    1
     6     4     5    2
     7     5     6    1
     8     6     7    2
     9     8     1    1
    10     8     9    1
    11     8    12    1
    12     9    10    1
    13    10    11    1
    14    12    11    1
    15    13    40    1
    16    14    13    1
    17    14    15    1
    18    15    18    2
    19    16    17    1
    20    16    15    1
    21    19    14    2
    22    20    21    2
    23    20    19    1
    24    21    26    1
    25    22    21    1
    26    23    22    1
    27    24    23    1
    28    24    25    1
    29    26    27    1
    30    26    13    2
    31    28    33    1
    32    29    36    1
    33    30    44    2
    34    31    38    1
    35    31    45    1
    36    32    30   am
    37    32    39    1
    38    33    40    2
    39    33    34    1
    40    34    41    1
    41    34    29    2
    42    38    37    1
    43    38    32    1
    44    40    43    1
    45    42    35    1
    46    42    30    1
    47    43    29    1
    48    43    35    1
    49    45    39    1
