@<TRIPOS>MOLECULE
outputs/IAG933/test6/raw/output_7785_IAG933_linker_design_.xyz
 45 50 0 0 0
SMALL
GASTEIGER

@<TRIPOS>ATOM
      1 C         -24.8550   -1.0120   30.1430 C.3     1  UNL1        0.0977
      2 C         -24.9730   -2.5050   29.7880 C.2     1  UNL1       -0.0064
      3 C         -23.9060   -3.1730   29.1460 C.2     1  UNL1       -0.0029
      4 C         -23.9890   -4.5490   28.8530 C.2     1  UNL1       -0.0003
      5 C         -25.1370   -5.2800   29.2050 C.2     1  UNL1       -0.0000
      6 C         -26.2320   -4.6110   29.7840 C.2     1  UNL1       -0.0003
      7 C         -26.1550   -3.2320   30.0650 C.2     1  UNL1       -0.0029
      8 C         -25.3870   -0.6790   31.5710 C.3     1  UNL1        0.0916
      9 C         -25.1890    0.7730   32.0280 C.3     1  UNL1        0.0206
     10 C         -25.3360    0.6840   33.5440 C.3     1  UNL1        0.0203
     11 C         -24.8290   -0.7150   33.9050 C.3     1  UNL1        0.0888
     12 N         -24.7580   -1.4810   32.6460 N.3     1  UNL1       -0.2178
     13 C         -25.6880    1.6140   26.4610 C.2     1  UNL1        0.0229
     14 C         -26.2500    2.9200   26.3950 C.2     1  UNL1        0.0730
     15 C         -25.6420    4.0930   27.1230 C.2     1  UNL1        0.2661
     16 N         -25.6140    5.2520   26.4490 N.am    1  UNL1       -0.1997
     17 C         -25.0260    6.4790   26.9630 C.3     1  UNL1        0.1388
     18 O         -25.1430    3.9660   28.2430 O.2     1  UNL1       -0.2683
     19 C         -27.4380    3.0910   25.6450 C.2     1  UNL1        0.1064
     20 N         -28.0750    2.0890   25.0030 N.2     1  UNL1       -0.2081
     21 C         -27.5430    0.8490   25.0790 C.2     1  UNL1        0.2530
     22 O         -28.1930   -0.2080   24.4770 O.2     1  UNL1       -0.4558
     23 C         -29.4600    0.0050   23.8660 C.3     1  UNL1        0.2426
     24 C         -30.0650   -1.3770   23.5730 C.3     1  UNL1        0.2292
     25 O         -30.7290   -1.8780   24.7210 O.3     1  UNL1       -0.2162
     26 C         -26.3540    0.5760   25.7770 C.2     1  UNL1        0.1895
     27 F         -25.8600   -0.6810   25.7950 F       1  UNL1       -0.1996
     28 C         -22.5131   -0.6111   29.5340 C.3     1  UNL1        0.1037
     29 O         -20.9514    1.5599   26.9987 O.2     1  UNL1       -0.2870
     30 C         -25.5913    3.8581   31.0174 C.2     1  UNL1        0.2331
     31 O         -28.2873    2.5711   29.1523 O.2     1  UNL1       -0.4533
     32 C         -23.3445    1.4356   26.9912 C.2     1  UNL1        0.0654
     33 C         -21.6160    0.3214   28.7760 C.2     1  UNL1        0.0331
     34 C         -26.0909    2.8637   30.2094 C.2     1  UNL1        0.1633
     35 C         -27.3552    3.3688   29.8012 C.2     1  UNL1        0.2794
     36 C         -21.9409    1.1086   27.6014 C.2     1  UNL1        0.1924
     37 C         -22.9242    2.1294   25.7418 C.2     1  UNL1        0.2335
     38 N         -25.6275    1.6877   29.7463 N.pl3   1  UNL1       -0.2146
     39 O         -21.4732    2.1565   25.6745 O.2     1  UNL1       -0.2835
     40 N         -24.1137   -0.1789   29.4606 N.3     1  UNL1       -0.2487
     41 C         -24.6400    1.2217   27.4506 C.3     1  UNL1        0.0888
     42 O         -26.5984    4.9323   31.0131 O.2     1  UNL1       -0.3457
     43 C         -24.8975    0.8765   28.9266 C.3     1  UNL1        0.1609
     44 C         -29.6788    2.6065   29.4705 C.3     1  UNL1        0.2544
     45 N         -27.5719    4.6786   30.2355 N.2     1  UNL1       -0.0373
@<TRIPOS>BOND
     1     1     2    1
     2     2     7    1
     3     3     2    2
     4     4     3    1
     5     4     5    2
     6     5     6    1
     7     6     7    2
     8     8     1    1
     9     8     9    1
    10     8    12    1
    11     9    10    1
    12    10    11    1
    13    12    11    1
    14    14    13    1
    15    14    15    1
    16    15    18    2
    17    16    17    1
    18    16    15    1
    19    19    14    2
    20    20    21    2
    21    20    19    1
    22    21    26    1
    23    22    21    1
    24    23    22    1
    25    24    23    1
    26    24    25    1
    27    26    27    1
    28    26    13    2
    29    29    36    1
    30    31    44    1
    31    31    35    1
    32    32    41    1
    33    32    36    1
    34    33    28    1
    35    34    30    2
    36    35    34    1
    37    35    45    2
    38    36    33    2
    39    37    32    2
    40    38    34    1
    41    39    37    1
    42    39    29    1
    43    40    28    1
    44    40     1    1
    45    41    13    1
    46    41    43    1
    47    42    30    1
    48    43    40    1
    49    43    38    1
    50    45    42    1
