@<TRIPOS>MOLECULE
outputs/IAG933/test6/raw/output_7796_IAG933_linker_design_.xyz
 42 46 0 0 0
SMALL
GASTEIGER

@<TRIPOS>ATOM
      1 C         -24.8550   -1.0120   30.1430 C.3     1  UNL1        0.2078
      2 C         -24.9730   -2.5050   29.7880 C.2     1  UNL1        0.0160
      3 C         -23.9060   -3.1730   29.1460 C.2     1  UNL1       -0.0011
      4 C         -23.9890   -4.5490   28.8530 C.2     1  UNL1       -0.0002
      5 C         -25.1370   -5.2800   29.2050 C.2     1  UNL1       -0.0000
      6 C         -26.2320   -4.6110   29.7840 C.2     1  UNL1       -0.0002
      7 C         -26.1550   -3.2320   30.0650 C.2     1  UNL1       -0.0011
      8 C         -25.3870   -0.6790   31.5710 C.3     1  UNL1        0.1144
      9 C         -25.1890    0.7730   32.0280 C.3     1  UNL1        0.0226
     10 C         -25.3360    0.6840   33.5440 C.3     1  UNL1        0.0204
     11 C         -24.8290   -0.7150   33.9050 C.3     1  UNL1        0.0888
     12 N         -24.7580   -1.4810   32.6460 N.3     1  UNL1       -0.2158
     13 C         -25.6880    1.6140   26.4610 C.2     1  UNL1        0.0407
     14 C         -26.2500    2.9200   26.3950 C.2     1  UNL1        0.0745
     15 C         -25.6420    4.0930   27.1230 C.2     1  UNL1        0.2247
     16 N         -25.6140    5.2520   26.4490 N.2     1  UNL1       -0.2356
     17 C         -25.0260    6.4790   26.9630 C.3     1  UNL1        0.1550
     18 O         -25.1430    3.9660   28.2430 O.2     1  UNL1       -0.4290
     19 C         -27.4380    3.0910   25.6450 C.2     1  UNL1        0.1068
     20 N         -28.0750    2.0890   25.0030 N.2     1  UNL1       -0.2081
     21 C         -27.5430    0.8490   25.0790 C.2     1  UNL1        0.2533
     22 O         -28.1930   -0.2080   24.4770 O.2     1  UNL1       -0.4558
     23 C         -29.4600    0.0050   23.8660 C.3     1  UNL1        0.2426
     24 C         -30.0650   -1.3770   23.5730 C.3     1  UNL1        0.2292
     25 O         -30.7290   -1.8780   24.7210 O.3     1  UNL1       -0.2162
     26 C         -26.3540    0.5760   25.7770 C.2     1  UNL1        0.1931
     27 F         -25.8600   -0.6810   25.7950 F       1  UNL1       -0.1992
     28 C         -24.3814    0.8072   28.7370 C.2     1  UNL1        0.4040
     29 O         -25.5206    4.5779   31.0068 O.3     1  UNL1       -0.2124
     30 C         -24.5407    1.4857   27.4368 C.3     1  UNL1        0.2198
     31 C         -22.2546    1.5287   26.9765 C.2     1  UNL1        0.2361
     32 N         -25.3852   -0.1003   29.1088 N.pl3   1  UNL1       -0.0651
     33 C         -25.2103    3.0253   29.0986 C.3     1  UNL1        0.3410
     34 O         -21.3414    2.0333   26.1304 O.2     1  UNL1       -0.4251
     35 N         -24.7120    1.7789   28.5603 N.pl3   1  UNL1       -0.1568
     36 O         -20.5869    0.4913   28.0253 O.2     1  UNL1       -0.2448
     37 C         -22.0307    2.6624   25.1802 C.2     1  UNL1        0.2851
     38 C         -21.7847    0.7478   28.0274 C.2     1  UNL1        0.3774
     39 N         -22.8429    0.5252   29.0039 N.am    1  UNL1        0.0021
     40 C         -26.1382    3.5555   30.2775 C.3     1  UNL1        0.2662
     41 N         -23.3826    2.6873   25.4981 N.2     1  UNL1       -0.2051
     42 C         -23.4054    1.8705   26.6338 C.2     1  UNL1        0.1404
@<TRIPOS>BOND
     1     1    32    1
     2     2     7    1
     3     2     1    1
     4     3     2    2
     5     4     3    1
     6     4     5    2
     7     5     6    1
     8     6     7    2
     9     8     1    1
    10     8     9    1
    11     8    12    1
    12     9    10    1
    13    10    11    1
    14    12    11    1
    15    14    13    1
    16    14    15    1
    17    15    18    1
    18    16    17    1
    19    16    15    2
    20    18    33    1
    21    19    14    2
    22    20    21    2
    23    20    19    1
    24    21    26    1
    25    22    21    1
    26    23    22    1
    27    24    23    1
    28    24    25    1
    29    26    27    1
    30    26    13    2
    31    28    39    2
    32    28    32    1
    33    30    35    1
    34    31    38    1
    35    33    40    1
    36    34    31    1
    37    35    28    1
    38    35    33    1
    39    36    38    2
    40    37    41    2
    41    37    34    1
    42    38    39    1
    43    40    29    1
    44    41    42    1
    45    42    31    2
    46    42    30    1
