@<TRIPOS>MOLECULE
outputs/IAG933/test6/raw/output_7798_IAG933_linker_design_.xyz
 44 49 0 0 0
SMALL
GASTEIGER

@<TRIPOS>ATOM
      1 C         -24.8550   -1.0120   30.1430 C.3     1  UNL1        0.1003
      2 C         -24.9730   -2.5050   29.7880 C.2     1  UNL1       -0.0063
      3 C         -23.9060   -3.1730   29.1460 C.2     1  UNL1       -0.0029
      4 C         -23.9890   -4.5490   28.8530 C.2     1  UNL1       -0.0003
      5 C         -25.1370   -5.2800   29.2050 C.2     1  UNL1       -0.0000
      6 C         -26.2320   -4.6110   29.7840 C.2     1  UNL1       -0.0003
      7 C         -26.1550   -3.2320   30.0650 C.2     1  UNL1       -0.0029
      8 C         -25.3870   -0.6790   31.5710 C.3     1  UNL1        0.0917
      9 C         -25.1890    0.7730   32.0280 C.3     1  UNL1        0.0206
     10 C         -25.3360    0.6840   33.5440 C.3     1  UNL1        0.0203
     11 C         -24.8290   -0.7150   33.9050 C.3     1  UNL1        0.0888
     12 N         -24.7580   -1.4810   32.6460 N.3     1  UNL1       -0.2178
     13 C         -25.6880    1.6140   26.4610 C.2     1  UNL1        0.0234
     14 C         -26.2500    2.9200   26.3950 C.2     1  UNL1        0.0730
     15 C         -25.6420    4.0930   27.1230 C.2     1  UNL1        0.2661
     16 N         -25.6140    5.2520   26.4490 N.am    1  UNL1       -0.1997
     17 C         -25.0260    6.4790   26.9630 C.3     1  UNL1        0.1388
     18 O         -25.1430    3.9660   28.2430 O.2     1  UNL1       -0.2683
     19 C         -27.4380    3.0910   25.6450 C.2     1  UNL1        0.1064
     20 N         -28.0750    2.0890   25.0030 N.2     1  UNL1       -0.2081
     21 C         -27.5430    0.8490   25.0790 C.2     1  UNL1        0.2530
     22 O         -28.1930   -0.2080   24.4770 O.2     1  UNL1       -0.4558
     23 C         -29.4600    0.0050   23.8660 C.3     1  UNL1        0.2426
     24 C         -30.0650   -1.3770   23.5730 C.3     1  UNL1        0.2292
     25 O         -30.7290   -1.8780   24.7210 O.3     1  UNL1       -0.2162
     26 C         -26.3540    0.5760   25.7770 C.2     1  UNL1        0.1895
     27 F         -25.8600   -0.6810   25.7950 F       1  UNL1       -0.1996
     28 O         -21.8187    2.6057   25.1306 O.3     1  UNL1       -0.1348
     29 C         -23.1940    2.1054   25.3174 C.3     1  UNL1        0.3436
     30 N         -22.4232   -0.7878   29.1984 N.3     1  UNL1       -0.1830
     31 C         -26.4586   -0.2098   28.6194 C.3     1  UNL1        0.2610
     32 C         -22.9297    0.3874   28.9066 C.3     1  UNL1        0.1526
     33 F         -23.9610    1.8247   24.3378 F       1  UNL1       -0.1950
     34 O         -20.6018    0.3474   28.4272 O.3     1  UNL1       -0.3295
     35 C         -23.3574    1.7437   26.6824 C.2     1  UNL1        0.0638
     36 C         -24.4718    1.3844   27.3008 C.3     1  UNL1        0.0950
     37 C         -21.9580    1.8644   27.0497 C.2     1  UNL1        0.1863
     38 O         -21.0952    2.4077   26.3437 O.2     1  UNL1       -0.3330
     39 O         -24.4353    1.7777   29.6513 O.3     1  UNL1       -0.2067
     40 C         -21.3023   -0.6308   29.3059 C.3     1  UNL1        0.2350
     41 C         -21.7950    1.2030   28.3331 C.3     1  UNL1        0.1961
     42 N         -25.2248   -0.1607   29.0650 N.3     1  UNL1       -0.2175
     43 O         -27.3897   -0.6501   28.3511 O.3     1  UNL1       -0.2005
     44 C         -24.3253    0.8310   28.7030 C.3     1  UNL1        0.2009
@<TRIPOS>BOND
     1     1    42    1
     2     2     7    1
     3     2     1    1
     4     3     2    2
     5     4     3    1
     6     4     5    2
     7     5     6    1
     8     6     7    2
     9     8     1    1
    10     8     9    1
    11     8    12    1
    12     9    10    1
    13    10    11    1
    14    12    11    1
    15    14    13    1
    16    14    15    1
    17    15    18    2
    18    16    17    1
    19    16    15    1
    20    19    14    2
    21    20    21    2
    22    20    19    1
    23    21    26    1
    24    22    21    1
    25    23    22    1
    26    24    23    1
    27    24    25    1
    28    26    27    1
    29    26    13    2
    30    28    29    1
    31    28    38    1
    32    29    33    1
    33    29    35    1
    34    30    40    1
    35    31    42    1
    36    32    30    1
    37    34    40    1
    38    35    37    2
    39    35    36    1
    40    36    13    1
    41    36    44    1
    42    38    37    1
    43    41    37    1
    44    41    34    1
    45    41    32    1
    46    43    31    1
    47    44    32    1
    48    44    42    1
    49    44    39    1
