@<TRIPOS>MOLECULE
No_78-gen_results/8p0m/2024-11-27-11-27-31/
 13 14 0 0 0
SMALL
GASTEIGER

@<TRIPOS>ATOM
      1 C         -28.0162   -0.8135   28.8779 C.ar    1  UNL1        0.0002
      2 C         -27.0636   -0.1190   28.6079 C.ar    1  UNL1        0.0047
      3 C         -26.8756    1.1325   28.9134 C.ar    1  UNL1        0.0565
      4 C         -27.9014    1.8066   29.6436 C.ar    1  UNL1        0.0047
      5 C         -28.9449    1.0388   30.0360 C.ar    1  UNL1        0.0002
      6 C         -29.0273   -0.2890   29.7051 C.ar    1  UNL1        0.0000
      7 C         -25.6959    1.9505   28.4764 C.2     1  UNL1        0.2647
      8 N         -25.0986    1.9116   27.6630 N.ar    1  UNL1       -0.2717
      9 C         -24.8078    1.1555   26.8348 C.ar    1  UNL1        0.0830
     10 C         -23.8515    1.4008   25.7600 C.ar    1  UNL1        0.0206
     11 C         -24.3262    3.0973   27.1686 C.ar    1  UNL1        0.0830
     12 C         -23.5082    2.7182   25.9959 C.ar    1  UNL1        0.0206
     13 O         -25.0318    2.4068   29.7308 O.2     1  UNL1       -0.2666
@<TRIPOS>BOND
     1     3     7    1
     2     7     8   am
     3     8     9   ar
     4     9    10   ar
     5     8    11   ar
     6    10    12   ar
     7    11    12   ar
     8     7    13    2
     9     1     2   ar
    10     2     3   ar
    11     3     4   ar
    12     4     5   ar
    13     5     6   ar
    14     6     1   ar
