@<TRIPOS>MOLECULE
outputs/IAG933/test6/raw/output_7801_IAG933_linker_design_.xyz
 42 45 0 0 0
SMALL
GASTEIGER

@<TRIPOS>ATOM
      1 C         -24.8550   -1.0120   30.1430 C.3     1  UNL1        0.1108
      2 C         -24.9730   -2.5050   29.7880 C.2     1  UNL1       -0.0051
      3 C         -23.9060   -3.1730   29.1460 C.2     1  UNL1       -0.0029
      4 C         -23.9890   -4.5490   28.8530 C.2     1  UNL1       -0.0003
      5 C         -25.1370   -5.2800   29.2050 C.2     1  UNL1       -0.0000
      6 C         -26.2320   -4.6110   29.7840 C.2     1  UNL1       -0.0003
      7 C         -26.1550   -3.2320   30.0650 C.2     1  UNL1       -0.0029
      8 C         -25.3870   -0.6790   31.5710 C.3     1  UNL1        0.0929
      9 C         -25.1890    0.7730   32.0280 C.3     1  UNL1        0.0206
     10 C         -25.3360    0.6840   33.5440 C.3     1  UNL1        0.0203
     11 C         -24.8290   -0.7150   33.9050 C.3     1  UNL1        0.0888
     12 N         -24.7580   -1.4810   32.6460 N.3     1  UNL1       -0.2177
     13 C         -25.6880    1.6140   26.4610 C.3     1  UNL1        0.0756
     14 C         -26.2500    2.9200   26.3950 C.2     1  UNL1        0.0552
     15 C         -25.6420    4.0930   27.1230 C.2     1  UNL1        0.2625
     16 N         -25.6140    5.2520   26.4490 N.am    1  UNL1       -0.2000
     17 C         -25.0260    6.4790   26.9630 C.3     1  UNL1        0.1388
     18 O         -25.1430    3.9660   28.2430 O.2     1  UNL1       -0.2687
     19 C         -27.4380    3.0910   25.6450 C.2     1  UNL1        0.1021
     20 N         -28.0750    2.0890   25.0030 N.2     1  UNL1       -0.2119
     21 C         -27.5430    0.8490   25.0790 C.2     1  UNL1        0.2341
     22 O         -28.1930   -0.2080   24.4770 O.2     1  UNL1       -0.4585
     23 C         -29.4600    0.0050   23.8660 C.3     1  UNL1        0.2423
     24 C         -30.0650   -1.3770   23.5730 C.3     1  UNL1        0.2292
     25 O         -30.7290   -1.8780   24.7210 O.3     1  UNL1       -0.2162
     26 C         -26.3540    0.5760   25.7770 C.3     1  UNL1        0.2404
     27 F         -25.8600   -0.6810   25.7950 F       1  UNL1       -0.2269
     28 C         -23.4351    1.2131   27.4944 C.2     1  UNL1        0.0236
     29 C         -21.2600    1.0725   28.0070 C.2     1  UNL1        0.1796
     30 O         -21.3191    1.6542   26.6890 O.2     1  UNL1       -0.4440
     31 C         -25.4799    1.0291   28.8544 C.3     1  UNL1        0.0781
     32 O         -29.1817   -1.2453   30.4189 O.2     1  UNL1       -0.2883
     33 C         -22.5026    0.8067   28.4712 C.2     1  UNL1        0.0397
     34 C         -26.9952    1.0403   28.8015 C.3     1  UNL1        0.0260
     35 N         -24.8553   -0.2623   29.0291 N.3     1  UNL1       -0.2147
     36 C         -22.6551    1.6488   26.4239 C.2     1  UNL1        0.2207
     37 C         -24.8218    1.2799   27.5432 C.3     1  UNL1        0.0491
     38 C         -27.5964   -0.3616   28.7419 C.3     1  UNL1        0.0737
     39 C         -23.0789    2.0100   25.1814 C.2     1  UNL1        0.4213
     40 O         -22.2937    2.8195   24.7535 O.co2   1  UNL1       -0.2371
     41 O         -24.0033    1.2804   24.5442 O.co2   1  UNL1       -0.2371
     42 C         -28.1778   -1.2288   29.6627 C.2     1  UNL1        0.2074
@<TRIPOS>BOND
     1     1    35    1
     2     2     7    1
     3     2     1    1
     4     3     2    2
     5     4     3    1
     6     4     5    2
     7     5     6    1
     8     6     7    2
     9     8     1    1
    10     8     9    1
    11     8    12    1
    12     9    10    1
    13    10    11    1
    14    12    11    1
    15    13    37    1
    16    14    13    1
    17    14    15    1
    18    15    18    2
    19    16    17    1
    20    16    15    1
    21    19    14    2
    22    20    21    2
    23    20    19    1
    24    21    26    1
    25    22    21    1
    26    23    22    1
    27    24    23    1
    28    24    25    1
    29    26    27    1
    30    26    13    1
    31    28    37    1
    32    28    33    1
    33    29    33    2
    34    30    29    1
    35    31    34    1
    36    31    35    1
    37    36    30    1
    38    36    28    2
    39    37    31    1
    40    38    34    1
    41    38    42    1
    42    39    36    1
    43    40    39   ar
    44    41    39   ar
    45    42    32    2
