@<TRIPOS>MOLECULE
outputs/IAG933/test6/raw/output_7802_IAG933_linker_design_.xyz
 44 47 0 0 0
SMALL
GASTEIGER

@<TRIPOS>ATOM
      1 C         -24.8550   -1.0120   30.1430 C.3     1  UNL1        0.0538
      2 C         -24.9730   -2.5050   29.7880 C.2     1  UNL1       -0.0198
      3 C         -23.9060   -3.1730   29.1460 C.2     1  UNL1       -0.0042
      4 C         -23.9890   -4.5490   28.8530 C.2     1  UNL1       -0.0003
      5 C         -25.1370   -5.2800   29.2050 C.2     1  UNL1       -0.0000
      6 C         -26.2320   -4.6110   29.7840 C.2     1  UNL1       -0.0003
      7 C         -26.1550   -3.2320   30.0650 C.2     1  UNL1       -0.0042
      8 C         -25.3870   -0.6790   31.5710 C.3     1  UNL1        0.0781
      9 C         -25.1890    0.7730   32.0280 C.3     1  UNL1        0.0192
     10 C         -25.3360    0.6840   33.5440 C.3     1  UNL1        0.0202
     11 C         -24.8290   -0.7150   33.9050 C.3     1  UNL1        0.0887
     12 N         -24.7580   -1.4810   32.6460 N.3     1  UNL1       -0.2191
     13 C         -25.6880    1.6140   26.4610 C.2     1  UNL1        0.0320
     14 C         -26.2500    2.9200   26.3950 C.2     1  UNL1        0.0739
     15 C         -25.6420    4.0930   27.1230 C.2     1  UNL1        0.2662
     16 N         -25.6140    5.2520   26.4490 N.am    1  UNL1       -0.1997
     17 C         -25.0260    6.4790   26.9630 C.3     1  UNL1        0.1388
     18 O         -25.1430    3.9660   28.2430 O.2     1  UNL1       -0.2683
     19 C         -27.4380    3.0910   25.6450 C.2     1  UNL1        0.1065
     20 N         -28.0750    2.0890   25.0030 N.2     1  UNL1       -0.2081
     21 C         -27.5430    0.8490   25.0790 C.2     1  UNL1        0.2530
     22 O         -28.1930   -0.2080   24.4770 O.2     1  UNL1       -0.4558
     23 C         -29.4600    0.0050   23.8660 C.3     1  UNL1        0.2426
     24 C         -30.0650   -1.3770   23.5730 C.3     1  UNL1        0.2292
     25 O         -30.7290   -1.8780   24.7210 O.3     1  UNL1       -0.2162
     26 C         -26.3540    0.5760   25.7770 C.2     1  UNL1        0.1904
     27 F         -25.8600   -0.6810   25.7950 F       1  UNL1       -0.1995
     28 C         -29.4022    0.8448   28.3925 C.3     1  UNL1        0.1000
     29 C         -21.8944    1.0858   28.1438 C.2     1  UNL1       -0.0088
     30 C         -26.7438    0.4287   29.2067 C.3     1  UNL1        0.1133
     31 C         -24.3986    1.2058   27.0275 C.3     1  UNL1        0.1020
     32 O         -27.1231    2.3554   30.5972 O.2     1  UNL1       -0.2745
     33 C         -25.2411    0.0807   29.1017 C.3     1  UNL1        0.0761
     34 C         -31.2674   -0.8664   27.6484 C.3     1  UNL1        0.1842
     35 C         -28.8011   -0.5440   28.4171 C.2     1  UNL1       -0.0107
     36 C         -30.7199    0.5732   27.7679 C.3     1  UNL1        0.0599
     37 N         -28.7802    1.8765   28.9553 N.am    1  UNL1       -0.2753
     38 C         -27.5313   -0.6955   28.7164 C.2     1  UNL1       -0.0190
     39 C         -22.9316    0.1572   28.6903 C.3     1  UNL1        0.0991
     40 C         -21.6178    2.0095   27.2421 C.2     1  UNL1       -0.0035
     41 N         -24.2817    0.4797   28.2786 N.3     1  UNL1       -0.2653
     42 C         -29.3069    3.2502   28.6561 C.3     1  UNL1        0.1151
     43 C         -27.5712    1.6726   29.6820 C.2     1  UNL1        0.2308
     44 O         -31.3129   -1.4349   28.9652 O.3     1  UNL1       -0.2204
@<TRIPOS>BOND
     1     1    33    1
     2     2     7    1
     3     2     1    1
     4     3     2    2
     5     4     3    1
     6     4     5    2
     7     5     6    1
     8     6     7    2
     9     8     1    1
    10     8     9    1
    11     8    12    1
    12     9    10    1
    13    10    11    1
    14    12    11    1
    15    13    31    1
    16    14    13    1
    17    14    15    1
    18    15    18    2
    19    16    17    1
    20    16    15    1
    21    19    14    2
    22    20    21    2
    23    20    19    1
    24    21    26    1
    25    22    21    1
    26    23    22    1
    27    24    23    1
    28    24    25    1
    29    26    27    1
    30    26    13    2
    31    28    36    1
    32    28    35    1
    33    28    37    1
    34    29    39    1
    35    30    33    1
    36    30    43    1
    37    31    41    1
    38    33    41    1
    39    34    36    1
    40    34    44    1
    41    35    38    2
    42    37    43   am
    43    38    30    1
    44    40    29    2
    45    41    39    1
    46    42    37    1
    47    43    32    2
