@<TRIPOS>MOLECULE
outputs/IAG933/test6/raw/output_7806_IAG933_linker_design_.xyz
 44 48 0 0 0
SMALL
GASTEIGER

@<TRIPOS>ATOM
      1 C         -24.8550   -1.0120   30.1430 C.3     1  UNL1        0.0442
      2 C         -24.9730   -2.5050   29.7880 C.2     1  UNL1       -0.0208
      3 C         -23.9060   -3.1730   29.1460 C.2     1  UNL1       -0.0042
      4 C         -23.9890   -4.5490   28.8530 C.2     1  UNL1       -0.0003
      5 C         -25.1370   -5.2800   29.2050 C.2     1  UNL1       -0.0000
      6 C         -26.2320   -4.6110   29.7840 C.2     1  UNL1       -0.0003
      7 C         -26.1550   -3.2320   30.0650 C.2     1  UNL1       -0.0042
      8 C         -25.3870   -0.6790   31.5710 C.3     1  UNL1        0.0847
      9 C         -25.1890    0.7730   32.0280 C.3     1  UNL1        0.0819
     10 C         -25.3360    0.6840   33.5440 C.3     1  UNL1        0.0283
     11 C         -24.8290   -0.7150   33.9050 C.3     1  UNL1        0.0892
     12 N         -24.7580   -1.4810   32.6460 N.3     1  UNL1       -0.2187
     13 C         -25.6880    1.6140   26.4610 C.2     1  UNL1        0.0831
     14 C         -26.2500    2.9200   26.3950 C.2     1  UNL1        0.0802
     15 C         -25.6420    4.0930   27.1230 C.2     1  UNL1        0.2665
     16 N         -25.6140    5.2520   26.4490 N.am    1  UNL1       -0.1997
     17 C         -25.0260    6.4790   26.9630 C.3     1  UNL1        0.1388
     18 O         -25.1430    3.9660   28.2430 O.2     1  UNL1       -0.2683
     19 C         -27.4380    3.0910   25.6450 C.2     1  UNL1        0.1069
     20 N         -28.0750    2.0890   25.0030 N.2     1  UNL1       -0.2081
     21 C         -27.5430    0.8490   25.0790 C.2     1  UNL1        0.2534
     22 O         -28.1930   -0.2080   24.4770 O.2     1  UNL1       -0.4558
     23 C         -29.4600    0.0050   23.8660 C.3     1  UNL1        0.2426
     24 C         -30.0650   -1.3770   23.5730 C.3     1  UNL1        0.2292
     25 O         -30.7290   -1.8780   24.7210 O.3     1  UNL1       -0.2162
     26 C         -26.3540    0.5760   25.7770 C.2     1  UNL1        0.1967
     27 F         -25.8600   -0.6810   25.7950 F       1  UNL1       -0.1991
     28 C         -27.1456    5.6407   34.0668 C.3     1  UNL1        0.0233
     29 F         -20.9092    1.5376   27.6325 F       1  UNL1       -0.2164
     30 C         -25.3560    4.1392   33.5130 C.3     1  UNL1        0.0938
     31 C         -26.5260    3.3548   31.5323 C.2     1  UNL1        0.2524
     32 F         -22.6290    2.3626   25.5931 F       1  UNL1       -0.2014
     33 C         -23.0704    1.7489   26.6822 C.2     1  UNL1        0.2049
     34 C         -24.6268    1.7484   31.0978 C.2     1  UNL1        0.1661
     35 O         -27.4797    2.9344   30.9205 O.2     1  UNL1       -0.2698
     36 C         -25.7177    5.3863   34.3530 C.3     1  UNL1        0.0233
     37 C         -23.0982    1.1281   28.6820 C.2     1  UNL1        0.3813
     38 C         -22.2312    1.4646   27.6769 C.3     1  UNL1        0.3220
     39 N         -24.3364    0.9493   28.2679 N.2     1  UNL1       -0.0352
     40 C         -25.2648    2.9702   30.9500 C.2     1  UNL1        0.0977
     41 N         -26.5569    3.9610   32.6953 N.am    1  UNL1       -0.2760
     42 N         -23.1610    1.2300   30.2071 N.pl3   1  UNL1       -0.0113
     43 C         -24.3722    1.3737   27.0777 C.2     1  UNL1        0.2219
     44 C         -27.7228    4.3866   33.4236 C.3     1  UNL1        0.0938
@<TRIPOS>BOND
     1     2     7    1
     2     2     1    1
     3     3     2    2
     4     4     3    1
     5     4     5    2
     6     5     6    1
     7     6     7    2
     8     8     1    1
     9     8     9    1
    10     8    12    1
    11     9    34    1
    12     9    10    1
    13    10    11    1
    14    12    11    1
    15    13    43    1
    16    14    13    1
    17    14    15    1
    18    15    18    2
    19    16    17    1
    20    16    15    1
    21    19    14    2
    22    20    21    2
    23    20    19    1
    24    21    26    1
    25    22    21    1
    26    23    22    1
    27    24    23    1
    28    24    25    1
    29    26    27    1
    30    26    13    2
    31    28    36    1
    32    30    36    1
    33    31    41   am
    34    32    33    1
    35    33    43    2
    36    33    38    1
    37    35    31    2
    38    37    42    1
    39    38    29    1
    40    38    37    1
    41    39    37    2
    42    40    34    2
    43    40    31    1
    44    41    44    1
    45    41    30    1
    46    42    34    1
    47    43    39    1
    48    44    28    1
