@<TRIPOS>MOLECULE
outputs/IAG933/test6/raw/output_7807_IAG933_linker_design_.xyz
 42 45 0 0 0
SMALL
GASTEIGER

@<TRIPOS>ATOM
      1 C         -24.8550   -1.0120   30.1430 C.3     1  UNL1        0.1215
      2 C         -24.9730   -2.5050   29.7880 C.2     1  UNL1       -0.0025
      3 C         -23.9060   -3.1730   29.1460 C.2     1  UNL1       -0.0026
      4 C         -23.9890   -4.5490   28.8530 C.2     1  UNL1       -0.0003
      5 C         -25.1370   -5.2800   29.2050 C.2     1  UNL1       -0.0000
      6 C         -26.2320   -4.6110   29.7840 C.2     1  UNL1       -0.0003
      7 C         -26.1550   -3.2320   30.0650 C.2     1  UNL1       -0.0026
      8 C         -25.3870   -0.6790   31.5710 C.3     1  UNL1        0.0956
      9 C         -25.1890    0.7730   32.0280 C.3     1  UNL1        0.0209
     10 C         -25.3360    0.6840   33.5440 C.3     1  UNL1        0.0203
     11 C         -24.8290   -0.7150   33.9050 C.3     1  UNL1        0.0888
     12 N         -24.7580   -1.4810   32.6460 N.3     1  UNL1       -0.2174
     13 C         -25.6880    1.6140   26.4610 C.2     1  UNL1        0.0601
     14 C         -26.2500    2.9200   26.3950 C.2     1  UNL1        0.0803
     15 C         -25.6420    4.0930   27.1230 C.2     1  UNL1        0.2667
     16 N         -25.6140    5.2520   26.4490 N.am    1  UNL1       -0.1997
     17 C         -25.0260    6.4790   26.9630 C.3     1  UNL1        0.1388
     18 O         -25.1430    3.9660   28.2430 O.2     1  UNL1       -0.2683
     19 C         -27.4380    3.0910   25.6450 C.2     1  UNL1        0.1067
     20 N         -28.0750    2.0890   25.0030 N.2     1  UNL1       -0.2112
     21 C         -27.5430    0.8490   25.0790 C.2     1  UNL1        0.2389
     22 O         -28.1930   -0.2080   24.4770 O.2     1  UNL1       -0.4583
     23 C         -29.4600    0.0050   23.8660 C.3     1  UNL1        0.2423
     24 C         -30.0650   -1.3770   23.5730 C.3     1  UNL1        0.2292
     25 O         -30.7290   -1.8780   24.7210 O.3     1  UNL1       -0.2162
     26 C         -26.3540    0.5760   25.7770 C.3     1  UNL1        0.2653
     27 F         -25.8600   -0.6810   25.7950 F       1  UNL1       -0.2217
     28 C         -22.8065   -0.3184   29.6652 C.2     1  UNL1        0.4092
     29 O         -23.5558    1.0180   24.9336 O.3     1  UNL1       -0.1458
     30 C         -23.7551    0.8761   28.0355 C.2     1  UNL1        0.0716
     31 N         -24.0307   -0.1847   29.1254 N.am    1  UNL1       -0.2186
     32 F         -22.9417    1.2262   23.7544 F       1  UNL1       -0.0442
     33 C         -23.1781    1.9984   25.7410 C.3     1  UNL1        0.3154
     34 C         -22.3645    1.3000   27.8273 C.3     1  UNL1        0.0855
     35 F         -23.4636    3.1893   25.2879 F       1  UNL1       -0.2007
     36 C         -22.2674    2.1004   26.7752 C.3     1  UNL1        0.0793
     37 O         -21.8796   -0.9949   29.0434 O.3     1  UNL1       -0.4313
     38 O         -22.5127    0.2818   30.6990 O.2     1  UNL1       -0.2258
     39 F         -20.1595    1.9484   28.0283 F       1  UNL1       -0.2328
     40 C         -24.5215    1.1895   27.1216 C.1     1  UNL1       -0.0919
     41 C         -20.7854   -0.2246   28.5502 C.3     1  UNL1        0.2455
     42 C         -21.0290    1.1292   28.1619 C.3     1  UNL1        0.2104
@<TRIPOS>BOND
     1     1     2    1
     2     2     7    1
     3     3     2    2
     4     4     3    1
     5     4     5    2
     6     5     6    1
     7     6     7    2
     8     8     1    1
     9     8     9    1
    10     8    12    1
    11     9    10    1
    12    10    11    1
    13    12    11    1
    14    13    40    2
    15    14    13    1
    16    14    15    1
    17    15    18    2
    18    16    17    1
    19    16    15    1
    20    19    14    2
    21    20    21    2
    22    20    19    1
    23    21    26    1
    24    22    21    1
    25    23    22    1
    26    24    23    1
    27    24    25    1
    28    26    27    1
    29    26    13    1
    30    28    38    2
    31    29    33    1
    32    30    31    1
    33    31    28   am
    34    31     1    1
    35    32    29    1
    36    33    35    1
    37    33    36    1
    38    34    36    1
    39    34    30    1
    40    34    42    1
    41    37    28    1
    42    40    30    2
    43    41    37    1
    44    42    39    1
    45    42    41    1
