@<TRIPOS>MOLECULE
outputs/IAG933/test6/raw/output_7809_IAG933_linker_design_.xyz
 43 46 0 0 0
SMALL
GASTEIGER

@<TRIPOS>ATOM
      1 C         -24.8550   -1.0120   30.1430 C.3     1  UNL1        0.0584
      2 C         -24.9730   -2.5050   29.7880 C.2     1  UNL1       -0.0195
      3 C         -23.9060   -3.1730   29.1460 C.2     1  UNL1       -0.0042
      4 C         -23.9890   -4.5490   28.8530 C.2     1  UNL1       -0.0003
      5 C         -25.1370   -5.2800   29.2050 C.2     1  UNL1       -0.0000
      6 C         -26.2320   -4.6110   29.7840 C.2     1  UNL1       -0.0003
      7 C         -26.1550   -3.2320   30.0650 C.2     1  UNL1       -0.0042
      8 C         -25.3870   -0.6790   31.5710 C.3     1  UNL1        0.0785
      9 C         -25.1890    0.7730   32.0280 C.3     1  UNL1        0.0192
     10 C         -25.3360    0.6840   33.5440 C.3     1  UNL1        0.0202
     11 C         -24.8290   -0.7150   33.9050 C.3     1  UNL1        0.0887
     12 N         -24.7580   -1.4810   32.6460 N.3     1  UNL1       -0.2191
     13 C         -25.6880    1.6140   26.4610 C.3     1  UNL1        0.0807
     14 C         -26.2500    2.9200   26.3950 C.2     1  UNL1        0.0553
     15 C         -25.6420    4.0930   27.1230 C.2     1  UNL1        0.2625
     16 N         -25.6140    5.2520   26.4490 N.am    1  UNL1       -0.2000
     17 C         -25.0260    6.4790   26.9630 C.3     1  UNL1        0.1388
     18 O         -25.1430    3.9660   28.2430 O.2     1  UNL1       -0.2687
     19 C         -27.4380    3.0910   25.6450 C.2     1  UNL1        0.1022
     20 N         -28.0750    2.0890   25.0030 N.2     1  UNL1       -0.2119
     21 C         -27.5430    0.8490   25.0790 C.2     1  UNL1        0.2341
     22 O         -28.1930   -0.2080   24.4770 O.2     1  UNL1       -0.4585
     23 C         -29.4600    0.0050   23.8660 C.3     1  UNL1        0.2423
     24 C         -30.0650   -1.3770   23.5730 C.3     1  UNL1        0.2292
     25 O         -30.7290   -1.8780   24.7210 O.3     1  UNL1       -0.2162
     26 C         -26.3540    0.5760   25.7770 C.3     1  UNL1        0.2405
     27 F         -25.8600   -0.6810   25.7950 F       1  UNL1       -0.2269
     28 C         -21.2183    0.7211   28.0427 C.3     1  UNL1        0.1656
     29 C         -23.3688    1.9755   25.4713 C.2     1  UNL1        0.3169
     30 O         -23.6263    2.1913   24.3951 O.2     1  UNL1       -0.2501
     31 O         -27.6426   -0.1940   28.8726 O.2     1  UNL1       -0.2733
     32 C         -21.1207    1.6525   26.8855 C.3     1  UNL1        0.2298
     33 C         -27.1106    0.8239   29.0966 C.2     1  UNL1        0.2418
     34 C         -23.6080    0.5016   28.4834 C.3     1  UNL1        0.0529
     35 C         -22.4453    0.1714   28.5462 C.3     1  UNL1        0.1747
     36 C         -24.2438    1.6140   26.3824 C.3     1  UNL1        0.1066
     37 C         -27.6358    2.0529   29.7711 C.3     1  UNL1        0.0964
     38 C         -23.8475    1.3823   27.4956 C.3     1  UNL1        0.0158
     39 N         -19.9892    0.2758   28.5364 N.3     1  UNL1       -0.1263
     40 C         -24.6625    0.1085   29.1967 C.3     1  UNL1        0.1031
     41 O         -22.1071   -0.9001   29.3582 O.3     1  UNL1       -0.2214
     42 N         -25.6964    1.0361   28.8986 N.am    1  UNL1       -0.2067
     43 O         -21.9254    2.1133   25.7493 O.3     1  UNL1       -0.4468
@<TRIPOS>BOND
     1     1    40    1
     2     2     7    1
     3     2     1    1
     4     3     2    2
     5     4     3    1
     6     4     5    2
     7     5     6    1
     8     6     7    2
     9     8     1    1
    10     8     9    1
    11     8    12    1
    12     9    10    1
    13    10    11    1
    14    12    11    1
    15    13    14    1
    16    14    15    1
    17    15    18    2
    18    16    17    1
    19    16    15    1
    20    19    14    2
    21    20    21    2
    22    20    19    1
    23    21    26    1
    24    22    21    1
    25    23    22    1
    26    24    23    1
    27    24    25    1
    28    26    27    1
    29    26    13    1
    30    28    39    1
    31    28    35    1
    32    29    43    1
    33    29    36    1
    34    30    29    2
    35    31    33    2
    36    32    28    1
    37    33    37    1
    38    34    35    1
    39    34    40    1
    40    35    41    1
    41    36    13    1
    42    36    38    1
    43    38    34    1
    44    40    42    1
    45    42    33    1
    46    43    32    1
