@<TRIPOS>MOLECULE
No_781-gen_results/8p0m/2024-11-27-11-27-31/
 34 38 0 0 0
SMALL
GASTEIGER

@<TRIPOS>ATOM
      1 C         -28.0162   -0.8135   28.8779 C.ar    1  UNL1        0.0375
      2 C         -27.0636   -0.1189   28.6079 C.ar    1  UNL1        0.0031
      3 C         -25.7923   -0.4302   29.0761 C.ar    1  UNL1        0.0002
      4 C         -25.5756   -1.5654   29.9363 C.ar    1  UNL1        0.0031
      5 C         -26.7354   -2.3004   30.2173 C.ar    1  UNL1        0.0375
      6 C         -27.9184   -1.9537   29.7629 C.ar    1  UNL1        0.1453
      7 O         -29.0001   -2.7012   30.1151 O.3     1  UNL1       -0.4536
      8 C         -24.5290    0.3490   28.7998 C.ar    1  UNL1        0.0000
      9 C         -23.3442    0.0060   29.1658 C.ar    1  UNL1        0.0000
     10 C         -22.1783    0.7811   28.7783 C.ar    1  UNL1        0.0000
     11 C         -22.3217    1.7499   27.7727 C.ar    1  UNL1        0.0000
     12 C         -24.6102    1.3558   27.7479 C.ar    1  UNL1        0.0000
     13 C         -23.5148    2.0341   27.3068 C.ar    1  UNL1        0.0000
     14 C         -30.1256   -2.1340   30.5841 C.ar    1  UNL1        0.1478
     15 C         -30.5730   -2.8381   31.6880 C.ar    1  UNL1        0.1139
     16 C         -31.7524   -2.4439   32.1488 C.ar    1  UNL1        0.0098
     17 C         -29.9465   -3.9463   32.3018 C.2     1  UNL1        0.3907
     18 C         -32.4476   -1.3123   31.6975 C.ar    1  UNL1        0.0046
     19 C         -31.8896   -0.7264   30.5470 C.ar    1  UNL1        0.0526
     20 C         -30.7101   -1.1053   29.9893 C.ar    1  UNL1        0.0186
     21 O         -28.9535   -3.9160   32.6847 O.co2   1  UNL1       -0.2404
     22 O         -30.4442   -5.1314   31.8193 O.co2   1  UNL1       -0.2404
     23 C         -32.5927    0.5189   29.9473 C.2     1  UNL1        0.2488
     24 N         -32.4427    0.8703   28.8805 N.am    1  UNL1       -0.2768
     25 C         -32.9281    1.9292   28.3623 C.3     1  UNL1        0.0937
     26 O         -33.0719    1.2965   30.8602 O.2     1  UNL1       -0.2699
     27 C         -32.3897    2.4222   27.2296 C.3     1  UNL1        0.0221
     28 C         -31.7138    2.1766   26.5300 C.3     1  UNL1        0.0147
     29 C         -31.0395    0.8104   26.8990 C.3     1  UNL1        0.1219
     30 C         -31.3755    0.3015   28.0205 C.3     1  UNL1        0.0907
     31 C         -30.6184   -0.8409   28.6399 C.3     1  UNL1        0.0499
     32 C         -29.9581    0.2566   26.0104 C.2     1  UNL1        0.3659
     33 O         -28.9845    0.6836   25.9049 O.co2   1  UNL1       -0.2456
     34 O         -30.4328   -0.8077   25.4016 O.co2   1  UNL1       -0.2456
@<TRIPOS>BOND
     1     6     7    1
     2     3     8    1
     3     7    14    1
     4    15    17    1
     5    17    21   ar
     6    17    22   ar
     7    19    23    1
     8    23    24   am
     9    24    25    1
    10    23    26    2
    11    27    28    1
    12    24    30    1
    13    29    30    1
    14    20    31    1
    15    30    31    1
    16    29    32    1
    17    32    33   ar
    18    32    34   ar
    19    25    27    1
    20    28    29    1
    21     1     2   ar
    22     2     3   ar
    23     3     4   ar
    24     4     5   ar
    25     5     6   ar
    26     6     1   ar
    27    14    15   ar
    28    15    16   ar
    29    16    18   ar
    30    18    19   ar
    31    19    20   ar
    32    20    14   ar
    33     8     9   ar
    34     9    10   ar
    35    10    11   ar
    36    11    13   ar
    37    13    12   ar
    38    12     8   ar
