@<TRIPOS>MOLECULE
outputs/IAG933/test6/raw/output_7818_IAG933_linker_design_.xyz
 42 46 0 0 0
SMALL
GASTEIGER

@<TRIPOS>ATOM
      1 C         -24.8550   -1.0120   30.1430 C.3     1  UNL1        0.0730
      2 C         -24.9730   -2.5050   29.7880 C.2     1  UNL1       -0.0183
      3 C         -23.9060   -3.1730   29.1460 C.2     1  UNL1       -0.0041
      4 C         -23.9890   -4.5490   28.8530 C.2     1  UNL1       -0.0003
      5 C         -25.1370   -5.2800   29.2050 C.2     1  UNL1       -0.0000
      6 C         -26.2320   -4.6110   29.7840 C.2     1  UNL1       -0.0003
      7 C         -26.1550   -3.2320   30.0650 C.2     1  UNL1       -0.0041
      8 C         -25.3870   -0.6790   31.5710 C.3     1  UNL1        0.0796
      9 C         -25.1890    0.7730   32.0280 C.3     1  UNL1        0.0179
     10 C         -25.3360    0.6840   33.5440 C.3     1  UNL1        0.0202
     11 C         -24.8290   -0.7150   33.9050 C.3     1  UNL1        0.0887
     12 N         -24.7580   -1.4810   32.6460 N.3     1  UNL1       -0.2190
     13 C         -25.6880    1.6140   26.4610 C.2     1  UNL1        0.0388
     14 C         -26.2500    2.9200   26.3950 C.2     1  UNL1        0.0766
     15 C         -25.6420    4.0930   27.1230 C.2     1  UNL1        0.2664
     16 N         -25.6140    5.2520   26.4490 N.am    1  UNL1       -0.1997
     17 C         -25.0260    6.4790   26.9630 C.3     1  UNL1        0.1388
     18 O         -25.1430    3.9660   28.2430 O.2     1  UNL1       -0.2683
     19 C         -27.4380    3.0910   25.6450 C.2     1  UNL1        0.1067
     20 N         -28.0750    2.0890   25.0030 N.2     1  UNL1       -0.2081
     21 C         -27.5430    0.8490   25.0790 C.2     1  UNL1        0.2533
     22 O         -28.1930   -0.2080   24.4770 O.2     1  UNL1       -0.4558
     23 C         -29.4600    0.0050   23.8660 C.3     1  UNL1        0.2426
     24 C         -30.0650   -1.3770   23.5730 C.3     1  UNL1        0.2292
     25 O         -30.7290   -1.8780   24.7210 O.3     1  UNL1       -0.2162
     26 C         -26.3540    0.5760   25.7770 C.2     1  UNL1        0.1931
     27 F         -25.8600   -0.6810   25.7950 F       1  UNL1       -0.1992
     28 C         -23.0231    1.8729   26.5705 C.2     1  UNL1        0.0950
     29 C         -22.7998    0.0838   28.9449 C.2     1  UNL1        0.0389
     30 C         -25.5862    1.9891   31.1234 C.3     1  UNL1        0.0014
     31 C         -24.1203    0.4392   28.3343 C.2     1  UNL1        0.0122
     32 C         -25.1298    0.0414   29.1321 C.3     1  UNL1        0.1796
     33 C         -25.5171    4.6428   33.9315 C.3     1  UNL1        0.0000
     34 C         -21.8410    0.8261   28.2210 C.2     1  UNL1        0.1803
     35 C         -24.9111    5.2212   32.6584 C.3     1  UNL1        0.0000
     36 CL        -22.9843    2.6670   25.0301 Cl      1  UNL1       -0.0790
     37 O         -26.3092    0.5529   29.0850 O.3     1  UNL1       -0.2179
     38 C         -25.6248    4.5536   31.4901 C.3     1  UNL1        0.0000
     39 C         -24.8748    3.2849   31.2951 C.3     1  UNL1        0.0000
     40 C         -24.3079    1.3265   27.1195 C.2     1  UNL1        0.0147
     41 C         -21.7455    1.5424   27.4002 C.2     1  UNL1        0.1900
     42 O         -21.0066    0.9057   27.7752 O.2     1  UNL1       -0.4464
@<TRIPOS>BOND
     1     1    32    1
     2     2     7    1
     3     2     1    1
     4     3     2    2
     5     4     3    1
     6     4     5    2
     7     5     6    1
     8     6     7    2
     9     8     1    1
    10     8     9    1
    11     8    12    1
    12     9    30    1
    13     9    10    1
    14    10    11    1
    15    12    11    1
    16    13    40    1
    17    14    13    1
    18    14    15    1
    19    15    18    2
    20    16    17    1
    21    16    15    1
    22    19    14    2
    23    20    21    2
    24    20    19    1
    25    21    26    1
    26    22    21    1
    27    23    22    1
    28    24    23    1
    29    24    25    1
    30    26    27    1
    31    26    13    2
    32    28    40    2
    33    28    41    1
    34    30    39    1
    35    31    29    2
    36    31    32    1
    37    32    37    1
    38    34    29    1
    39    35    33    1
    40    36    28    1
    41    38    35    1
    42    39    38    1
    43    40    31    1
    44    41    42    1
    45    41    34    2
    46    42    34    1
