@<TRIPOS>MOLECULE
outputs/IAG933/test6/raw/output_7819_IAG933_linker_design_.xyz
 45 49 0 0 0
SMALL
GASTEIGER

@<TRIPOS>ATOM
      1 C         -24.8550   -1.0120   30.1430 C.3     1  UNL1        0.1552
      2 C         -24.9730   -2.5050   29.7880 C.2     1  UNL1        0.0060
      3 C         -23.9060   -3.1730   29.1460 C.2     1  UNL1       -0.0019
      4 C         -23.9890   -4.5490   28.8530 C.2     1  UNL1       -0.0002
      5 C         -25.1370   -5.2800   29.2050 C.2     1  UNL1       -0.0000
      6 C         -26.2320   -4.6110   29.7840 C.2     1  UNL1       -0.0002
      7 C         -26.1550   -3.2320   30.0650 C.2     1  UNL1       -0.0019
      8 C         -25.3870   -0.6790   31.5710 C.3     1  UNL1        0.1042
      9 C         -25.1890    0.7730   32.0280 C.3     1  UNL1        0.0217
     10 C         -25.3360    0.6840   33.5440 C.3     1  UNL1        0.0203
     11 C         -24.8290   -0.7150   33.9050 C.3     1  UNL1        0.0888
     12 N         -24.7580   -1.4810   32.6460 N.3     1  UNL1       -0.2166
     13 C         -25.6880    1.6140   26.4610 C.3     1  UNL1        0.0732
     14 C         -26.2500    2.9200   26.3950 C.2     1  UNL1        0.0549
     15 C         -25.6420    4.0930   27.1230 C.2     1  UNL1        0.2624
     16 N         -25.6140    5.2520   26.4490 N.am    1  UNL1       -0.2000
     17 C         -25.0260    6.4790   26.9630 C.3     1  UNL1        0.1388
     18 O         -25.1430    3.9660   28.2430 O.2     1  UNL1       -0.2687
     19 C         -27.4380    3.0910   25.6450 C.2     1  UNL1        0.1021
     20 N         -28.0750    2.0890   25.0030 N.2     1  UNL1       -0.2119
     21 C         -27.5430    0.8490   25.0790 C.2     1  UNL1        0.2341
     22 O         -28.1930   -0.2080   24.4770 O.2     1  UNL1       -0.4585
     23 C         -29.4600    0.0050   23.8660 C.3     1  UNL1        0.2423
     24 C         -30.0650   -1.3770   23.5730 C.3     1  UNL1        0.2292
     25 O         -30.7290   -1.8780   24.7210 O.3     1  UNL1       -0.2162
     26 C         -26.3540    0.5760   25.7770 C.3     1  UNL1        0.2401
     27 F         -25.8600   -0.6810   25.7950 F       1  UNL1       -0.2269
     28 C         -23.0511    1.7076   25.8899 C.3     1  UNL1        0.1621
     29 C         -28.7201    3.5884   31.0259 C.2     1  UNL1        0.0015
     30 C         -24.1126    0.9065   28.2413 C.3     1  UNL1        0.0730
     31 C         -29.3608    2.4774   31.5692 C.2     1  UNL1        0.0034
     32 C         -28.2072    0.9966   30.0475 C.2     1  UNL1        0.2104
     33 C         -21.5532    1.3565   27.2279 C.3     1  UNL1        0.0285
     34 O         -25.6944   -0.3308   29.2091 O.3     1  UNL1       -0.3327
     35 C         -21.6805    0.7761   28.2914 C.2     1  UNL1       -0.0305
     36 C         -27.2541    2.1146   29.8917 C.2     1  UNL1        0.1066
     37 C         -29.1678    1.2064   31.0342 C.2     1  UNL1        0.0434
     38 C         -22.9465    0.5301   28.9145 C.2     1  UNL1       -0.0267
     39 C         -21.5900    1.9276   25.9559 C.3     1  UNL1        0.0399
     40 F         -23.1491    0.8600   24.7379 F       1  UNL1       -0.2373
     41 N         -25.8769    2.1360   29.7560 N.pl3   1  UNL1       -0.2071
     42 O         -28.1479   -0.1249   29.2892 O.2     1  UNL1       -0.2852
     43 C         -24.3124    1.2583   26.8322 C.3     1  UNL1        0.0482
     44 C         -27.6534    3.3593   30.0933 C.2     1  UNL1        0.0194
     45 C         -25.1976    1.0295   29.0804 C.3     1  UNL1        0.2127
@<TRIPOS>BOND
     1     1    34    1
     2     2     7    1
     3     2     1    1
     4     3     2    2
     5     4     3    1
     6     4     5    2
     7     5     6    1
     8     6     7    2
     9     8     1    1
    10     8     9    1
    11     8    12    1
    12     9    10    1
    13    10    11    1
    14    12    11    1
    15    13    14    1
    16    14    15    1
    17    15    18    2
    18    16    17    1
    19    16    15    1
    20    19    14    2
    21    20    21    2
    22    20    19    1
    23    21    26    1
    24    22    21    1
    25    23    22    1
    26    24    23    1
    27    24    25    1
    28    26    27    1
    29    26    13    1
    30    28    40    1
    31    28    39    1
    32    28    43    1
    33    29    31    1
    34    30    38    1
    35    30    45    1
    36    32    37    1
    37    33    35    1
    38    35    38    2
    39    36    32    2
    40    36    44    1
    41    37    31    2
    42    39    33    1
    43    41    36    1
    44    42    32    1
    45    43    13    1
    46    43    30    1
    47    44    29    2
    48    45    34    1
    49    45    41    1
