@<TRIPOS>MOLECULE
No_782-gen_results/8p0m/2024-11-27-11-27-31/
 35 38 0 0 0
SMALL
GASTEIGER

@<TRIPOS>ATOM
      1 C         -28.0162   -0.8135   28.8779 C.ar    1  UNL1       -0.0003
      2 C         -28.4690   -0.7850   29.8287 C.ar    1  UNL1       -0.0000
      3 C         -27.1356    0.2359   28.5352 C.ar    1  UNL1       -0.0032
      4 C         -26.8745    1.2825   29.3982 C.ar    1  UNL1       -0.0003
      5 C         -28.3613    0.1987   30.9244 C.ar    1  UNL1       -0.0000
      6 C         -27.5277    1.2234   30.6356 C.ar    1  UNL1       -0.0000
      7 C         -26.3987    0.2949   27.2279 C.2     1  UNL1       -0.0116
      8 C         -26.9022    0.7280   26.2134 C.2     1  UNL1        0.0537
      9 C         -28.2290    1.2592   26.1972 C.ar    1  UNL1        0.0103
     10 C         -28.8635    1.6436   27.2292 C.ar    1  UNL1        0.0008
     11 C         -30.1847    2.3713   26.9598 C.ar    1  UNL1        0.0000
     12 C         -30.5969    2.4774   25.6524 C.ar    1  UNL1        0.0000
     13 C         -28.6567    1.6903   24.8535 C.ar    1  UNL1        0.0008
     14 C         -29.8413    2.2292   24.6172 C.ar    1  UNL1        0.0000
     15 C         -25.0878   -0.3383   27.3889 C.3     1  UNL1        0.0275
     16 C         -23.9736    0.6369   27.5910 C.3     1  UNL1        0.0091
     17 C         -22.9666    0.3550   28.5734 C.3     1  UNL1        0.0053
     18 C         -23.1273   -0.3750   29.7121 C.3     1  UNL1        0.0257
     19 CL        -25.9892    0.4886   24.7259 Cl      1  UNL1       -0.0826
     20 C         -23.5798    0.2085   30.6725 C.2     1  UNL1       -0.0304
     21 C         -23.9629    1.5352   30.8274 C.2     1  UNL1       -0.0260
     22 C         -24.5299    2.1051   32.0246 C.3     1  UNL1        0.0520
     23 C         -24.7606    3.5183   32.1275 C.ar    1  UNL1       -0.0178
     24 C         -25.0806    4.1323   33.3304 C.ar    1  UNL1       -0.0039
     25 C         -25.0735    5.5542   33.4219 C.ar    1  UNL1       -0.0003
     26 C         -24.7030    6.3255   32.2894 C.ar    1  UNL1       -0.0000
     27 C         -24.5280    5.7411   31.1039 C.ar    1  UNL1       -0.0003
     28 C         -24.4315    4.3868   31.0401 C.ar    1  UNL1       -0.0039
     29 C         -23.8419    1.7851   26.7531 C.3     1  UNL1        0.0267
     30 C         -24.6299    2.9347   26.7803 C.ar    1  UNL1       -0.0222
     31 C         -24.3975    4.0666   26.0305 C.ar    1  UNL1       -0.0043
     32 C         -25.2295    5.2110   26.1698 C.ar    1  UNL1       -0.0003
     33 C         -26.0870    5.2794   27.3268 C.ar    1  UNL1       -0.0000
     34 C         -26.2408    4.1786   28.1637 C.ar    1  UNL1       -0.0003
     35 C         -25.4618    3.1408   27.9661 C.ar    1  UNL1       -0.0043
@<TRIPOS>BOND
     1     3     7    1
     2     7     8    2
     3     8     9    1
     4     7    15    1
     5    15    16    1
     6    16    17    1
     7    17    18    1
     8     8    19    1
     9    18    20    1
    10    20    21    2
    11    21    22    1
    12    16    29    1
    13    29    30    1
    14    22    23    1
    15    23    24   ar
    16    24    25   ar
    17    25    26   ar
    18    26    27   ar
    19    27    28   ar
    20    28    23   ar
    21    30    31   ar
    22    31    32   ar
    23    32    33   ar
    24    33    34   ar
    25    34    35   ar
    26    35    30   ar
    27     1     2   ar
    28     2     5   ar
    29     5     6   ar
    30     6     4   ar
    31     4     3   ar
    32     3     1   ar
    33     9    10   ar
    34    10    11   ar
    35    11    12   ar
    36    12    14   ar
    37    14    13   ar
    38    13     9   ar
