@<TRIPOS>MOLECULE
outputs/IAG933/test6/raw/output_7829_IAG933_linker_design_.xyz
 41 46 0 0 0
SMALL
GASTEIGER

@<TRIPOS>ATOM
      1 C         -24.8550   -1.0120   30.1430 C.3     1  UNL1        0.1003
      2 C         -24.9730   -2.5050   29.7880 C.2     1  UNL1       -0.0063
      3 C         -23.9060   -3.1730   29.1460 C.2     1  UNL1       -0.0029
      4 C         -23.9890   -4.5490   28.8530 C.2     1  UNL1       -0.0003
      5 C         -25.1370   -5.2800   29.2050 C.2     1  UNL1       -0.0000
      6 C         -26.2320   -4.6110   29.7840 C.2     1  UNL1       -0.0003
      7 C         -26.1550   -3.2320   30.0650 C.2     1  UNL1       -0.0029
      8 C         -25.3870   -0.6790   31.5710 C.3     1  UNL1        0.1003
      9 C         -25.1890    0.7730   32.0280 C.3     1  UNL1        0.0973
     10 C         -25.3360    0.6840   33.5440 C.3     1  UNL1        0.0294
     11 C         -24.8290   -0.7150   33.9050 C.3     1  UNL1        0.0893
     12 N         -24.7580   -1.4810   32.6460 N.3     1  UNL1       -0.2172
     13 C         -25.6880    1.6140   26.4610 C.3     1  UNL1        0.0798
     14 C         -26.2500    2.9200   26.3950 C.2     1  UNL1        0.0553
     15 C         -25.6420    4.0930   27.1230 C.2     1  UNL1        0.2625
     16 N         -25.6140    5.2520   26.4490 N.am    1  UNL1       -0.2000
     17 C         -25.0260    6.4790   26.9630 C.3     1  UNL1        0.1388
     18 O         -25.1430    3.9660   28.2430 O.2     1  UNL1       -0.2687
     19 C         -27.4380    3.0910   25.6450 C.2     1  UNL1        0.1022
     20 N         -28.0750    2.0890   25.0030 N.2     1  UNL1       -0.2119
     21 C         -27.5430    0.8490   25.0790 C.2     1  UNL1        0.2341
     22 O         -28.1930   -0.2080   24.4770 O.2     1  UNL1       -0.4585
     23 C         -29.4600    0.0050   23.8660 C.3     1  UNL1        0.2423
     24 C         -30.0650   -1.3770   23.5730 C.3     1  UNL1        0.2292
     25 O         -30.7290   -1.8780   24.7210 O.3     1  UNL1       -0.2162
     26 C         -26.3540    0.5760   25.7770 C.3     1  UNL1        0.2405
     27 F         -25.8600   -0.6810   25.7950 F       1  UNL1       -0.2269
     28 C         -22.7252    2.1996   26.3229 C.2     1  UNL1        0.1991
     29 O         -23.6189    2.2652   31.1759 O.2     1  UNL1       -0.2732
     30 C         -22.4647    0.9631   28.1329 C.2     1  UNL1        0.0317
     31 O         -21.4545    2.0560   26.5494 O.2     1  UNL1       -0.4399
     32 N         -25.3979    1.7813   29.8133 N.am    1  UNL1       -0.1647
     33 C         -25.0615    0.8967   28.7318 C.3     1  UNL1        0.2589
     34 C         -23.3966    1.4402   27.2523 C.2     1  UNL1        0.0296
     35 O         -26.3017    0.0358   28.3402 O.3     1  UNL1       -0.1854
     36 C         -21.2060    1.3578   27.7019 C.2     1  UNL1        0.1776
     37 C         -22.8181    0.1816   29.3360 C.3     1  UNL1        0.1057
     38 C         -24.7004    1.7293   30.9907 C.2     1  UNL1        0.2454
     39 N         -24.2327   -0.1288   29.2080 N.3     1  UNL1       -0.2269
     40 CL        -23.3209    3.0580   25.0346 Cl      1  UNL1       -0.0428
     41 C         -24.7007    1.2549   27.4399 C.3     1  UNL1        0.0959
@<TRIPOS>BOND
     1     1     2    1
     2     1     8    1
     3     2     7    1
     4     3     2    2
     5     4     3    1
     6     4     5    2
     7     5     6    1
     8     6     7    2
     9     8     9    1
    10     8    12    1
    11     9    10    1
    12    10    11    1
    13    12    11    1
    14    13    14    1
    15    13    41    1
    16    14    15    1
    17    15    18    2
    18    16    17    1
    19    16    15    1
    20    19    14    2
    21    20    21    2
    22    20    19    1
    23    21    26    1
    24    22    21    1
    25    23    22    1
    26    24    23    1
    27    24    25    1
    28    26    27    1
    29    26    13    1
    30    28    31    1
    31    28    34    2
    32    30    37    1
    33    31    36    1
    34    32    38    1
    35    33    35    1
    36    33    39    1
    37    33    32    1
    38    34    30    1
    39    36    30    2
    40    38    29    2
    41    38     9    1
    42    39    37    1
    43    39     1    1
    44    40    28    1
    45    41    34    1
    46    41    33    1
