@<TRIPOS>MOLECULE
outputs/IAG933/test6/raw/output_7831_IAG933_linker_design_.xyz
 45 50 0 0 0
SMALL
GASTEIGER

@<TRIPOS>ATOM
      1 C         -24.8550   -1.0120   30.1430 C.3     1  UNL1        0.0544
      2 C         -24.9730   -2.5050   29.7880 C.2     1  UNL1       -0.0198
      3 C         -23.9060   -3.1730   29.1460 C.2     1  UNL1       -0.0042
      4 C         -23.9890   -4.5490   28.8530 C.2     1  UNL1       -0.0003
      5 C         -25.1370   -5.2800   29.2050 C.2     1  UNL1       -0.0000
      6 C         -26.2320   -4.6110   29.7840 C.2     1  UNL1       -0.0003
      7 C         -26.1550   -3.2320   30.0650 C.2     1  UNL1       -0.0042
      8 C         -25.3870   -0.6790   31.5710 C.3     1  UNL1        0.0782
      9 C         -25.1890    0.7730   32.0280 C.3     1  UNL1        0.0192
     10 C         -25.3360    0.6840   33.5440 C.3     1  UNL1        0.0202
     11 C         -24.8290   -0.7150   33.9050 C.3     1  UNL1        0.0887
     12 N         -24.7580   -1.4810   32.6460 N.3     1  UNL1       -0.2191
     13 C         -25.6880    1.6140   26.4610 C.2     1  UNL1        0.0347
     14 C         -26.2500    2.9200   26.3950 C.2     1  UNL1        0.0742
     15 C         -25.6420    4.0930   27.1230 C.2     1  UNL1        0.2662
     16 N         -25.6140    5.2520   26.4490 N.am    1  UNL1       -0.1997
     17 C         -25.0260    6.4790   26.9630 C.3     1  UNL1        0.1388
     18 O         -25.1430    3.9660   28.2430 O.2     1  UNL1       -0.2683
     19 C         -27.4380    3.0910   25.6450 C.2     1  UNL1        0.1065
     20 N         -28.0750    2.0890   25.0030 N.2     1  UNL1       -0.2081
     21 C         -27.5430    0.8490   25.0790 C.2     1  UNL1        0.2530
     22 O         -28.1930   -0.2080   24.4770 O.2     1  UNL1       -0.4558
     23 C         -29.4600    0.0050   23.8660 C.3     1  UNL1        0.2426
     24 C         -30.0650   -1.3770   23.5730 C.3     1  UNL1        0.2292
     25 O         -30.7290   -1.8780   24.7210 O.3     1  UNL1       -0.2162
     26 C         -26.3540    0.5760   25.7770 C.2     1  UNL1        0.1907
     27 F         -25.8600   -0.6810   25.7950 F       1  UNL1       -0.1995
     28 C         -23.6662    1.6973   29.8429 C.3     1  UNL1        0.2554
     29 C         -23.3386    1.6002   27.4875 C.2     1  UNL1        0.0507
     30 C         -22.4150    1.8634   26.4609 C.2     1  UNL1        0.2511
     31 C         -25.0580    3.6552   31.9922 C.2     1  UNL1        0.1406
     32 O         -20.5777    1.0018   27.8623 O.2     1  UNL1       -0.2826
     33 C         -27.3667    4.3838   32.1226 C.2     1  UNL1        0.0031
     34 O         -21.0675    1.5451   26.6471 O.2     1  UNL1       -0.2750
     35 C         -26.0081    4.3426   34.1571 C.2     1  UNL1        0.0031
     36 C         -24.9030    3.9618   33.3708 C.2     1  UNL1        0.0370
     37 C         -22.7372    1.4498   28.7743 C.2     1  UNL1        0.0772
     38 C         -21.4116    0.9716   28.8484 C.2     1  UNL1        0.2347
     39 CL        -23.0024    2.3854   24.9380 Cl      1  UNL1       -0.0385
     40 O         -23.9511    2.7690   31.1743 O.2     1  UNL1       -0.4595
     41 C         -24.6890    1.4615   27.3917 C.3     1  UNL1        0.1123
     42 N         -24.9808    1.3657   29.0797 N.3     1  UNL1       -0.2295
     43 C         -27.2516    4.5380   33.5295 C.2     1  UNL1        0.0002
     44 C         -26.2503    3.9601   31.3545 C.2     1  UNL1        0.0370
     45 C         -25.3513   -0.1030   29.1904 C.3     1  UNL1        0.0819
@<TRIPOS>BOND
     1     1    45    1
     2     2     7    1
     3     2     1    1
     4     3     2    2
     5     4     3    1
     6     4     5    2
     7     5     6    1
     8     6     7    2
     9     8     1    1
    10     8     9    1
    11     8    12    1
    12     9    10    1
    13    10    11    1
    14    12    11    1
    15    14    13    1
    16    14    15    1
    17    15    18    2
    18    16    17    1
    19    16    15    1
    20    19    14    2
    21    20    21    2
    22    20    19    1
    23    21    26    1
    24    22    21    1
    25    23    22    1
    26    24    23    1
    27    24    25    1
    28    26    27    1
    29    26    13    2
    30    28    40    1
    31    29    37    1
    32    30    34    1
    33    30    29    2
    34    31    36    1
    35    32    38    1
    36    33    43    2
    37    34    32    1
    38    36    35    2
    39    37    38    2
    40    37    28    1
    41    39    30    1
    42    40    31    1
    43    41    13    1
    44    41    29    1
    45    41    42    1
    46    42    45    1
    47    42    28    1
    48    43    35    1
    49    44    31    2
    50    44    33    1
