@<TRIPOS>MOLECULE
outputs/IAG933/test6/raw/output_7834_IAG933_linker_design_.xyz
 45 48 0 0 0
SMALL
GASTEIGER

@<TRIPOS>ATOM
      1 C         -24.8550   -1.0120   30.1430 C.3     1  UNL1        0.0391
      2 C         -24.9730   -2.5050   29.7880 C.2     1  UNL1       -0.0211
      3 C         -23.9060   -3.1730   29.1460 C.2     1  UNL1       -0.0042
      4 C         -23.9890   -4.5490   28.8530 C.2     1  UNL1       -0.0003
      5 C         -25.1370   -5.2800   29.2050 C.2     1  UNL1       -0.0000
      6 C         -26.2320   -4.6110   29.7840 C.2     1  UNL1       -0.0003
      7 C         -26.1550   -3.2320   30.0650 C.2     1  UNL1       -0.0042
      8 C         -25.3870   -0.6790   31.5710 C.3     1  UNL1        0.0768
      9 C         -25.1890    0.7730   32.0280 C.3     1  UNL1        0.0192
     10 C         -25.3360    0.6840   33.5440 C.3     1  UNL1        0.0202
     11 C         -24.8290   -0.7150   33.9050 C.3     1  UNL1        0.0887
     12 N         -24.7580   -1.4810   32.6460 N.3     1  UNL1       -0.2191
     13 C         -25.6880    1.6140   26.4610 C.2     1  UNL1        0.0163
     14 C         -26.2500    2.9200   26.3950 C.2     1  UNL1        0.0726
     15 C         -25.6420    4.0930   27.1230 C.2     1  UNL1        0.2661
     16 N         -25.6140    5.2520   26.4490 N.am    1  UNL1       -0.1997
     17 C         -25.0260    6.4790   26.9630 C.3     1  UNL1        0.1388
     18 O         -25.1430    3.9660   28.2430 O.2     1  UNL1       -0.2683
     19 C         -27.4380    3.0910   25.6450 C.2     1  UNL1        0.1064
     20 N         -28.0750    2.0890   25.0030 N.2     1  UNL1       -0.2081
     21 C         -27.5430    0.8490   25.0790 C.2     1  UNL1        0.2530
     22 O         -28.1930   -0.2080   24.4770 O.2     1  UNL1       -0.4558
     23 C         -29.4600    0.0050   23.8660 C.3     1  UNL1        0.2426
     24 C         -30.0650   -1.3770   23.5730 C.3     1  UNL1        0.2292
     25 O         -30.7290   -1.8780   24.7210 O.3     1  UNL1       -0.2162
     26 C         -26.3540    0.5760   25.7770 C.2     1  UNL1        0.1891
     27 F         -25.8600   -0.6810   25.7950 F       1  UNL1       -0.1996
     28 N         -21.4638    2.1556   25.6963 N.1     1  UNL1       -0.1954
     29 C         -21.5641    1.4718   27.9413 C.3     1  UNL1        0.1694
     30 C         -27.2059    5.6167   30.7130 C.2     1  UNL1        0.3456
     31 C         -24.1784    0.8180   28.4746 C.3     1  UNL1        0.0638
     32 C         -22.6142    0.7412   28.9022 C.2     1  UNL1        0.1658
     33 C         -27.7846    3.3705   30.7503 C.2     1  UNL1        0.3704
     34 N         -27.8762    5.9593   31.8386 N.2     1  UNL1       -0.0157
     35 N         -26.7032    4.4424   30.6274 N.pl3   1  UNL1        0.0355
     36 O         -28.7669    3.7354   31.6195 O.2     1  UNL1       -0.3908
     37 C         -26.8879    6.6302   29.6744 C.3     1  UNL1        0.1341
     38 C         -27.7545    2.1721   30.0889 C.1     1  UNL1       -0.0228
     39 O         -22.2389    0.0323   29.8987 O.2     1  UNL1       -0.2949
     40 C         -27.6337    1.0858   29.4100 C.2     1  UNL1        0.0220
     41 C         -26.8121    0.0932   28.6476 C.3     1  UNL1        0.0354
     42 C         -21.5731    1.9771   26.6982 C.1     1  UNL1        0.0811
     43 C         -28.6671    4.9291   32.3627 C.3     1  UNL1        0.4814
     44 C         -24.2808    1.3167   27.0002 C.3     1  UNL1        0.0364
     45 C         -25.3531   -0.0605   28.9684 C.3     1  UNL1        0.0176
@<TRIPOS>BOND
     1     1    45    1
     2     2     7    1
     3     2     1    1
     4     3     2    2
     5     4     3    1
     6     4     5    2
     7     5     6    1
     8     6     7    2
     9     8     1    1
    10     8     9    1
    11     8    12    1
    12     9    10    1
    13    10    11    1
    14    12    11    1
    15    13    44    1
    16    14    13    1
    17    14    15    1
    18    15    18    2
    19    16    17    1
    20    16    15    1
    21    19    14    2
    22    20    21    2
    23    20    19    1
    24    21    26    1
    25    22    21    1
    26    23    22    1
    27    24    23    1
    28    24    25    1
    29    26    27    1
    30    26    13    2
    31    28    42    3
    32    29    32    1
    33    30    34    2
    34    31    44    1
    35    31    32    1
    36    31    45    1
    37    32    39    2
    38    33    36    1
    39    34    43    1
    40    35    30    1
    41    35    33    1
    42    36    43    1
    43    37    30    1
    44    38    33    2
    45    40    38    2
    46    41    40    1
    47    42    29    1
    48    45    41    1
