@<TRIPOS>MOLECULE
outputs/IAG933/test6/raw/output_7847_IAG933_linker_design_.xyz
 43 45 0 0 0
SMALL
GASTEIGER

@<TRIPOS>ATOM
      1 C         -24.8550   -1.0120   30.1430 C.3     1  UNL1        0.0461
      2 C         -24.9730   -2.5050   29.7880 C.2     1  UNL1       -0.0207
      3 C         -23.9060   -3.1730   29.1460 C.2     1  UNL1       -0.0042
      4 C         -23.9890   -4.5490   28.8530 C.2     1  UNL1       -0.0003
      5 C         -25.1370   -5.2800   29.2050 C.2     1  UNL1       -0.0000
      6 C         -26.2320   -4.6110   29.7840 C.2     1  UNL1       -0.0003
      7 C         -26.1550   -3.2320   30.0650 C.2     1  UNL1       -0.0042
      8 C         -25.3870   -0.6790   31.5710 C.3     1  UNL1        0.0772
      9 C         -25.1890    0.7730   32.0280 C.3     1  UNL1        0.0192
     10 C         -25.3360    0.6840   33.5440 C.3     1  UNL1        0.0202
     11 C         -24.8290   -0.7150   33.9050 C.3     1  UNL1        0.0887
     12 N         -24.7580   -1.4810   32.6460 N.3     1  UNL1       -0.2191
     13 C         -25.6880    1.6140   26.4610 C.2     1  UNL1        0.0183
     14 C         -26.2500    2.9200   26.3950 C.2     1  UNL1        0.0727
     15 C         -25.6420    4.0930   27.1230 C.2     1  UNL1        0.2661
     16 N         -25.6140    5.2520   26.4490 N.am    1  UNL1       -0.1997
     17 C         -25.0260    6.4790   26.9630 C.3     1  UNL1        0.1388
     18 O         -25.1430    3.9660   28.2430 O.2     1  UNL1       -0.2683
     19 C         -27.4380    3.0910   25.6450 C.2     1  UNL1        0.1064
     20 N         -28.0750    2.0890   25.0030 N.2     1  UNL1       -0.2081
     21 C         -27.5430    0.8490   25.0790 C.2     1  UNL1        0.2530
     22 O         -28.1930   -0.2080   24.4770 O.2     1  UNL1       -0.4558
     23 C         -29.4600    0.0050   23.8660 C.3     1  UNL1        0.2426
     24 C         -30.0650   -1.3770   23.5730 C.3     1  UNL1        0.2292
     25 O         -30.7290   -1.8780   24.7210 O.3     1  UNL1       -0.2162
     26 C         -26.3540    0.5760   25.7770 C.2     1  UNL1        0.1892
     27 F         -25.8600   -0.6810   25.7950 F       1  UNL1       -0.1996
     28 N         -27.5897    0.3301   29.1962 N.am    1  UNL1       -0.1655
     29 N         -29.2255    2.0875   28.9519 N.am    1  UNL1       -0.2625
     30 C         -30.5274    2.6559   28.6291 C.3     1  UNL1        0.0770
     31 C         -24.3823    0.8755   27.4944 C.3     1  UNL1        0.0589
     32 O         -29.3998   -0.0794   27.9003 O.2     1  UNL1       -0.2504
     33 C         -28.7946    0.7398   28.6294 C.2     1  UNL1        0.3272
     34 C         -23.5355    0.4305   28.2818 C.3     1  UNL1        0.1254
     35 O         -22.9305    1.1499   27.5466 O.3     1  UNL1       -0.3528
     36 C         -30.4769    4.2028   28.4559 C.3     1  UNL1        0.0199
     37 C         -28.3207    3.0078   29.7507 C.3     1  UNL1        0.1164
     38 C         -32.5673    4.8836   27.2124 C.3     1  UNL1        0.0001
     39 C         -21.5003    1.4395   27.7582 C.3     1  UNL1        0.1740
     40 C         -31.0538    2.0620   27.3000 C.3     1  UNL1        0.0216
     41 C         -26.2937    0.4222   28.5037 C.2     1  UNL1        0.0663
     42 C         -24.8736   -0.0849   28.8681 C.3     1  UNL1        0.0718
     43 C         -31.0642    4.7090   27.1491 C.3     1  UNL1        0.0017
@<TRIPOS>BOND
     1     1    42    1
     2     2     7    1
     3     2     1    1
     4     3     2    2
     5     4     3    1
     6     4     5    2
     7     5     6    1
     8     6     7    2
     9     8     1    1
    10     8     9    1
    11     8    12    1
    12     9    10    1
    13    10    11    1
    14    12    11    1
    15    13    31    1
    16    14    13    1
    17    14    15    1
    18    15    18    2
    19    16    17    1
    20    16    15    1
    21    19    14    2
    22    20    21    2
    23    20    19    1
    24    21    26    1
    25    22    21    1
    26    23    22    1
    27    24    23    1
    28    24    25    1
    29    26    27    1
    30    26    13    2
    31    29    37    1
    32    30    40    1
    33    30    29    1
    34    32    33    2
    35    33    29   am
    36    33    28    1
    37    34    31    1
    38    34    42    1
    39    35    39    1
    40    35    34    1
    41    36    30    1
    42    41    28    2
    43    42    41    1
    44    43    38    1
    45    43    36    1
