@<TRIPOS>MOLECULE
outputs/IAG933/test6/raw/output_7860_IAG933_linker_design_.xyz
 48 53 0 0 0
SMALL
GASTEIGER

@<TRIPOS>ATOM
      1 C         -24.8550   -1.0120   30.1430 C.3     1  UNL1        0.0438
      2 C         -24.9730   -2.5050   29.7880 C.2     1  UNL1       -0.0208
      3 C         -23.9060   -3.1730   29.1460 C.2     1  UNL1       -0.0042
      4 C         -23.9890   -4.5490   28.8530 C.2     1  UNL1       -0.0003
      5 C         -25.1370   -5.2800   29.2050 C.2     1  UNL1       -0.0000
      6 C         -26.2320   -4.6110   29.7840 C.2     1  UNL1       -0.0003
      7 C         -26.1550   -3.2320   30.0650 C.2     1  UNL1       -0.0042
      8 C         -25.3870   -0.6790   31.5710 C.3     1  UNL1        0.0786
      9 C         -25.1890    0.7730   32.0280 C.3     1  UNL1        0.0375
     10 C         -25.3360    0.6840   33.5440 C.3     1  UNL1        0.0217
     11 C         -24.8290   -0.7150   33.9050 C.3     1  UNL1        0.0888
     12 N         -24.7580   -1.4810   32.6460 N.3     1  UNL1       -0.2191
     13 C         -25.6880    1.6140   26.4610 C.2     1  UNL1        0.0440
     14 C         -26.2500    2.9200   26.3950 C.2     1  UNL1        0.0749
     15 C         -25.6420    4.0930   27.1230 C.2     1  UNL1        0.2662
     16 N         -25.6140    5.2520   26.4490 N.am    1  UNL1       -0.1997
     17 C         -25.0260    6.4790   26.9630 C.3     1  UNL1        0.1388
     18 O         -25.1430    3.9660   28.2430 O.2     1  UNL1       -0.2683
     19 C         -27.4380    3.0910   25.6450 C.2     1  UNL1        0.1065
     20 N         -28.0750    2.0890   25.0030 N.2     1  UNL1       -0.2081
     21 C         -27.5430    0.8490   25.0790 C.2     1  UNL1        0.2530
     22 O         -28.1930   -0.2080   24.4770 O.2     1  UNL1       -0.4558
     23 C         -29.4600    0.0050   23.8660 C.3     1  UNL1        0.2426
     24 C         -30.0650   -1.3770   23.5730 C.3     1  UNL1        0.2292
     25 O         -30.7290   -1.8780   24.7210 O.3     1  UNL1       -0.2162
     26 C         -26.3540    0.5760   25.7770 C.2     1  UNL1        0.1914
     27 F         -25.8600   -0.6810   25.7950 F       1  UNL1       -0.1995
     28 C         -24.8219    5.0401   32.0678 C.2     1  UNL1        0.4089
     29 N         -25.6378    1.3600   29.5352 N.3     1  UNL1       -0.2143
     30 O         -25.4171    8.4083   33.2890 O.2     1  UNL1       -0.4724
     31 C         -26.3874    7.9079   32.3802 C.2     1  UNL1        0.1558
     32 N         -28.4139    7.9361   31.3876 N.2     1  UNL1       -0.2593
     33 C         -21.9696    1.8386   27.0924 C.3     1  UNL1        0.1426
     34 C         -24.4622    1.3590   27.2458 C.3     1  UNL1        0.1558
     35 C         -27.4749    8.7163   31.9285 C.3     1  UNL1        0.1902
     36 C         -26.0971    1.6897   31.1181 C.3     1  UNL1        0.1159
     37 C         -25.7654    3.2189   31.4035 C.3     1  UNL1        0.2064
     38 O         -23.7940    5.6545   32.0788 O.2     1  UNL1       -0.2258
     39 C         -21.9403    0.8608   28.3006 C.3     1  UNL1        0.0336
     40 N         -26.0511    5.3824   31.6911 N.am    1  UNL1       -0.2171
     41 O         -23.3927    2.0392   27.1406 O.3     1  UNL1       -0.3503
     42 C         -25.5047    9.8628   33.6693 C.3     1  UNL1        0.2521
     43 C         -24.4847    0.9174   28.8505 C.3     1  UNL1        0.1043
     44 C         -28.0303    6.6525   31.3536 C.2     1  UNL1        0.1114
     45 C         -22.9846    1.0741   29.3773 C.3     1  UNL1        0.0228
     46 C         -26.7074    6.6009   31.8474 C.2     1  UNL1        0.1074
     47 O         -24.8222    3.6301   32.3425 O.3     1  UNL1       -0.4348
     48 C         -26.6515    4.2983   31.2245 C.3     1  UNL1        0.1466
@<TRIPOS>BOND
     1     2     7    1
     2     2     1    1
     3     3     2    2
     4     4     3    1
     5     4     5    2
     6     5     6    1
     7     6     7    2
     8     8     1    1
     9     8     9    1
    10     8    12    1
    11     9    36    1
    12     9    10    1
    13    10    11    1
    14    12    11    1
    15    14    13    1
    16    14    15    1
    17    15    18    2
    18    16    17    1
    19    16    15    1
    20    19    14    2
    21    20    21    2
    22    20    19    1
    23    21    26    1
    24    22    21    1
    25    23    22    1
    26    24    23    1
    27    24    25    1
    28    26    27    1
    29    26    13    2
    30    28    38    2
    31    28    47    1
    32    30    42    1
    33    31    30    1
    34    32    35    1
    35    33    41    1
    36    33    39    1
    37    34    13    1
    38    34    43    1
    39    35    31    1
    40    36    29    1
    41    37    36    1
    42    37    47    1
    43    39    45    1
    44    40    46    1
    45    40    28   am
    46    41    34    1
    47    43    45    1
    48    43    29    1
    49    44    32    2
    50    44    46    1
    51    46    31    2
    52    48    37    1
    53    48    40    1
