@<TRIPOS>MOLECULE
outputs/IAG933/test6/raw/output_7862_IAG933_linker_design_.xyz
 45 50 0 0 0
SMALL
GASTEIGER

@<TRIPOS>ATOM
      1 C         -24.8550   -1.0120   30.1430 C.3     1  UNL1        0.1121
      2 C         -24.9730   -2.5050   29.7880 C.2     1  UNL1       -0.0030
      3 C         -23.9060   -3.1730   29.1460 C.2     1  UNL1       -0.0026
      4 C         -23.9890   -4.5490   28.8530 C.2     1  UNL1       -0.0003
      5 C         -25.1370   -5.2800   29.2050 C.2     1  UNL1       -0.0000
      6 C         -26.2320   -4.6110   29.7840 C.2     1  UNL1       -0.0003
      7 C         -26.1550   -3.2320   30.0650 C.2     1  UNL1       -0.0026
      8 C         -25.3870   -0.6790   31.5710 C.3     1  UNL1        0.0951
      9 C         -25.1890    0.7730   32.0280 C.3     1  UNL1        0.0209
     10 C         -25.3360    0.6840   33.5440 C.3     1  UNL1        0.0203
     11 C         -24.8290   -0.7150   33.9050 C.3     1  UNL1        0.0888
     12 N         -24.7580   -1.4810   32.6460 N.3     1  UNL1       -0.2174
     13 C         -25.6880    1.6140   26.4610 C.2     1  UNL1        0.0387
     14 C         -26.2500    2.9200   26.3950 C.2     1  UNL1        0.0766
     15 C         -25.6420    4.0930   27.1230 C.2     1  UNL1        0.2664
     16 N         -25.6140    5.2520   26.4490 N.am    1  UNL1       -0.1997
     17 C         -25.0260    6.4790   26.9630 C.3     1  UNL1        0.1388
     18 O         -25.1430    3.9660   28.2430 O.2     1  UNL1       -0.2683
     19 C         -27.4380    3.0910   25.6450 C.2     1  UNL1        0.1067
     20 N         -28.0750    2.0890   25.0030 N.2     1  UNL1       -0.2081
     21 C         -27.5430    0.8490   25.0790 C.2     1  UNL1        0.2533
     22 O         -28.1930   -0.2080   24.4770 O.2     1  UNL1       -0.4558
     23 C         -29.4600    0.0050   23.8660 C.3     1  UNL1        0.2426
     24 C         -30.0650   -1.3770   23.5730 C.3     1  UNL1        0.2292
     25 O         -30.7290   -1.8780   24.7210 O.3     1  UNL1       -0.2162
     26 C         -26.3540    0.5760   25.7770 C.2     1  UNL1        0.1931
     27 F         -25.8600   -0.6810   25.7950 F       1  UNL1       -0.1992
     28 C         -23.4270    2.2424   24.8763 C.3     1  UNL1        0.0264
     29 C         -24.3190    0.5652   28.2228 C.2     1  UNL1        0.0295
     30 C         -23.2055    1.2049   23.8360 C.3     1  UNL1        0.0050
     31 O         -29.7939   -0.4858   28.6326 O.3     1  UNL1       -0.2036
     32 C         -22.1559   -0.1394   29.5714 C.3     1  UNL1        0.0321
     33 C         -27.6860    1.9963   30.2650 C.3     1  UNL1        0.0073
     34 C         -26.5436    0.4449   28.9107 C.3     1  UNL1        0.1500
     35 C         -22.0943    2.2730   26.7363 C.2     1  UNL1       -0.0049
     36 C         -24.4030    1.2922   27.0733 C.2     1  UNL1        0.0081
     37 C         -21.4477    1.8568   27.8674 C.2     1  UNL1       -0.0084
     38 C         -26.4797    1.8740   29.3420 C.3     1  UNL1        0.0382
     39 C         -23.3195    1.8984   26.2882 C.2     1  UNL1       -0.0212
     40 C         -23.1736    0.4920   28.6920 C.3     1  UNL1        0.0581
     41 C         -28.9108    0.4477   28.4369 C.3     1  UNL1        0.2270
     42 C         -28.9066    1.5926   29.4493 C.3     1  UNL1        0.0515
     43 N         -27.5668   -0.0728   28.3060 N.3     1  UNL1       -0.1709
     44 N         -25.2833   -0.0995   29.0546 N.pl3   1  UNL1       -0.2948
     45 C         -22.0861    0.8688   28.7076 C.2     1  UNL1       -0.0383
@<TRIPOS>BOND
     1     1    44    1
     2     2     7    1
     3     2     1    1
     4     3     2    2
     5     4     3    1
     6     4     5    2
     7     5     6    1
     8     6     7    2
     9     8     1    1
    10     8     9    1
    11     8    12    1
    12     9    10    1
    13    10    11    1
    14    12    11    1
    15    13    36    1
    16    14    13    1
    17    14    15    1
    18    15    18    2
    19    16    17    1
    20    16    15    1
    21    19    14    2
    22    20    21    2
    23    20    19    1
    24    21    26    1
    25    22    21    1
    26    23    22    1
    27    24    23    1
    28    24    25    1
    29    26    27    1
    30    26    13    2
    31    28    39    1
    32    29    40    1
    33    29    44    1
    34    30    28    1
    35    34    44    1
    36    34    38    1
    37    35    37    1
    38    36    29    2
    39    37    45    2
    40    38    33    1
    41    39    35    2
    42    39    36    1
    43    40    45    1
    44    40    32    1
    45    41    31    1
    46    41    42    1
    47    42    33    1
    48    43    41    1
    49    43    34    1
    50    45    32    1
