@<TRIPOS>MOLECULE
outputs/IAG933/test6/raw/output_7865_IAG933_linker_design_.xyz
 47 51 0 0 0
SMALL
GASTEIGER

@<TRIPOS>ATOM
      1 C         -24.8550   -1.0120   30.1430 C.3     1  UNL1        0.0605
      2 C         -24.9730   -2.5050   29.7880 C.2     1  UNL1       -0.0171
      3 C         -23.9060   -3.1730   29.1460 C.2     1  UNL1       -0.0039
      4 C         -23.9890   -4.5490   28.8530 C.2     1  UNL1       -0.0003
      5 C         -25.1370   -5.2800   29.2050 C.2     1  UNL1       -0.0000
      6 C         -26.2320   -4.6110   29.7840 C.2     1  UNL1       -0.0003
      7 C         -26.1550   -3.2320   30.0650 C.2     1  UNL1       -0.0039
      8 C         -25.3870   -0.6790   31.5710 C.3     1  UNL1        0.0808
      9 C         -25.1890    0.7730   32.0280 C.3     1  UNL1        0.0195
     10 C         -25.3360    0.6840   33.5440 C.3     1  UNL1        0.0203
     11 C         -24.8290   -0.7150   33.9050 C.3     1  UNL1        0.0887
     12 N         -24.7580   -1.4810   32.6460 N.3     1  UNL1       -0.2188
     13 C         -25.6880    1.6140   26.4610 C.3     1  UNL1        0.0848
     14 C         -26.2500    2.9200   26.3950 C.2     1  UNL1        0.0560
     15 C         -25.6420    4.0930   27.1230 C.2     1  UNL1        0.2625
     16 N         -25.6140    5.2520   26.4490 N.am    1  UNL1       -0.2000
     17 C         -25.0260    6.4790   26.9630 C.3     1  UNL1        0.1388
     18 O         -25.1430    3.9660   28.2430 O.2     1  UNL1       -0.2687
     19 C         -27.4380    3.0910   25.6450 C.2     1  UNL1        0.1022
     20 N         -28.0750    2.0890   25.0030 N.2     1  UNL1       -0.2119
     21 C         -27.5430    0.8490   25.0790 C.2     1  UNL1        0.2341
     22 O         -28.1930   -0.2080   24.4770 O.2     1  UNL1       -0.4585
     23 C         -29.4600    0.0050   23.8660 C.3     1  UNL1        0.2423
     24 C         -30.0650   -1.3770   23.5730 C.3     1  UNL1        0.2292
     25 O         -30.7290   -1.8780   24.7210 O.3     1  UNL1       -0.2162
     26 C         -26.3540    0.5760   25.7770 C.3     1  UNL1        0.2412
     27 F         -25.8600   -0.6810   25.7950 F       1  UNL1       -0.2269
     28 C         -29.8843   -0.9387   29.6376 C.3     1  UNL1        0.1392
     29 C         -22.8584    0.2742   29.0059 C.2     1  UNL1       -0.0192
     30 C         -31.7981   -1.4168   31.1552 C.3     1  UNL1        0.0954
     31 C         -22.3968    1.1842   28.0247 C.3     1  UNL1        0.0695
     32 O         -32.3101    1.2404   31.3556 O.2     1  UNL1       -0.2490
     33 N         -30.2181    1.8120   30.6826 N.am    1  UNL1       -0.0691
     34 C         -25.1120    0.6292   28.5337 C.2     1  UNL1        0.0185
     35 C         -28.1684    0.5405   28.7341 C.2     1  UNL1        0.0802
     36 C         -30.3349   -3.3359   30.1549 C.3     1  UNL1        0.0039
     37 O         -29.6378   -0.4101   27.2534 O.2     1  UNL1       -0.2889
     38 N         -31.0293   -0.3271   30.4102 N.am    1  UNL1       -0.2561
     39 C         -24.2282   -0.0356   29.2760 C.2     1  UNL1       -0.0166
     40 C         -29.2394   -0.2843   28.4445 C.2     1  UNL1        0.1986
     41 C         -20.9691    1.6667   27.8634 C.3     1  UNL1        0.0164
     42 C         -31.7417   -2.7310   30.3850 C.3     1  UNL1        0.0216
     43 C         -29.3123   -2.1818   30.4154 C.3     1  UNL1        0.0279
     44 S         -23.2146    1.9788   26.9226 S.3     1  UNL1       -0.1320
     45 C         -31.2031    0.9179   30.8035 C.2     1  UNL1        0.3432
     46 C         -24.6766    1.3218   27.4755 C.3     1  UNL1        0.0842
     47 C         -26.6794    0.7066   28.8299 C.1     1  UNL1       -0.1019
@<TRIPOS>BOND
     1     1    39    1
     2     2     7    1
     3     2     1    1
     4     3     2    2
     5     4     3    1
     6     4     5    2
     7     5     6    1
     8     6     7    2
     9     8     1    1
    10     8     9    1
    11     8    12    1
    12     9    10    1
    13    10    11    1
    14    12    11    1
    15    13    14    1
    16    13    46    1
    17    14    15    1
    18    15    18    2
    19    16    17    1
    20    16    15    1
    21    19    14    2
    22    20    21    2
    23    20    19    1
    24    21    26    1
    25    22    21    1
    26    23    22    1
    27    24    23    1
    28    24    25    1
    29    26    27    1
    30    26    13    1
    31    28    40    1
    32    28    38    1
    33    28    43    1
    34    29    39    2
    35    31    41    1
    36    31    29    1
    37    33    45    1
    38    34    47    2
    39    34    39    1
    40    35    47    2
    41    36    42    1
    42    36    43    1
    43    37    40    2
    44    38    45   am
    45    38    30    1
    46    40    35    1
    47    42    30    1
    48    44    31    1
    49    45    32    2
    50    46    44    1
    51    46    34    1
