@<TRIPOS>MOLECULE
No_787-gen_results/8p0m/2024-11-27-11-27-31/
 30 31 0 0 0
SMALL
GASTEIGER

@<TRIPOS>ATOM
      1 O         -28.1229   -1.3353   28.4874 O.co2   1  UNL1       -0.2452
      2 C         -28.5208   -0.4363   29.0779 C.2     1  UNL1        0.3727
      3 O         -27.9150    0.0780   30.0386 O.co2   1  UNL1       -0.2452
      4 C         -29.8074    0.1885   28.6630 C.3     1  UNL1        0.1859
      5 C         -29.9411    0.2590   27.4395 C.2     1  UNL1        0.2191
      6 C         -29.0510    0.7058   26.5019 C.2     1  UNL1        0.2123
      7 C         -27.8379    1.0523   26.9936 C.3     1  UNL1        0.0985
      8 C         -26.6540    1.1564   26.1157 C.ar    1  UNL1       -0.0146
      9 C         -25.3276    1.4628   26.6157 C.ar    1  UNL1       -0.0046
     10 C         -24.2094    1.5490   25.8041 C.ar    1  UNL1        0.0206
     11 C         -24.0936    0.7573   24.7117 C.ar    1  UNL1       -0.0008
     12 C         -25.3852    0.2365   24.2380 C.ar    1  UNL1       -0.0005
     13 C         -26.5762    0.3522   24.9376 C.ar    1  UNL1       -0.0038
     14 C         -22.9636    2.1711   26.3298 C.3     1  UNL1        0.2468
     15 N         -22.2248    1.6691   27.2757 N.pl3   1  UNL1       -0.0840
     16 C         -22.3175    1.1550   28.3363 C.cat   1  UNL1        0.5001
     17 N         -21.3118    0.5565   28.9537 N.pl3   1  UNL1        0.1321
     18 N         -23.4795    1.2007   29.0756 N.pl3   1  UNL1       -0.0634
     19 C         -23.6805    0.6198   30.3165 C.ar    1  UNL1        0.1629
     20 C         -24.6776    1.1714   31.1017 C.ar    1  UNL1        0.1056
     21 C         -25.1946    0.4268   32.2112 C.ar    1  UNL1        0.0068
     22 C         -24.5626   -0.8290   32.4567 C.ar    1  UNL1        0.0001
     23 C         -23.5121   -1.2618   31.7239 C.ar    1  UNL1        0.0030
     24 C         -23.1284   -0.5958   30.5770 C.ar    1  UNL1        0.0371
     25 O         -31.2450    0.0706   26.9063 O.2     1  UNL1       -0.2877
     26 O         -29.3132    0.9071   25.2318 O.2     1  UNL1       -0.2879
     27 C         -25.3935    2.4349   30.7873 C.3     1  UNL1        0.4213
     28 F         -25.5373    2.6584   29.6338 F       1  UNL1       -0.1657
     29 F         -26.5438    2.4399   31.4952 F       1  UNL1       -0.1657
     30 F         -24.6706    3.4612   31.3858 F       1  UNL1       -0.1657
@<TRIPOS>BOND
     1     1     2   ar
     2     2     3   ar
     3     2     4    1
     4     4     5    1
     5     5     6    1
     6     6     7    1
     7    10    14    1
     8    14    15    1
     9    15    16    2
    10    16    17    1
    11    16    18    1
    12    18    19    1
    13     5    25    2
    14     6    26    2
    15    20    27    1
    16    27    28    1
    17    27    29    1
    18    27    30    1
    19     7     8    1
    20     8     9   ar
    21     9    10   ar
    22    10    11   ar
    23    11    12   ar
    24    12    13   ar
    25    13     8   ar
    26    19    20   ar
    27    20    21   ar
    28    21    22   ar
    29    22    23   ar
    30    23    24   ar
    31    24    19   ar
