@<TRIPOS>MOLECULE
outputs/IAG933/test6/raw/output_7871_IAG933_linker_design_.xyz
 45 49 0 0 0
SMALL
GASTEIGER

@<TRIPOS>ATOM
      1 C         -24.8550   -1.0120   30.1430 C.3     1  UNL1        0.1155
      2 C         -24.9730   -2.5050   29.7880 C.2     1  UNL1       -0.0027
      3 C         -23.9060   -3.1730   29.1460 C.2     1  UNL1       -0.0026
      4 C         -23.9890   -4.5490   28.8530 C.2     1  UNL1       -0.0003
      5 C         -25.1370   -5.2800   29.2050 C.2     1  UNL1       -0.0000
      6 C         -26.2320   -4.6110   29.7840 C.2     1  UNL1       -0.0003
      7 C         -26.1550   -3.2320   30.0650 C.2     1  UNL1       -0.0026
      8 C         -25.3870   -0.6790   31.5710 C.3     1  UNL1        0.0954
      9 C         -25.1890    0.7730   32.0280 C.3     1  UNL1        0.0209
     10 C         -25.3360    0.6840   33.5440 C.3     1  UNL1        0.0203
     11 C         -24.8290   -0.7150   33.9050 C.3     1  UNL1        0.0888
     12 N         -24.7580   -1.4810   32.6460 N.3     1  UNL1       -0.2174
     13 C         -25.6880    1.6140   26.4610 C.2     1  UNL1        0.0390
     14 C         -26.2500    2.9200   26.3950 C.2     1  UNL1        0.0766
     15 C         -25.6420    4.0930   27.1230 C.2     1  UNL1        0.2664
     16 N         -25.6140    5.2520   26.4490 N.am    1  UNL1       -0.1997
     17 C         -25.0260    6.4790   26.9630 C.3     1  UNL1        0.1388
     18 O         -25.1430    3.9660   28.2430 O.2     1  UNL1       -0.2683
     19 C         -27.4380    3.0910   25.6450 C.2     1  UNL1        0.1067
     20 N         -28.0750    2.0890   25.0030 N.2     1  UNL1       -0.2081
     21 C         -27.5430    0.8490   25.0790 C.2     1  UNL1        0.2533
     22 O         -28.1930   -0.2080   24.4770 O.2     1  UNL1       -0.4558
     23 C         -29.4600    0.0050   23.8660 C.3     1  UNL1        0.2426
     24 C         -30.0650   -1.3770   23.5730 C.3     1  UNL1        0.2292
     25 O         -30.7290   -1.8780   24.7210 O.3     1  UNL1       -0.2162
     26 C         -26.3540    0.5760   25.7770 C.2     1  UNL1        0.1931
     27 F         -25.8600   -0.6810   25.7950 F       1  UNL1       -0.1992
     28 C         -27.5781    4.6160   32.6455 C.3     1  UNL1        0.0512
     29 C         -26.8449    2.1583   30.0286 C.2     1  UNL1        0.0381
     30 C         -28.2276    2.2759   30.5439 C.2     1  UNL1        0.1386
     31 C         -24.6515    1.2408   27.3282 C.2     1  UNL1        0.0143
     32 C         -26.4136    1.0160   29.1600 C.2     1  UNL1        0.0166
     33 C         -22.1001    1.2369   27.6029 C.2     1  UNL1        0.1375
     34 C         -21.9610    0.6584   28.8836 C.2     1  UNL1        0.0454
     35 C         -22.7467   -0.1599   29.4914 C.2     1  UNL1        0.0679
     36 O         -28.9199    2.8664   31.6558 O.2     1  UNL1       -0.4755
     37 C         -29.1521    1.5406   29.8986 C.2     1  UNL1        0.0369
     38 C         -23.0783    2.3341   25.6391 C.3     1  UNL1        0.0334
     39 F         -20.9317    1.5144   27.1214 F       1  UNL1       -0.2045
     40 C         -28.2113    3.2306   32.8191 C.3     1  UNL1        0.2055
     41 C         -25.0566    0.7343   28.5654 C.2     1  UNL1        0.0517
     42 C         -28.8214    0.3894   29.1961 C.2     1  UNL1        0.0032
     43 C         -23.2858    1.5558   26.8829 C.2     1  UNL1        0.0069
     44 N         -24.2514   -0.1165   29.3600 N.pl3   1  UNL1       -0.2821
     45 C         -27.4599    0.0857   28.8690 C.2     1  UNL1        0.0014
@<TRIPOS>BOND
     1     1     2    1
     2     2     7    1
     3     3     2    2
     4     4     3    1
     5     4     5    2
     6     5     6    1
     7     6     7    2
     8     8     1    1
     9     8     9    1
    10     8    12    1
    11     9    10    1
    12    10    11    1
    13    12    11    1
    14    13    31    1
    15    14    13    1
    16    14    15    1
    17    15    18    2
    18    16    17    1
    19    16    15    1
    20    19    14    2
    21    20    21    2
    22    20    19    1
    23    21    26    1
    24    22    21    1
    25    23    22    1
    26    24    23    1
    27    24    25    1
    28    26    27    1
    29    26    13    2
    30    28    40    1
    31    29    30    1
    32    30    36    1
    33    31    41    2
    34    32    29    2
    35    33    34    1
    36    34    35    2
    37    36    40    1
    38    37    30    2
    39    38    43    1
    40    39    33    1
    41    41    32    1
    42    41    44    1
    43    42    37    1
    44    43    31    1
    45    43    33    2
    46    44    35    1
    47    44     1    1
    48    45    32    1
    49    45    42    2
