@<TRIPOS>MOLECULE
outputs/IAG933/test6/raw/output_7872_IAG933_linker_design_.xyz
 40 44 0 0 0
SMALL
GASTEIGER

@<TRIPOS>ATOM
      1 C         -24.8550   -1.0120   30.1430 C.3     1  UNL1        0.1209
      2 C         -24.9730   -2.5050   29.7880 C.2     1  UNL1       -0.0025
      3 C         -23.9060   -3.1730   29.1460 C.2     1  UNL1       -0.0026
      4 C         -23.9890   -4.5490   28.8530 C.2     1  UNL1       -0.0003
      5 C         -25.1370   -5.2800   29.2050 C.2     1  UNL1       -0.0000
      6 C         -26.2320   -4.6110   29.7840 C.2     1  UNL1       -0.0003
      7 C         -26.1550   -3.2320   30.0650 C.2     1  UNL1       -0.0026
      8 C         -25.3870   -0.6790   31.5710 C.3     1  UNL1        0.0956
      9 C         -25.1890    0.7730   32.0280 C.3     1  UNL1        0.0209
     10 C         -25.3360    0.6840   33.5440 C.3     1  UNL1        0.0203
     11 C         -24.8290   -0.7150   33.9050 C.3     1  UNL1        0.0888
     12 N         -24.7580   -1.4810   32.6460 N.3     1  UNL1       -0.2174
     13 C         -25.6880    1.6140   26.4610 C.3     1  UNL1        0.0831
     14 C         -26.2500    2.9200   26.3950 C.2     1  UNL1        0.0556
     15 C         -25.6420    4.0930   27.1230 C.2     1  UNL1        0.2625
     16 N         -25.6140    5.2520   26.4490 N.am    1  UNL1       -0.2000
     17 C         -25.0260    6.4790   26.9630 C.3     1  UNL1        0.1388
     18 O         -25.1430    3.9660   28.2430 O.2     1  UNL1       -0.2687
     19 C         -27.4380    3.0910   25.6450 C.2     1  UNL1        0.1022
     20 N         -28.0750    2.0890   25.0030 N.2     1  UNL1       -0.2119
     21 C         -27.5430    0.8490   25.0790 C.2     1  UNL1        0.2341
     22 O         -28.1930   -0.2080   24.4770 O.2     1  UNL1       -0.4585
     23 C         -29.4600    0.0050   23.8660 C.3     1  UNL1        0.2423
     24 C         -30.0650   -1.3770   23.5730 C.3     1  UNL1        0.2292
     25 O         -30.7290   -1.8780   24.7210 O.3     1  UNL1       -0.2162
     26 C         -26.3540    0.5760   25.7770 C.3     1  UNL1        0.2408
     27 F         -25.8600   -0.6810   25.7950 F       1  UNL1       -0.2269
     28 C         -24.7152    1.0744   27.4242 C.3     1  UNL1        0.1133
     29 C         -21.2934    1.6669   27.6554 C.2     1  UNL1        0.3523
     30 O         -21.4627    1.8625   26.3008 O.3     1  UNL1       -0.3861
     31 C         -25.1685    0.2473   28.4101 C.2     1  UNL1        0.2361
     32 O         -23.2905    1.7630   24.8620 O.2     1  UNL1       -0.2447
     33 O         -20.2255    1.8833   28.1337 O.2     1  UNL1       -0.2442
     34 N         -24.3351    0.0090   29.3703 N.am    1  UNL1       -0.2222
     35 C         -23.2655    0.8382   29.5431 C.2     1  UNL1        0.2612
     36 C         -22.6594    1.2353   28.2959 C.2     1  UNL1        0.1326
     37 O         -22.8956    1.3199   30.6644 O.2     1  UNL1       -0.2693
     38 O         -26.3898   -0.2320   28.3910 O.2     1  UNL1       -0.2741
     39 C         -22.7919    1.6981   26.0183 C.2     1  UNL1        0.3448
     40 C         -23.4440    1.3526   27.2152 C.2     1  UNL1        0.0733
@<TRIPOS>BOND
     1     1     2    1
     2     2     7    1
     3     3     2    2
     4     4     3    1
     5     4     5    2
     6     5     6    1
     7     6     7    2
     8     8     1    1
     9     8     9    1
    10     8    12    1
    11     9    10    1
    12    10    11    1
    13    12    11    1
    14    13    14    1
    15    13    28    1
    16    14    15    1
    17    15    18    2
    18    16    17    1
    19    16    15    1
    20    19    14    2
    21    20    21    2
    22    20    19    1
    23    21    26    1
    24    22    21    1
    25    23    22    1
    26    24    23    1
    27    24    25    1
    28    26    27    1
    29    26    13    1
    30    28    40    1
    31    28    31    1
    32    29    33    2
    33    29    36    1
    34    30    29    1
    35    31    34   am
    36    32    39    2
    37    34    35   am
    38    34     1    1
    39    35    37    2
    40    36    35    1
    41    38    31    2
    42    39    30    1
    43    39    40    1
    44    40    36    2
