@<TRIPOS>MOLECULE
outputs/IAG933/test6/raw/output_7877_IAG933_linker_design_.xyz
 42 45 0 0 0
SMALL
GASTEIGER

@<TRIPOS>ATOM
      1 C         -24.8550   -1.0120   30.1430 C.3     1  UNL1        0.0979
      2 C         -24.9730   -2.5050   29.7880 C.2     1  UNL1       -0.0064
      3 C         -23.9060   -3.1730   29.1460 C.2     1  UNL1       -0.0029
      4 C         -23.9890   -4.5490   28.8530 C.2     1  UNL1       -0.0003
      5 C         -25.1370   -5.2800   29.2050 C.2     1  UNL1       -0.0000
      6 C         -26.2320   -4.6110   29.7840 C.2     1  UNL1       -0.0003
      7 C         -26.1550   -3.2320   30.0650 C.2     1  UNL1       -0.0029
      8 C         -25.3870   -0.6790   31.5710 C.3     1  UNL1        0.0916
      9 C         -25.1890    0.7730   32.0280 C.3     1  UNL1        0.0206
     10 C         -25.3360    0.6840   33.5440 C.3     1  UNL1        0.0203
     11 C         -24.8290   -0.7150   33.9050 C.3     1  UNL1        0.0888
     12 N         -24.7580   -1.4810   32.6460 N.3     1  UNL1       -0.2178
     13 C         -25.6880    1.6140   26.4610 C.2     1  UNL1        0.0193
     14 C         -26.2500    2.9200   26.3950 C.2     1  UNL1        0.0727
     15 C         -25.6420    4.0930   27.1230 C.2     1  UNL1        0.2661
     16 N         -25.6140    5.2520   26.4490 N.am    1  UNL1       -0.1997
     17 C         -25.0260    6.4790   26.9630 C.3     1  UNL1        0.1388
     18 O         -25.1430    3.9660   28.2430 O.2     1  UNL1       -0.2683
     19 C         -27.4380    3.0910   25.6450 C.2     1  UNL1        0.1064
     20 N         -28.0750    2.0890   25.0030 N.2     1  UNL1       -0.2081
     21 C         -27.5430    0.8490   25.0790 C.2     1  UNL1        0.2530
     22 O         -28.1930   -0.2080   24.4770 O.2     1  UNL1       -0.4558
     23 C         -29.4600    0.0050   23.8660 C.3     1  UNL1        0.2426
     24 C         -30.0650   -1.3770   23.5730 C.3     1  UNL1        0.2292
     25 O         -30.7290   -1.8780   24.7210 O.3     1  UNL1       -0.2162
     26 C         -26.3540    0.5760   25.7770 C.2     1  UNL1        0.1892
     27 F         -25.8600   -0.6810   25.7950 F       1  UNL1       -0.1996
     28 O         -24.6048    2.2339   30.0001 O.3     1  UNL1       -0.2825
     29 C         -22.2607    0.0297   29.7879 C.3     1  UNL1        0.0787
     30 BR        -25.3268    3.3846   31.3290 Br      1  UNL1        0.1010
     31 C         -27.9545   -0.2442   28.8669 C.3     1  UNL1        0.0188
     32 C         -21.3626   -0.6402   29.3406 C.2     1  UNL1        0.2076
     33 C         -26.6074   -0.6546   28.6423 C.3     1  UNL1        0.0745
     34 F         -21.2013    2.0558   27.8354 F       1  UNL1       -0.2371
     35 C         -23.0083    2.3410   25.5652 C.3     1  UNL1        0.0033
     36 C         -24.4752    1.0523   29.2331 C.3     1  UNL1        0.1598
     37 N         -25.3561   -0.1605   29.1642 N.3     1  UNL1       -0.2489
     38 O         -20.5931   -0.4227   28.3746 O.2     1  UNL1       -0.2883
     39 C         -23.0474    0.7789   29.0712 C.3     1  UNL1        0.0811
     40 C         -22.3603    1.2826   27.9687 C.3     1  UNL1        0.1653
     41 C         -24.6527    1.5242   27.4345 C.3     1  UNL1        0.0680
     42 C         -23.2174    1.6141   26.8154 C.3     1  UNL1        0.0405
@<TRIPOS>BOND
     1     1    37    1
     2     2     7    1
     3     2     1    1
     4     3     2    2
     5     4     3    1
     6     4     5    2
     7     5     6    1
     8     6     7    2
     9     8     1    1
    10     8     9    1
    11     8    12    1
    12     9    10    1
    13    10    11    1
    14    12    11    1
    15    14    13    1
    16    14    15    1
    17    15    18    2
    18    16    17    1
    19    16    15    1
    20    19    14    2
    21    20    21    2
    22    20    19    1
    23    21    26    1
    24    22    21    1
    25    23    22    1
    26    24    23    1
    27    24    25    1
    28    26    27    1
    29    26    13    2
    30    28    30    1
    31    32    29    1
    32    33    31    1
    33    33    37    1
    34    36    28    1
    35    37    36    1
    36    38    32    2
    37    39    36    1
    38    39    29    1
    39    40    34    1
    40    40    39    1
    41    41    13    1
    42    41    36    1
    43    42    35    1
    44    42    41    1
    45    42    40    1
