@<TRIPOS>MOLECULE
outputs/IAG933/test6/raw/output_7880_IAG933_linker_design_.xyz
 43 47 0 0 0
SMALL
GASTEIGER

@<TRIPOS>ATOM
      1 C         -24.8550   -1.0120   30.1430 C.3     1  UNL1        0.0763
      2 C         -24.9730   -2.5050   29.7880 C.2     1  UNL1       -0.0156
      3 C         -23.9060   -3.1730   29.1460 C.2     1  UNL1       -0.0039
      4 C         -23.9890   -4.5490   28.8530 C.2     1  UNL1       -0.0003
      5 C         -25.1370   -5.2800   29.2050 C.2     1  UNL1       -0.0000
      6 C         -26.2320   -4.6110   29.7840 C.2     1  UNL1       -0.0003
      7 C         -26.1550   -3.2320   30.0650 C.2     1  UNL1       -0.0039
      8 C         -25.3870   -0.6790   31.5710 C.3     1  UNL1        0.0823
      9 C         -25.1890    0.7730   32.0280 C.3     1  UNL1        0.0196
     10 C         -25.3360    0.6840   33.5440 C.3     1  UNL1        0.0203
     11 C         -24.8290   -0.7150   33.9050 C.3     1  UNL1        0.0887
     12 N         -24.7580   -1.4810   32.6460 N.3     1  UNL1       -0.2187
     13 C         -25.6880    1.6140   26.4610 C.3     1  UNL1        0.1082
     14 C         -26.2500    2.9200   26.3950 C.2     1  UNL1        0.0604
     15 C         -25.6420    4.0930   27.1230 C.2     1  UNL1        0.2628
     16 N         -25.6140    5.2520   26.4490 N.am    1  UNL1       -0.2000
     17 C         -25.0260    6.4790   26.9630 C.3     1  UNL1        0.1388
     18 O         -25.1430    3.9660   28.2430 O.2     1  UNL1       -0.2686
     19 C         -27.4380    3.0910   25.6450 C.2     1  UNL1        0.1025
     20 N         -28.0750    2.0890   25.0030 N.2     1  UNL1       -0.2118
     21 C         -27.5430    0.8490   25.0790 C.2     1  UNL1        0.2345
     22 O         -28.1930   -0.2080   24.4770 O.2     1  UNL1       -0.4585
     23 C         -29.4600    0.0050   23.8660 C.3     1  UNL1        0.2423
     24 C         -30.0650   -1.3770   23.5730 C.3     1  UNL1        0.2292
     25 O         -30.7290   -1.8780   24.7210 O.3     1  UNL1       -0.2162
     26 C         -26.3540    0.5760   25.7770 C.3     1  UNL1        0.2455
     27 F         -25.8600   -0.6810   25.7950 F       1  UNL1       -0.2265
     28 C         -22.5325    1.8321   26.6785 C.2     1  UNL1        0.0955
     29 C         -27.0130    0.8192   28.9625 C.3     1  UNL1        0.1060
     30 C         -23.5512    1.2721   27.4860 C.ar    1  UNL1        0.0263
     31 C         -21.9432    0.4834   29.0786 C.3     1  UNL1        0.2334
     32 CL        -22.8319    2.6618   25.2192 Cl      1  UNL1       -0.0789
     33 O         -21.0042    0.9946   28.2707 O.2     1  UNL1       -0.4667
     34 N         -25.5197    0.6651   28.4867 N.ar    1  UNL1       -0.3334
     35 C         -28.0512    2.8695   30.1788 C.3     1  UNL1        0.1161
     36 C         -23.2928    0.5757   28.6901 C.ar    1  UNL1        0.0352
     37 C         -27.0653    3.4904   31.0166 C.2     1  UNL1        0.3649
     38 O         -27.2519    3.4841   32.2402 O.co2   1  UNL1       -0.2457
     39 C         -27.7394    1.8346   29.2099 C.3     1  UNL1        0.0363
     40 C         -21.2442    1.6555   27.0961 C.2     1  UNL1        0.1840
     41 O         -25.8511    3.7708   30.6083 O.co2   1  UNL1       -0.2457
     42 C         -24.5511    0.0061   29.3343 C.ar    1  UNL1        0.0413
     43 C         -24.8434    1.1230   27.4497 C.ar    1  UNL1        0.0446
@<TRIPOS>BOND
     1     1    42    1
     2     2     7    1
     3     2     1    1
     4     3     2    2
     5     4     3    1
     6     4     5    2
     7     5     6    1
     8     6     7    2
     9     8     1    1
    10     8     9    1
    11     8    12    1
    12     9    10    1
    13    10    11    1
    14    12    11    1
    15    13    43    1
    16    14    13    1
    17    14    15    1
    18    15    18    2
    19    16    17    1
    20    16    15    1
    21    19    14    2
    22    20    21    2
    23    20    19    1
    24    21    26    1
    25    22    21    1
    26    23    22    1
    27    24    23    1
    28    24    25    1
    29    26    27    1
    30    26    13    1
    31    28    40    2
    32    28    30    1
    33    29    39    1
    34    30    36   ar
    35    32    28    1
    36    33    31    1
    37    34    29    1
    38    34    42   ar
    39    35    37    1
    40    36    31    1
    41    36    42   ar
    42    37    38   ar
    43    39    35    1
    44    40    33    1
    45    41    37   ar
    46    43    30   ar
    47    43    34   ar
