@<TRIPOS>MOLECULE
outputs/IAG933/test6/raw/output_7888_IAG933_linker_design_.xyz
 46 51 0 0 0
SMALL
GASTEIGER

@<TRIPOS>ATOM
      1 C         -24.8550   -1.0120   30.1430 C.3     1  UNL1        0.1140
      2 C         -24.9730   -2.5050   29.7880 C.2     1  UNL1       -0.0029
      3 C         -23.9060   -3.1730   29.1460 C.2     1  UNL1       -0.0026
      4 C         -23.9890   -4.5490   28.8530 C.2     1  UNL1       -0.0003
      5 C         -25.1370   -5.2800   29.2050 C.2     1  UNL1       -0.0000
      6 C         -26.2320   -4.6110   29.7840 C.2     1  UNL1       -0.0003
      7 C         -26.1550   -3.2320   30.0650 C.2     1  UNL1       -0.0026
      8 C         -25.3870   -0.6790   31.5710 C.3     1  UNL1        0.0951
      9 C         -25.1890    0.7730   32.0280 C.3     1  UNL1        0.0209
     10 C         -25.3360    0.6840   33.5440 C.3     1  UNL1        0.0203
     11 C         -24.8290   -0.7150   33.9050 C.3     1  UNL1        0.0888
     12 N         -24.7580   -1.4810   32.6460 N.3     1  UNL1       -0.2174
     13 C         -25.6880    1.6140   26.4610 C.3     1  UNL1        0.0726
     14 C         -26.2500    2.9200   26.3950 C.2     1  UNL1        0.0549
     15 C         -25.6420    4.0930   27.1230 C.2     1  UNL1        0.2624
     16 N         -25.6140    5.2520   26.4490 N.am    1  UNL1       -0.2000
     17 C         -25.0260    6.4790   26.9630 C.3     1  UNL1        0.1388
     18 O         -25.1430    3.9660   28.2430 O.2     1  UNL1       -0.2687
     19 C         -27.4380    3.0910   25.6450 C.2     1  UNL1        0.1021
     20 N         -28.0750    2.0890   25.0030 N.2     1  UNL1       -0.2119
     21 C         -27.5430    0.8490   25.0790 C.2     1  UNL1        0.2341
     22 O         -28.1930   -0.2080   24.4770 O.2     1  UNL1       -0.4585
     23 C         -29.4600    0.0050   23.8660 C.3     1  UNL1        0.2423
     24 C         -30.0650   -1.3770   23.5730 C.3     1  UNL1        0.2292
     25 O         -30.7290   -1.8780   24.7210 O.3     1  UNL1       -0.2162
     26 C         -26.3540    0.5760   25.7770 C.3     1  UNL1        0.2401
     27 F         -25.8600   -0.6810   25.7950 F       1  UNL1       -0.2269
     28 O         -19.2854    0.8980   28.5561 O.3     1  UNL1       -0.3142
     29 C         -27.4174   -0.4848   28.5522 C.2     1  UNL1       -0.0027
     30 O         -21.1768    1.6155   26.7837 O.3     1  UNL1       -0.4218
     31 C         -24.7647    1.2081   27.4955 C.3     1  UNL1        0.0410
     32 C         -28.8444   -0.5996   28.5011 C.2     1  UNL1       -0.0003
     33 C         -22.4299    2.0208   26.2667 C.2     1  UNL1        0.3189
     34 C         -20.5591    0.4036   28.7465 C.3     1  UNL1        0.1978
     35 C         -27.6013    1.6582   29.7986 C.2     1  UNL1       -0.0027
     36 N         -24.4380   -0.0305   29.2763 N.am    1  UNL1       -0.2738
     37 C         -29.0148    1.4975   29.8236 C.2     1  UNL1       -0.0003
     38 C         -20.8431    1.6763   28.2162 C.3     1  UNL1        0.3186
     39 C         -26.7927    0.7186   29.0640 C.2     1  UNL1       -0.0042
     40 C         -21.4252   -0.5167   28.2602 C.3     1  UNL1        0.1214
     41 C         -22.9953   -0.1047   28.8874 C.2     1  UNL1        0.2287
     42 C         -29.6366    0.4048   29.1403 C.2     1  UNL1       -0.0000
     43 C         -25.2750    0.7682   28.7829 C.3     1  UNL1        0.0990
     44 O         -22.3967    0.3771   30.1871 O.2     1  UNL1       -0.2748
     45 C         -23.4702    1.3107   27.1025 C.3     1  UNL1        0.1120
     46 O         -22.9954    2.9461   25.5362 O.2     1  UNL1       -0.2500
@<TRIPOS>BOND
     1     1     2    1
     2     2     7    1
     3     3     2    2
     4     4     3    1
     5     4     5    2
     6     5     6    1
     7     6     7    2
     8     8     1    1
     9     8     9    1
    10     8    12    1
    11     9    10    1
    12    10    11    1
    13    12    11    1
    14    13    14    1
    15    13    31    1
    16    14    15    1
    17    15    18    2
    18    16    17    1
    19    16    15    1
    20    19    14    2
    21    20    21    2
    22    20    19    1
    23    21    26    1
    24    22    21    1
    25    23    22    1
    26    24    23    1
    27    24    25    1
    28    26    27    1
    29    26    13    1
    30    28    34    1
    31    29    39    1
    32    31    45    1
    33    31    43    1
    34    32    29    2
    35    32    42    1
    36    33    30    1
    37    33    45    1
    38    34    40    1
    39    35    37    1
    40    36     1    1
    41    38    30    1
    42    38    28    1
    43    38    34    1
    44    39    35    2
    45    40    41    1
    46    41    36   am
    47    41    44    2
    48    42    37    2
    49    43    39    1
    50    43    36    1
    51    46    33    2
