@<TRIPOS>MOLECULE
outputs/IAG933/test6/raw/output_789_IAG933_linker_design_.xyz
 46 49 0 0 0
SMALL
GASTEIGER

@<TRIPOS>ATOM
      1 C         -24.8550   -1.0120   30.1430 C.3     1  UNL1        0.1113
      2 C         -24.9730   -2.5050   29.7880 C.2     1  UNL1       -0.0030
      3 C         -23.9060   -3.1730   29.1460 C.2     1  UNL1       -0.0026
      4 C         -23.9890   -4.5490   28.8530 C.2     1  UNL1       -0.0003
      5 C         -25.1370   -5.2800   29.2050 C.2     1  UNL1       -0.0000
      6 C         -26.2320   -4.6110   29.7840 C.2     1  UNL1       -0.0003
      7 C         -26.1550   -3.2320   30.0650 C.2     1  UNL1       -0.0026
      8 C         -25.3870   -0.6790   31.5710 C.3     1  UNL1        0.0950
      9 C         -25.1890    0.7730   32.0280 C.3     1  UNL1        0.0209
     10 C         -25.3360    0.6840   33.5440 C.3     1  UNL1        0.0203
     11 C         -24.8290   -0.7150   33.9050 C.3     1  UNL1        0.0888
     12 N         -24.7580   -1.4810   32.6460 N.3     1  UNL1       -0.2174
     13 C         -25.6880    1.6140   26.4610 C.2     1  UNL1        0.0401
     14 C         -26.2500    2.9200   26.3950 C.2     1  UNL1        0.0766
     15 C         -25.6420    4.0930   27.1230 C.2     1  UNL1        0.2664
     16 N         -25.6140    5.2520   26.4490 N.am    1  UNL1       -0.1997
     17 C         -25.0260    6.4790   26.9630 C.3     1  UNL1        0.1388
     18 O         -25.1430    3.9660   28.2430 O.2     1  UNL1       -0.2683
     19 C         -27.4380    3.0910   25.6450 C.2     1  UNL1        0.1067
     20 N         -28.0750    2.0890   25.0030 N.2     1  UNL1       -0.2081
     21 C         -27.5430    0.8490   25.0790 C.2     1  UNL1        0.2533
     22 O         -28.1930   -0.2080   24.4770 O.2     1  UNL1       -0.4558
     23 C         -29.4600    0.0050   23.8660 C.3     1  UNL1        0.2426
     24 C         -30.0650   -1.3770   23.5730 C.3     1  UNL1        0.2292
     25 O         -30.7290   -1.8780   24.7210 O.3     1  UNL1       -0.2162
     26 C         -26.3540    0.5760   25.7770 C.2     1  UNL1        0.1931
     27 F         -25.8600   -0.6810   25.7950 F       1  UNL1       -0.1992
     28 O         -30.0522   -1.0366   27.3848 O.3     1  UNL1       -0.2177
     29 C         -21.8381    1.7635   27.0332 C.2     1  UNL1        0.0115
     30 C         -24.1147    0.5335   28.3211 C.2     1  UNL1        0.0489
     31 C         -23.1452    1.7715   26.4227 C.2     1  UNL1        0.0589
     32 C         -28.8770    0.0842   29.0886 C.3     1  UNL1        0.1864
     33 C         -30.0705   -0.6716   28.7333 C.3     1  UNL1        0.2116
     34 O         -29.5317   -2.8267   30.6457 O.3     1  UNL1       -0.3482
     35 C         -21.7483    1.1164   28.2967 C.2     1  UNL1        0.0021
     36 C         -31.6605   -2.2597   29.7829 C.3     1  UNL1        0.2141
     37 N         -25.1928   -0.0722   29.0176 N.pl3   1  UNL1       -0.3040
     38 CL        -23.1599    2.2961   24.8261 Cl      1  UNL1       -0.0822
     39 O         -28.9687    1.2292   29.7608 O.3     1  UNL1       -0.2203
     40 C         -27.5834   -0.4945   28.8561 C.3     1  UNL1        0.0570
     41 C         -29.5727   -4.2198   30.2689 C.3     1  UNL1        0.1742
     42 C         -30.2650   -1.6999   29.9413 C.3     1  UNL1        0.1809
     43 C         -24.2650    1.2943   27.0784 C.2     1  UNL1        0.0264
     44 O         -31.8945   -3.3761   30.5799 O.3     1  UNL1       -0.2176
     45 C         -26.5753    0.4774   28.8749 C.3     1  UNL1        0.0938
     46 C         -22.8499    0.4899   28.9086 C.2     1  UNL1        0.0146
@<TRIPOS>BOND
     1     1    37    1
     2     2     7    1
     3     2     1    1
     4     3     2    2
     5     4     3    1
     6     4     5    2
     7     5     6    1
     8     6     7    2
     9     8     1    1
    10     8     9    1
    11     8    12    1
    12     9    10    1
    13    10    11    1
    14    12    11    1
    15    13    43    1
    16    14    13    1
    17    14    15    1
    18    15    18    2
    19    16    17    1
    20    16    15    1
    21    19    14    2
    22    20    21    2
    23    20    19    1
    24    21    26    1
    25    22    21    1
    26    23    22    1
    27    24    23    1
    28    24    25    1
    29    26    27    1
    30    26    13    2
    31    29    35    1
    32    30    46    1
    33    30    37    1
    34    31    29    2
    35    31    43    1
    36    32    39    1
    37    33    28    1
    38    33    32    1
    39    33    42    1
    40    35    46    2
    41    36    44    1
    42    38    31    1
    43    40    45    1
    44    40    32    1
    45    41    34    1
    46    42    36    1
    47    42    34    1
    48    43    30    2
    49    45    37    1
