@<TRIPOS>MOLECULE
outputs/IAG933/test6/raw/output_7894_IAG933_linker_design_.xyz
 39 42 0 0 0
SMALL
GASTEIGER

@<TRIPOS>ATOM
      1 C         -24.8550   -1.0120   30.1430 C.3     1  UNL1        0.0859
      2 C         -24.9730   -2.5050   29.7880 C.2     1  UNL1       -0.0153
      3 C         -23.9060   -3.1730   29.1460 C.2     1  UNL1       -0.0039
      4 C         -23.9890   -4.5490   28.8530 C.2     1  UNL1       -0.0003
      5 C         -25.1370   -5.2800   29.2050 C.2     1  UNL1       -0.0000
      6 C         -26.2320   -4.6110   29.7840 C.2     1  UNL1       -0.0003
      7 C         -26.1550   -3.2320   30.0650 C.2     1  UNL1       -0.0039
      8 C         -25.3870   -0.6790   31.5710 C.3     1  UNL1        0.0826
      9 C         -25.1890    0.7730   32.0280 C.3     1  UNL1        0.0196
     10 C         -25.3360    0.6840   33.5440 C.3     1  UNL1        0.0203
     11 C         -24.8290   -0.7150   33.9050 C.3     1  UNL1        0.0887
     12 N         -24.7580   -1.4810   32.6460 N.3     1  UNL1       -0.2187
     13 C         -25.6880    1.6140   26.4610 C.2     1  UNL1        0.1845
     14 C         -26.2500    2.9200   26.3950 C.2     1  UNL1        0.1140
     15 C         -25.6420    4.0930   27.1230 C.2     1  UNL1        0.2698
     16 N         -25.6140    5.2520   26.4490 N.am    1  UNL1       -0.1996
     17 C         -25.0260    6.4790   26.9630 C.3     1  UNL1        0.1388
     18 O         -25.1430    3.9660   28.2430 O.2     1  UNL1       -0.2682
     19 C         -27.4380    3.0910   25.6450 C.2     1  UNL1        0.1102
     20 N         -28.0750    2.0890   25.0030 N.2     1  UNL1       -0.2078
     21 C         -27.5430    0.8490   25.0790 C.2     1  UNL1        0.2568
     22 O         -28.1930   -0.2080   24.4770 O.2     1  UNL1       -0.4557
     23 C         -29.4600    0.0050   23.8660 C.3     1  UNL1        0.2426
     24 C         -30.0650   -1.3770   23.5730 C.3     1  UNL1        0.2292
     25 O         -30.7290   -1.8780   24.7210 O.3     1  UNL1       -0.2162
     26 C         -26.3540    0.5760   25.7770 C.2     1  UNL1        0.2302
     27 F         -25.8600   -0.6810   25.7950 F       1  UNL1       -0.1956
     28 O         -27.5751    1.9997   29.5355 O.3     1  UNL1       -0.2134
     29 N         -22.8651    0.6434   28.6525 N.2     1  UNL1       -0.0000
     30 C         -25.3444   -0.2220   28.9068 C.2     1  UNL1        0.1465
     31 O         -22.8804    2.7182   25.8388 O.2     1  UNL1       -0.2342
     32 F         -20.8652    1.6721   27.6160 F       1  UNL1       -0.1471
     33 C         -23.2184    1.9292   26.7255 C.2     1  UNL1        0.4134
     34 N         -24.4316    1.3649   27.0784 N.am    1  UNL1       -0.1074
     35 C         -22.2014    1.4074   27.7420 C.2     1  UNL1        0.4085
     36 N         -26.5700   -0.4616   28.4761 N.2     1  UNL1       -0.2423
     37 C         -27.8043   -0.0419   28.4296 C.2     1  UNL1        0.1080
     38 C         -24.2816    0.5751   28.2813 C.2     1  UNL1        0.3519
     39 C         -28.6545    1.1135   29.0424 C.3     1  UNL1        0.2287
@<TRIPOS>BOND
     1     1    30    1
     2     2     7    1
     3     2     1    1
     4     3     2    2
     5     4     3    1
     6     4     5    2
     7     5     6    1
     8     6     7    2
     9     8     1    1
    10     8     9    1
    11     8    12    1
    12     9    10    1
    13    10    11    1
    14    12    11    1
    15    13    34    1
    16    14    13    1
    17    14    15    1
    18    15    18    2
    19    16    17    1
    20    16    15    1
    21    19    14    2
    22    20    21    2
    23    20    19    1
    24    21    26    1
    25    22    21    1
    26    23    22    1
    27    24    23    1
    28    24    25    1
    29    26    27    1
    30    26    13    2
    31    31    33    2
    32    32    35    1
    33    33    34   am
    34    33    35    1
    35    34    38    1
    36    35    29    2
    37    36    30    1
    38    37    36    2
    39    37    39    1
    40    38    29    1
    41    38    30    2
    42    39    28    1
