@<TRIPOS>MOLECULE
outputs/IAG933/test6/raw/output_7898_IAG933_linker_design_.xyz
 40 43 0 0 0
SMALL
GASTEIGER

@<TRIPOS>ATOM
      1 C         -24.8550   -1.0120   30.1430 C.3     1  UNL1        0.0731
      2 C         -24.9730   -2.5050   29.7880 C.2     1  UNL1       -0.0183
      3 C         -23.9060   -3.1730   29.1460 C.2     1  UNL1       -0.0041
      4 C         -23.9890   -4.5490   28.8530 C.2     1  UNL1       -0.0003
      5 C         -25.1370   -5.2800   29.2050 C.2     1  UNL1       -0.0000
      6 C         -26.2320   -4.6110   29.7840 C.2     1  UNL1       -0.0003
      7 C         -26.1550   -3.2320   30.0650 C.2     1  UNL1       -0.0041
      8 C         -25.3870   -0.6790   31.5710 C.3     1  UNL1        0.0796
      9 C         -25.1890    0.7730   32.0280 C.3     1  UNL1        0.0193
     10 C         -25.3360    0.6840   33.5440 C.3     1  UNL1        0.0202
     11 C         -24.8290   -0.7150   33.9050 C.3     1  UNL1        0.0887
     12 N         -24.7580   -1.4810   32.6460 N.3     1  UNL1       -0.2190
     13 C         -25.6880    1.6140   26.4610 C.2     1  UNL1        0.1086
     14 C         -26.2500    2.9200   26.3950 C.2     1  UNL1        0.0918
     15 C         -25.6420    4.0930   27.1230 C.2     1  UNL1        0.2677
     16 N         -25.6140    5.2520   26.4490 N.am    1  UNL1       -0.1997
     17 C         -25.0260    6.4790   26.9630 C.3     1  UNL1        0.1388
     18 O         -25.1430    3.9660   28.2430 O.2     1  UNL1       -0.2683
     19 C         -27.4380    3.0910   25.6450 C.2     1  UNL1        0.1080
     20 N         -28.0750    2.0890   25.0030 N.2     1  UNL1       -0.2080
     21 C         -27.5430    0.8490   25.0790 C.2     1  UNL1        0.2546
     22 O         -28.1930   -0.2080   24.4770 O.2     1  UNL1       -0.4558
     23 C         -29.4600    0.0050   23.8660 C.3     1  UNL1        0.2426
     24 C         -30.0650   -1.3770   23.5730 C.3     1  UNL1        0.2292
     25 O         -30.7290   -1.8780   24.7210 O.3     1  UNL1       -0.2162
     26 C         -26.3540    0.5760   25.7770 C.2     1  UNL1        0.2082
     27 F         -25.8600   -0.6810   25.7950 F       1  UNL1       -0.1978
     28 O         -25.9203   -0.3730   28.4248 O.3     1  UNL1       -0.2178
     29 C         -20.9897    0.6371   28.5932 C.2     1  UNL1        0.0586
     30 N         -24.6859    1.3987   27.1662 N.pl3   1  UNL1       -0.2037
     31 O         -23.3034    2.5410   25.5405 O.2     1  UNL1       -0.4429
     32 C         -22.2763    0.1823   29.2015 C.2     1  UNL1        0.0921
     33 C         -23.6311    1.0732   27.4229 C.2     1  UNL1        0.1418
     34 C         -24.7268   -0.2623   29.0062 C.3     1  UNL1        0.1823
     35 C         -22.8477    1.7078   26.5130 C.2     1  UNL1        0.3123
     36 C         -23.4951    0.3609   28.5710 C.2     1  UNL1        0.0464
     37 C         -22.3736    2.6296   24.3164 C.3     1  UNL1        0.2559
     38 N         -22.2242   -0.4365   30.3279 N.pl3   1  UNL1       -0.1282
     39 C         -20.6647    1.3043   27.5424 C.2     1  UNL1        0.1844
     40 O         -21.4099    1.8585   26.5188 O.2     1  UNL1       -0.4196
@<TRIPOS>BOND
     1     1    34    1
     2     2     7    1
     3     2     1    1
     4     3     2    2
     5     4     3    1
     6     4     5    2
     7     5     6    1
     8     6     7    2
     9     8     1    1
    10     8     9    1
    11     8    12    1
    12     9    10    1
    13    10    11    1
    14    12    11    1
    15    13    30    1
    16    14    13    1
    17    14    15    1
    18    15    18    2
    19    16    17    1
    20    16    15    1
    21    19    14    2
    22    20    21    2
    23    20    19    1
    24    21    26    1
    25    22    21    1
    26    23    22    1
    27    24    23    1
    28    24    25    1
    29    26    27    1
    30    26    13    2
    31    29    32    1
    32    30    33    1
    33    31    35    1
    34    32    38    1
    35    33    36    1
    36    34    28    1
    37    35    40    1
    38    35    33    2
    39    36    34    1
    40    36    32    2
    41    37    31    1
    42    39    29    2
    43    40    39    1
