@<TRIPOS>MOLECULE
No_79-gen_results/8p0m/2024-11-27-11-27-31/
 33 38 0 0 0
SMALL
GASTEIGER

@<TRIPOS>ATOM
      1 O         -28.1229   -1.3353   28.4874 O.2     1  UNL1       -0.2738
      2 C         -28.5208   -0.4363   29.0779 C.2     1  UNL1        0.2370
      3 C         -28.5894    0.5916   28.9464 C.3     1  UNL1        0.1036
      4 N         -28.7866   -0.8872   30.4874 N.am    1  UNL1       -0.2373
      5 C         -27.7841    1.2822   27.9869 C.ar    1  UNL1       -0.0174
      6 C         -28.0838    1.5823   26.7801 C.ar    1  UNL1       -0.0041
      7 C         -27.1210    2.0132   25.7117 C.ar    1  UNL1       -0.0003
      8 C         -25.7656    2.1252   26.0617 C.ar    1  UNL1        0.0012
      9 C         -25.3777    1.7748   27.4171 C.ar    1  UNL1        0.0132
     10 C         -26.3154    1.3420   28.2647 C.ar    1  UNL1       -0.0239
     11 C         -28.7205   -2.2974   30.9281 C.ar    1  UNL1        0.0603
     12 C         -29.3202    0.0098   31.4965 C.ar    1  UNL1        0.0541
     13 C         -23.9534    1.8973   27.7332 C.ar    1  UNL1        0.0802
     14 N         -22.9717    1.7939   26.9080 N.ar    1  UNL1       -0.2243
     15 C         -23.5751    1.1646   29.0350 C.ar    1  UNL1        0.0147
     16 C         -21.6938    1.6965   27.4631 C.ar    1  UNL1        0.1989
     17 C         -24.4945    1.3015   30.1511 C.3     1  UNL1        0.0297
     18 C         -22.3629    0.5590   29.1548 C.ar    1  UNL1        0.0979
     19 N         -21.3951    0.8888   28.3635 N.ar    1  UNL1       -0.2228
     20 C         -24.0669    0.9739   31.5158 C.3     1  UNL1        0.0051
     21 C         -25.8994    1.5284   29.8207 C.3     1  UNL1        0.0305
     22 C         -30.0719   -0.4209   32.4914 C.ar    1  UNL1        0.0149
     23 C         -27.6836   -2.9192   30.6034 C.ar    1  UNL1        0.0449
     24 C         -27.6776   -4.3530   30.2986 C.ar    1  UNL1        0.1414
     25 F         -26.5893   -4.9916   29.9669 F       1  UNL1       -0.2041
     26 C         -30.5132    0.5161   33.4080 C.ar    1  UNL1        0.0013
     27 C         -30.2482    1.8871   33.2347 C.ar    1  UNL1       -0.0002
     28 C         -29.5082    2.3161   32.1473 C.ar    1  UNL1       -0.0030
     29 C         -29.0446    1.4330   31.3177 C.ar    1  UNL1       -0.0074
     30 C         -28.9017   -5.0336   30.2788 C.ar    1  UNL1        0.0297
     31 C         -30.1350   -4.3992   30.4616 C.ar    1  UNL1        0.0036
     32 C         -30.0237   -2.9219   30.7893 C.ar    1  UNL1        0.0154
     33 C         -28.9279    1.7587   29.7439 C.3     1  UNL1        0.0411
@<TRIPOS>BOND
     1     1     2    2
     2     2     3    1
     3     2     4   am
     4     3     5    1
     5     4    11    1
     6     4    12    1
     7     9    13    1
     8    15    17    1
     9    17    20    1
    10    10    21    1
    11    17    21    1
    12    24    25    1
    13     3    33    1
    14    29    33    1
    15     5     6   ar
    16     6     7   ar
    17     7     8   ar
    18     8     9   ar
    19     9    10   ar
    20    10     5   ar
    21    12    22   ar
    22    22    26   ar
    23    26    27   ar
    24    27    28   ar
    25    28    29   ar
    26    29    12   ar
    27    13    14   ar
    28    14    16   ar
    29    16    19   ar
    30    19    18   ar
    31    18    15   ar
    32    15    13   ar
    33    11    23   ar
    34    23    24   ar
    35    24    30   ar
    36    30    31   ar
    37    31    32   ar
    38    32    11   ar
