@<TRIPOS>MOLECULE
outputs/IAG933/test6/raw/output_7900_IAG933_linker_design_.xyz
 42 45 0 0 0
SMALL
GASTEIGER

@<TRIPOS>ATOM
      1 C         -24.8550   -1.0120   30.1430 C.3     1  UNL1        0.0698
      2 C         -24.9730   -2.5050   29.7880 C.2     1  UNL1       -0.0184
      3 C         -23.9060   -3.1730   29.1460 C.2     1  UNL1       -0.0041
      4 C         -23.9890   -4.5490   28.8530 C.2     1  UNL1       -0.0003
      5 C         -25.1370   -5.2800   29.2050 C.2     1  UNL1       -0.0000
      6 C         -26.2320   -4.6110   29.7840 C.2     1  UNL1       -0.0003
      7 C         -26.1550   -3.2320   30.0650 C.2     1  UNL1       -0.0041
      8 C         -25.3870   -0.6790   31.5710 C.3     1  UNL1        0.0795
      9 C         -25.1890    0.7730   32.0280 C.3     1  UNL1        0.0193
     10 C         -25.3360    0.6840   33.5440 C.3     1  UNL1        0.0202
     11 C         -24.8290   -0.7150   33.9050 C.3     1  UNL1        0.0887
     12 N         -24.7580   -1.4810   32.6460 N.3     1  UNL1       -0.2190
     13 C         -25.6880    1.6140   26.4610 C.2     1  UNL1        0.0376
     14 C         -26.2500    2.9200   26.3950 C.2     1  UNL1        0.0765
     15 C         -25.6420    4.0930   27.1230 C.2     1  UNL1        0.2664
     16 N         -25.6140    5.2520   26.4490 N.am    1  UNL1       -0.1997
     17 C         -25.0260    6.4790   26.9630 C.3     1  UNL1        0.1388
     18 O         -25.1430    3.9660   28.2430 O.2     1  UNL1       -0.2683
     19 C         -27.4380    3.0910   25.6450 C.2     1  UNL1        0.1067
     20 N         -28.0750    2.0890   25.0030 N.2     1  UNL1       -0.2081
     21 C         -27.5430    0.8490   25.0790 C.2     1  UNL1        0.2533
     22 O         -28.1930   -0.2080   24.4770 O.2     1  UNL1       -0.4558
     23 C         -29.4600    0.0050   23.8660 C.3     1  UNL1        0.2426
     24 C         -30.0650   -1.3770   23.5730 C.3     1  UNL1        0.2292
     25 O         -30.7290   -1.8780   24.7210 O.3     1  UNL1       -0.2162
     26 C         -26.3540    0.5760   25.7770 C.2     1  UNL1        0.1930
     27 F         -25.8600   -0.6810   25.7950 F       1  UNL1       -0.1992
     28 C         -23.4366    1.2353   26.4741 C.2     1  UNL1        0.0549
     29 C         -22.3934    1.0249   27.4831 C.3     1  UNL1        0.2333
     30 C         -27.6661    1.1185   29.7963 C.3     1  UNL1        0.1745
     31 O         -23.0681    2.5746   24.5243 O.3     1  UNL1       -0.2927
     32 O         -26.6001    0.9644   28.9029 O.3     1  UNL1       -0.3487
     33 C         -23.1262    0.4945   28.5680 C.2     1  UNL1        0.1524
     34 F         -21.0659    1.1702   27.6989 F       1  UNL1       -0.2252
     35 O         -21.0035    2.1130   25.4869 O.3     1  UNL1       -0.1840
     36 C         -23.3894    1.5797   25.0154 C.3     1  UNL1        0.3029
     37 F         -22.4455    0.0478   29.6681 F       1  UNL1       -0.2059
     38 F         -23.8950    0.5292   24.2146 F       1  UNL1       -0.1990
     39 C         -24.6663    0.9825   27.2592 C.2     1  UNL1        0.0027
     40 C         -25.5875   -0.0388   29.1626 C.3     1  UNL1        0.1447
     41 C         -24.4830    0.6113   28.3088 C.2     1  UNL1        0.0310
     42 C         -21.9413    2.3809   24.9619 C.3     1  UNL1        0.3312
@<TRIPOS>BOND
     1     1    40    1
     2     2     7    1
     3     2     1    1
     4     3     2    2
     5     4     3    1
     6     4     5    2
     7     5     6    1
     8     6     7    2
     9     8     1    1
    10     8     9    1
    11     8    12    1
    12     9    10    1
    13    10    11    1
    14    12    11    1
    15    13    39    1
    16    14    13    1
    17    14    15    1
    18    15    18    2
    19    16    17    1
    20    16    15    1
    21    19    14    2
    22    20    21    2
    23    20    19    1
    24    21    26    1
    25    22    21    1
    26    23    22    1
    27    24    23    1
    28    24    25    1
    29    26    27    1
    30    26    13    2
    31    28    39    2
    32    28    29    1
    33    29    34    1
    34    29    33    1
    35    31    42    1
    36    31    36    1
    37    32    30    1
    38    33    37    1
    39    36    38    1
    40    36    28    1
    41    39    41    1
    42    40    32    1
    43    41    33    2
    44    41    40    1
    45    42    35    1
