@<TRIPOS>MOLECULE
outputs/IAG933/test6/raw/output_7901_IAG933_linker_design_.xyz
 41 45 0 0 0
SMALL
GASTEIGER

@<TRIPOS>ATOM
      1 C         -24.8550   -1.0120   30.1430 C.3     1  UNL1        0.0986
      2 C         -24.9730   -2.5050   29.7880 C.2     1  UNL1       -0.0064
      3 C         -23.9060   -3.1730   29.1460 C.2     1  UNL1       -0.0029
      4 C         -23.9890   -4.5490   28.8530 C.2     1  UNL1       -0.0003
      5 C         -25.1370   -5.2800   29.2050 C.2     1  UNL1       -0.0000
      6 C         -26.2320   -4.6110   29.7840 C.2     1  UNL1       -0.0003
      7 C         -26.1550   -3.2320   30.0650 C.2     1  UNL1       -0.0029
      8 C         -25.3870   -0.6790   31.5710 C.3     1  UNL1        0.0916
      9 C         -25.1890    0.7730   32.0280 C.3     1  UNL1        0.0206
     10 C         -25.3360    0.6840   33.5440 C.3     1  UNL1        0.0203
     11 C         -24.8290   -0.7150   33.9050 C.3     1  UNL1        0.0888
     12 N         -24.7580   -1.4810   32.6460 N.3     1  UNL1       -0.2178
     13 C         -25.6880    1.6140   26.4610 C.2     1  UNL1        0.0335
     14 C         -26.2500    2.9200   26.3950 C.2     1  UNL1        0.0739
     15 C         -25.6420    4.0930   27.1230 C.2     1  UNL1        0.2662
     16 N         -25.6140    5.2520   26.4490 N.am    1  UNL1       -0.1997
     17 C         -25.0260    6.4790   26.9630 C.3     1  UNL1        0.1388
     18 O         -25.1430    3.9660   28.2430 O.2     1  UNL1       -0.2683
     19 C         -27.4380    3.0910   25.6450 C.2     1  UNL1        0.1065
     20 N         -28.0750    2.0890   25.0030 N.2     1  UNL1       -0.2081
     21 C         -27.5430    0.8490   25.0790 C.2     1  UNL1        0.2530
     22 O         -28.1930   -0.2080   24.4770 O.2     1  UNL1       -0.4558
     23 C         -29.4600    0.0050   23.8660 C.3     1  UNL1        0.2426
     24 C         -30.0650   -1.3770   23.5730 C.3     1  UNL1        0.2292
     25 O         -30.7290   -1.8780   24.7210 O.3     1  UNL1       -0.2162
     26 C         -26.3540    0.5760   25.7770 C.2     1  UNL1        0.1905
     27 F         -25.8600   -0.6810   25.7950 F       1  UNL1       -0.1995
     28 O         -20.6477    0.2577   28.3710 O.2     1  UNL1       -0.4368
     29 C         -20.9893    1.8577   26.7527 C.3     1  UNL1        0.2102
     30 C         -24.2588    0.5366   28.2668 C.3     1  UNL1        0.1405
     31 N         -23.6476    2.1070   26.6740 N.3     1  UNL1       -0.1835
     32 O         -21.5345    2.5130   25.6307 O.3     1  UNL1       -0.3280
     33 C         -24.5525    1.3531   27.1581 C.3     1  UNL1        0.1220
     34 C         -21.1715   -0.5856   29.0380 C.3     1  UNL1        0.4289
     35 C         -22.9189    2.2760   25.4841 C.3     1  UNL1        0.2352
     36 C         -26.6991    0.2578   28.9312 C.3     1  UNL1        0.2595
     37 N         -25.2627   -0.0561   29.0869 N.3     1  UNL1       -0.2344
     38 O         -27.0014    1.3801   29.7121 O.3     1  UNL1       -0.2005
     39 C         -22.8510    0.3685   28.4385 C.2     1  UNL1        0.1683
     40 O         -22.4178   -0.5309   29.2457 O.2     1  UNL1       -0.4379
     41 C         -21.6077    0.9333   27.7875 C.2     1  UNL1        0.1809
@<TRIPOS>BOND
     1     1    37    1
     2     2     7    1
     3     2     1    1
     4     3     2    2
     5     4     3    1
     6     4     5    2
     7     5     6    1
     8     6     7    2
     9     8     1    1
    10     8     9    1
    11     8    12    1
    12     9    10    1
    13    10    11    1
    14    12    11    1
    15    14    13    1
    16    14    15    1
    17    15    18    2
    18    16    17    1
    19    16    15    1
    20    19    14    2
    21    20    21    2
    22    20    19    1
    23    21    26    1
    24    22    21    1
    25    23    22    1
    26    24    23    1
    27    24    25    1
    28    26    27    1
    29    26    13    2
    30    28    34    1
    31    29    41    1
    32    30    39    1
    33    30    37    1
    34    31    33    1
    35    32    29    1
    36    33    13    1
    37    33    30    1
    38    34    40    1
    39    35    32    1
    40    35    31    1
    41    36    37    1
    42    36    38    1
    43    39    40    1
    44    41    28    1
    45    41    39    2
