@<TRIPOS>MOLECULE
outputs/IAG933/test6/raw/output_7902_IAG933_linker_design_.xyz
 41 45 0 0 0
SMALL
GASTEIGER

@<TRIPOS>ATOM
      1 C         -24.8550   -1.0120   30.1430 C.3     1  UNL1        0.0688
      2 C         -24.9730   -2.5050   29.7880 C.2     1  UNL1       -0.0187
      3 C         -23.9060   -3.1730   29.1460 C.2     1  UNL1       -0.0042
      4 C         -23.9890   -4.5490   28.8530 C.2     1  UNL1       -0.0003
      5 C         -25.1370   -5.2800   29.2050 C.2     1  UNL1       -0.0000
      6 C         -26.2320   -4.6110   29.7840 C.2     1  UNL1       -0.0003
      7 C         -26.1550   -3.2320   30.0650 C.2     1  UNL1       -0.0042
      8 C         -25.3870   -0.6790   31.5710 C.3     1  UNL1        0.0793
      9 C         -25.1890    0.7730   32.0280 C.3     1  UNL1        0.0193
     10 C         -25.3360    0.6840   33.5440 C.3     1  UNL1        0.0202
     11 C         -24.8290   -0.7150   33.9050 C.3     1  UNL1        0.0887
     12 N         -24.7580   -1.4810   32.6460 N.3     1  UNL1       -0.2190
     13 C         -25.6880    1.6140   26.4610 C.2     1  UNL1        0.0180
     14 C         -26.2500    2.9200   26.3950 C.2     1  UNL1        0.0726
     15 C         -25.6420    4.0930   27.1230 C.2     1  UNL1        0.2661
     16 N         -25.6140    5.2520   26.4490 N.am    1  UNL1       -0.1997
     17 C         -25.0260    6.4790   26.9630 C.3     1  UNL1        0.1388
     18 O         -25.1430    3.9660   28.2430 O.2     1  UNL1       -0.2683
     19 C         -27.4380    3.0910   25.6450 C.2     1  UNL1        0.1064
     20 N         -28.0750    2.0890   25.0030 N.2     1  UNL1       -0.2081
     21 C         -27.5430    0.8490   25.0790 C.2     1  UNL1        0.2530
     22 O         -28.1930   -0.2080   24.4770 O.2     1  UNL1       -0.4558
     23 C         -29.4600    0.0050   23.8660 C.3     1  UNL1        0.2426
     24 C         -30.0650   -1.3770   23.5730 C.3     1  UNL1        0.2292
     25 O         -30.7290   -1.8780   24.7210 O.3     1  UNL1       -0.2162
     26 C         -26.3540    0.5760   25.7770 C.2     1  UNL1        0.1892
     27 F         -25.8600   -0.6810   25.7950 F       1  UNL1       -0.1996
     28 C         -23.4286   -0.6008   30.1992 C.3     1  UNL1        0.1598
     29 C         -22.2015    0.8686   28.8250 C.3     1  UNL1        0.0405
     30 C         -20.8341    2.1772   27.2874 C.3     1  UNL1        0.1521
     31 C         -24.5622    0.6648   28.4721 C.3     1  UNL1        0.1585
     32 C         -23.4154    2.0296   26.5708 C.3     1  UNL1        0.0096
     33 O         -19.8680   -0.2593   28.2353 O.3     1  UNL1       -0.2204
     34 O         -26.1427    0.4842   28.4541 O.3     1  UNL1       -0.2227
     35 C         -22.0331    1.8190   26.5120 C.3     1  UNL1        0.0334
     36 C         -23.2304    0.2748   28.9762 C.3     1  UNL1        0.0641
     37 C         -21.0150   -0.1151   29.0826 C.3     1  UNL1        0.1823
     38 O         -19.6443    1.5555   26.6592 O.3     1  UNL1       -0.2231
     39 C         -21.7174    1.0254   27.5361 C.3     1  UNL1        0.0356
     40 C         -24.5453    1.4137   27.1799 C.3     1  UNL1        0.0555
     41 O         -22.5122   -0.9757   31.0400 O.3     1  UNL1       -0.2227
@<TRIPOS>BOND
     1     1    28    1
     2     2     7    1
     3     2     1    1
     4     3     2    2
     5     4     3    1
     6     4     5    2
     7     5     6    1
     8     6     7    2
     9     8     1    1
    10     8     9    1
    11     8    12    1
    12     9    10    1
    13    10    11    1
    14    12    11    1
    15    13    40    1
    16    14    13    1
    17    14    15    1
    18    15    18    2
    19    16    17    1
    20    16    15    1
    21    19    14    2
    22    20    21    2
    23    20    19    1
    24    21    26    1
    25    22    21    1
    26    23    22    1
    27    24    23    1
    28    24    25    1
    29    26    27    1
    30    26    13    2
    31    28    41    1
    32    29    36    1
    33    29    37    1
    34    30    38    1
    35    30    39    1
    36    31    34    1
    37    31    36    1
    38    32    40    1
    39    33    37    1
    40    35    32    1
    41    35    30    1
    42    35    39    1
    43    36    28    1
    44    39    29    1
    45    40    31    1
