@<TRIPOS>MOLECULE
outputs/IAG933/test6/raw/output_7904_IAG933_linker_design_.xyz
 45 48 0 0 0
SMALL
GASTEIGER

@<TRIPOS>ATOM
      1 C         -24.8550   -1.0120   30.1430 C.3     1  UNL1        0.0493
      2 C         -24.9730   -2.5050   29.7880 C.2     1  UNL1       -0.0204
      3 C         -23.9060   -3.1730   29.1460 C.2     1  UNL1       -0.0042
      4 C         -23.9890   -4.5490   28.8530 C.2     1  UNL1       -0.0003
      5 C         -25.1370   -5.2800   29.2050 C.2     1  UNL1       -0.0000
      6 C         -26.2320   -4.6110   29.7840 C.2     1  UNL1       -0.0003
      7 C         -26.1550   -3.2320   30.0650 C.2     1  UNL1       -0.0042
      8 C         -25.3870   -0.6790   31.5710 C.3     1  UNL1        0.0775
      9 C         -25.1890    0.7730   32.0280 C.3     1  UNL1        0.0192
     10 C         -25.3360    0.6840   33.5440 C.3     1  UNL1        0.0202
     11 C         -24.8290   -0.7150   33.9050 C.3     1  UNL1        0.0887
     12 N         -24.7580   -1.4810   32.6460 N.3     1  UNL1       -0.2191
     13 C         -25.6880    1.6140   26.4610 C.2     1  UNL1        0.0409
     14 C         -26.2500    2.9200   26.3950 C.2     1  UNL1        0.0766
     15 C         -25.6420    4.0930   27.1230 C.2     1  UNL1        0.2664
     16 N         -25.6140    5.2520   26.4490 N.am    1  UNL1       -0.1997
     17 C         -25.0260    6.4790   26.9630 C.3     1  UNL1        0.1388
     18 O         -25.1430    3.9660   28.2430 O.2     1  UNL1       -0.2683
     19 C         -27.4380    3.0910   25.6450 C.2     1  UNL1        0.1067
     20 N         -28.0750    2.0890   25.0030 N.2     1  UNL1       -0.2081
     21 C         -27.5430    0.8490   25.0790 C.2     1  UNL1        0.2533
     22 O         -28.1930   -0.2080   24.4770 O.2     1  UNL1       -0.4558
     23 C         -29.4600    0.0050   23.8660 C.3     1  UNL1        0.2426
     24 C         -30.0650   -1.3770   23.5730 C.3     1  UNL1        0.2292
     25 O         -30.7290   -1.8780   24.7210 O.3     1  UNL1       -0.2162
     26 C         -26.3540    0.5760   25.7770 C.2     1  UNL1        0.1931
     27 F         -25.8600   -0.6810   25.7950 F       1  UNL1       -0.1992
     28 C         -27.1267    1.8738   29.2061 C.3     1  UNL1        0.0651
     29 O         -27.1101    5.1243   29.9825 O.3     1  UNL1       -0.1699
     30 C         -23.0280    0.1967   28.8353 C.2     1  UNL1       -0.0013
     31 C         -25.3124    0.0613   29.1771 C.3     1  UNL1        0.0852
     32 C         -24.3807    1.3341   27.1682 C.2     1  UNL1        0.0402
     33 F         -20.9436    2.3736   26.9139 F       1  UNL1       -0.2008
     34 O         -23.1608    2.4836   25.4310 O.2     1  UNL1       -0.2842
     35 C         -24.2956    0.5624   28.3648 C.2     1  UNL1       -0.0119
     36 C         -22.0232    1.6659   27.3191 C.2     1  UNL1        0.1788
     37 C         -27.6492    3.1608   31.3703 C.3     1  UNL1        0.0844
     38 C         -28.1936    2.6525   30.0189 C.3     1  UNL1        0.0148
     39 C         -23.1931    1.8592   26.6377 C.2     1  UNL1        0.2226
     40 N         -28.3057    5.4940   31.8150 N.3     1  UNL1       -0.0687
     41 C         -27.2776    4.6993   31.2674 C.3     1  UNL1        0.3335
     42 C         -26.6414    0.4368   29.1377 C.2     1  UNL1        0.1546
     43 F         -26.0942    4.9181   31.9476 F       1  UNL1       -0.1861
     44 O         -27.4238   -0.4339   28.9608 O.2     1  UNL1       -0.2957
     45 C         -21.8816    0.7933   28.3412 C.2     1  UNL1        0.0326
@<TRIPOS>BOND
     1     1    31    1
     2     2     7    1
     3     2     1    1
     4     3     2    2
     5     4     3    1
     6     4     5    2
     7     5     6    1
     8     6     7    2
     9     8     1    1
    10     8     9    1
    11     8    12    1
    12     9    10    1
    13    10    11    1
    14    12    11    1
    15    13    32    1
    16    14    13    1
    17    14    15    1
    18    15    18    2
    19    16    17    1
    20    16    15    1
    21    19    14    2
    22    20    21    2
    23    20    19    1
    24    21    26    1
    25    22    21    1
    26    23    22    1
    27    24    23    1
    28    24    25    1
    29    26    27    1
    30    26    13    2
    31    28    38    1
    32    31    42    1
    33    32    35    2
    34    33    36    1
    35    34    39    1
    36    35    30    1
    37    35    31    1
    38    36    45    1
    39    38    37    1
    40    39    32    1
    41    39    36    2
    42    41    29    1
    43    41    37    1
    44    41    40    1
    45    41    43    1
    46    42    28    1
    47    44    42    2
    48    45    30    2
