@<TRIPOS>MOLECULE
outputs/IAG933/test6/raw/output_7908_IAG933_linker_design_.xyz
 43 46 0 0 0
SMALL
GASTEIGER

@<TRIPOS>ATOM
      1 C         -24.8550   -1.0120   30.1430 C.3     1  UNL1        0.0983
      2 C         -24.9730   -2.5050   29.7880 C.2     1  UNL1       -0.0064
      3 C         -23.9060   -3.1730   29.1460 C.2     1  UNL1       -0.0029
      4 C         -23.9890   -4.5490   28.8530 C.2     1  UNL1       -0.0003
      5 C         -25.1370   -5.2800   29.2050 C.2     1  UNL1       -0.0000
      6 C         -26.2320   -4.6110   29.7840 C.2     1  UNL1       -0.0003
      7 C         -26.1550   -3.2320   30.0650 C.2     1  UNL1       -0.0029
      8 C         -25.3870   -0.6790   31.5710 C.3     1  UNL1        0.0916
      9 C         -25.1890    0.7730   32.0280 C.3     1  UNL1        0.0206
     10 C         -25.3360    0.6840   33.5440 C.3     1  UNL1        0.0203
     11 C         -24.8290   -0.7150   33.9050 C.3     1  UNL1        0.0888
     12 N         -24.7580   -1.4810   32.6460 N.3     1  UNL1       -0.2178
     13 C         -25.6880    1.6140   26.4610 C.2     1  UNL1        0.0376
     14 C         -26.2500    2.9200   26.3950 C.2     1  UNL1        0.0763
     15 C         -25.6420    4.0930   27.1230 C.2     1  UNL1        0.2664
     16 N         -25.6140    5.2520   26.4490 N.am    1  UNL1       -0.1997
     17 C         -25.0260    6.4790   26.9630 C.3     1  UNL1        0.1388
     18 O         -25.1430    3.9660   28.2430 O.2     1  UNL1       -0.2683
     19 C         -27.4380    3.0910   25.6450 C.2     1  UNL1        0.1067
     20 N         -28.0750    2.0890   25.0030 N.2     1  UNL1       -0.2081
     21 C         -27.5430    0.8490   25.0790 C.2     1  UNL1        0.2533
     22 O         -28.1930   -0.2080   24.4770 O.2     1  UNL1       -0.4558
     23 C         -29.4600    0.0050   23.8660 C.3     1  UNL1        0.2426
     24 C         -30.0650   -1.3770   23.5730 C.3     1  UNL1        0.2292
     25 O         -30.7290   -1.8780   24.7210 O.3     1  UNL1       -0.2162
     26 C         -26.3540    0.5760   25.7770 C.2     1  UNL1        0.1929
     27 F         -25.8600   -0.6810   25.7950 F       1  UNL1       -0.1992
     28 C         -26.8019    0.4881   29.1087 C.3     1  UNL1        0.1766
     29 C         -21.9196    1.6699   26.8250 C.2     1  UNL1        0.1142
     30 O         -27.5476   -0.5008   28.4187 O.3     1  UNL1       -0.3409
     31 N         -22.3523    0.0131   29.9341 N.3     1  UNL1       -0.1295
     32 O         -20.4046    0.9589   28.3699 O.2     1  UNL1       -0.2310
     33 N         -25.1927   -0.0200   29.0718 N.3     1  UNL1       -0.2431
     34 C         -23.0801    0.6208   28.9039 C.3     1  UNL1        0.1298
     35 C         -27.9434    1.5129   29.6786 C.3     1  UNL1        0.0456
     36 C         -29.2861    0.6734   29.6846 C.3     1  UNL1        0.0360
     37 C         -23.2230    1.7523   26.3559 C.2     1  UNL1        0.1483
     38 C         -24.3746    1.3136   27.0148 C.2     1  UNL1        0.0245
     39 C         -21.1907    1.4898   27.7372 C.1     1  UNL1        0.1363
     40 F         -23.2433    2.3486   25.1867 F       1  UNL1       -0.2037
     41 C         -29.0081   -0.2607   28.5257 C.3     1  UNL1        0.1439
     42 C         -24.2383    0.6369   28.2437 C.3     1  UNL1        0.1036
     43 C         -28.1583    2.8091   28.8047 C.3     1  UNL1        0.0041
@<TRIPOS>BOND
     1     1    33    1
     2     2     7    1
     3     2     1    1
     4     3     2    2
     5     4     3    1
     6     4     5    2
     7     5     6    1
     8     6     7    2
     9     8     1    1
    10     8     9    1
    11     8    12    1
    12     9    10    1
    13    10    11    1
    14    12    11    1
    15    13    38    1
    16    14    13    1
    17    14    15    1
    18    15    18    2
    19    16    17    1
    20    16    15    1
    21    19    14    2
    22    20    21    2
    23    20    19    1
    24    21    26    1
    25    22    21    1
    26    23    22    1
    27    24    23    1
    28    24    25    1
    29    26    27    1
    30    26    13    2
    31    28    33    1
    32    28    35    1
    33    29    39    2
    34    30    41    1
    35    30    28    1
    36    34    31    1
    37    35    43    1
    38    35    36    1
    39    37    29    1
    40    37    38    2
    41    38    42    1
    42    39    32    2
    43    40    37    1
    44    41    36    1
    45    42    34    1
    46    42    33    1
