@<TRIPOS>MOLECULE
outputs/IAG933/test6/raw/output_791_IAG933_linker_design_.xyz
 38 42 0 0 0
SMALL
GASTEIGER

@<TRIPOS>ATOM
      1 C         -24.8550   -1.0120   30.1430 C.3     1  UNL1        0.1421
      2 C         -24.9730   -2.5050   29.7880 C.2     1  UNL1       -0.0100
      3 C         -23.9060   -3.1730   29.1460 C.2     1  UNL1       -0.0037
      4 C         -23.9890   -4.5490   28.8530 C.2     1  UNL1       -0.0003
      5 C         -25.1370   -5.2800   29.2050 C.2     1  UNL1       -0.0000
      6 C         -26.2320   -4.6110   29.7840 C.2     1  UNL1       -0.0003
      7 C         -26.1550   -3.2320   30.0650 C.2     1  UNL1       -0.0037
      8 C         -25.3870   -0.6790   31.5710 C.3     1  UNL1        0.0880
      9 C         -25.1890    0.7730   32.0280 C.3     1  UNL1        0.0198
     10 C         -25.3360    0.6840   33.5440 C.3     1  UNL1        0.0203
     11 C         -24.8290   -0.7150   33.9050 C.3     1  UNL1        0.0887
     12 N         -24.7580   -1.4810   32.6460 N.3     1  UNL1       -0.2185
     13 C         -25.6880    1.6140   26.4610 C.3     1  UNL1        0.1297
     14 C         -26.2500    2.9200   26.3950 C.2     1  UNL1        0.0621
     15 C         -25.6420    4.0930   27.1230 C.2     1  UNL1        0.2629
     16 N         -25.6140    5.2520   26.4490 N.am    1  UNL1       -0.2000
     17 C         -25.0260    6.4790   26.9630 C.3     1  UNL1        0.1388
     18 O         -25.1430    3.9660   28.2430 O.2     1  UNL1       -0.2686
     19 C         -27.4380    3.0910   25.6450 C.2     1  UNL1        0.1026
     20 N         -28.0750    2.0890   25.0030 N.2     1  UNL1       -0.2118
     21 C         -27.5430    0.8490   25.0790 C.2     1  UNL1        0.2345
     22 O         -28.1930   -0.2080   24.4770 O.2     1  UNL1       -0.4585
     23 C         -29.4600    0.0050   23.8660 C.3     1  UNL1        0.2423
     24 C         -30.0650   -1.3770   23.5730 C.3     1  UNL1        0.2292
     25 O         -30.7290   -1.8780   24.7210 O.3     1  UNL1       -0.2162
     26 C         -26.3540    0.5760   25.7770 C.3     1  UNL1        0.2472
     27 F         -25.8600   -0.6810   25.7950 F       1  UNL1       -0.2264
     28 O         -23.6431    2.0999   25.4093 O.2     1  UNL1       -0.4491
     29 N         -20.4424    0.0464   28.5949 N.2     1  UNL1        0.1979
     30 C         -23.8765   -0.4077   29.1851 C.2     1  UNL1        0.3244
     31 C         -22.3093    2.3301   25.6162 C.3     1  UNL1        0.3615
     32 O         -21.6710    1.8339   26.6466 O.3     1  UNL1       -0.2984
     33 O         -24.3977   -0.0087   28.0388 O.2     1  UNL1       -0.4194
     34 C         -22.3466    0.9890   27.4576 C.3     1  UNL1        0.2945
     35 C         -23.6841    0.7959   27.3466 C.2     1  UNL1        0.1959
     36 N         -22.5830   -0.2946   29.4541 N.2     1  UNL1        0.0028
     37 C         -24.2793    1.4657   26.4464 C.2     1  UNL1        0.1592
     38 C         -21.7471    0.2667   28.4695 C.2     1  UNL1        0.4406
@<TRIPOS>BOND
     1     1    30    1
     2     2     7    1
     3     2     1    1
     4     3     2    2
     5     4     3    1
     6     4     5    2
     7     5     6    1
     8     6     7    2
     9     8     1    1
    10     8     9    1
    11     8    12    1
    12     9    10    1
    13    10    11    1
    14    12    11    1
    15    13    37    1
    16    14    13    1
    17    14    15    1
    18    15    18    2
    19    16    17    1
    20    16    15    1
    21    19    14    2
    22    20    21    2
    23    20    19    1
    24    21    26    1
    25    22    21    1
    26    23    22    1
    27    24    23    1
    28    24    25    1
    29    26    27    1
    30    26    13    1
    31    28    31    1
    32    28    37    1
    33    30    36    2
    34    31    32    1
    35    33    30    1
    36    34    32    1
    37    34    38    1
    38    35    34    1
    39    35    33    1
    40    37    35    2
    41    38    29    2
    42    38    36    1
