@<TRIPOS>MOLECULE
outputs/IAG933/test6/raw/output_7911_IAG933_linker_design_.xyz
 39 43 0 0 0
SMALL
GASTEIGER

@<TRIPOS>ATOM
      1 C         -24.8550   -1.0120   30.1430 C.3     1  UNL1        0.1297
      2 C         -24.9730   -2.5050   29.7880 C.2     1  UNL1       -0.0002
      3 C         -23.9060   -3.1730   29.1460 C.2     1  UNL1       -0.0024
      4 C         -23.9890   -4.5490   28.8530 C.2     1  UNL1       -0.0003
      5 C         -25.1370   -5.2800   29.2050 C.2     1  UNL1       -0.0000
      6 C         -26.2320   -4.6110   29.7840 C.2     1  UNL1       -0.0003
      7 C         -26.1550   -3.2320   30.0650 C.2     1  UNL1       -0.0024
      8 C         -25.3870   -0.6790   31.5710 C.3     1  UNL1        0.0978
      9 C         -25.1890    0.7730   32.0280 C.3     1  UNL1        0.0211
     10 C         -25.3360    0.6840   33.5440 C.3     1  UNL1        0.0203
     11 C         -24.8290   -0.7150   33.9050 C.3     1  UNL1        0.0888
     12 N         -24.7580   -1.4810   32.6460 N.3     1  UNL1       -0.2172
     13 C         -25.6880    1.6140   26.4610 C.3     1  UNL1        0.0986
     14 C         -26.2500    2.9200   26.3950 C.2     1  UNL1        0.0591
     15 C         -25.6420    4.0930   27.1230 C.2     1  UNL1        0.2628
     16 N         -25.6140    5.2520   26.4490 N.am    1  UNL1       -0.2000
     17 C         -25.0260    6.4790   26.9630 C.3     1  UNL1        0.1388
     18 O         -25.1430    3.9660   28.2430 O.2     1  UNL1       -0.2686
     19 C         -27.4380    3.0910   25.6450 C.2     1  UNL1        0.1025
     20 N         -28.0750    2.0890   25.0030 N.2     1  UNL1       -0.2118
     21 C         -27.5430    0.8490   25.0790 C.2     1  UNL1        0.2344
     22 O         -28.1930   -0.2080   24.4770 O.2     1  UNL1       -0.4585
     23 C         -29.4600    0.0050   23.8660 C.3     1  UNL1        0.2423
     24 C         -30.0650   -1.3770   23.5730 C.3     1  UNL1        0.2292
     25 O         -30.7290   -1.8780   24.7210 O.3     1  UNL1       -0.2162
     26 C         -26.3540    0.5760   25.7770 C.3     1  UNL1        0.2442
     27 F         -25.8600   -0.6810   25.7950 F       1  UNL1       -0.2265
     28 O         -21.3903    1.8980   26.2859 O.2     1  UNL1       -0.2639
     29 C         -25.2575    0.6809   28.6410 C.ar    1  UNL1        0.2613
     30 C         -22.4888    0.9560   28.0671 C.ar    1  UNL1        0.1966
     31 O         -26.4461    0.7866   29.0524 O.2     1  UNL1       -0.2672
     32 C         -23.1133    2.0250   24.7141 C.3     1  UNL1        0.1748
     33 N         -24.3621    0.0102   29.2611 N.ar    1  UNL1       -0.2586
     34 C         -23.4418    1.3861   27.1689 C.ar    1  UNL1        0.1220
     35 C         -22.9911    0.1819   29.1403 C.ar    1  UNL1        0.2859
     36 C         -24.7929    1.1701   27.5241 C.ar    1  UNL1        0.0616
     37 N         -22.6934    1.8435   26.0791 N.ar    1  UNL1       -0.1669
     38 N         -21.2343    1.3883   27.5896 N.ar    1  UNL1       -0.0455
     39 O         -22.1678   -0.3956   29.7950 O.2     1  UNL1       -0.2651
@<TRIPOS>BOND
     1     1     2    1
     2     2     7    1
     3     3     2    2
     4     4     3    1
     5     4     5    2
     6     5     6    1
     7     6     7    2
     8     8     1    1
     9     8     9    1
    10     8    12    1
    11     9    10    1
    12    10    11    1
    13    12    11    1
    14    13    36    1
    15    14    13    1
    16    14    15    1
    17    15    18    2
    18    16    17    1
    19    16    15    1
    20    19    14    2
    21    20    21    2
    22    20    19    1
    23    21    26    1
    24    22    21    1
    25    23    22    1
    26    24    23    1
    27    24    25    1
    28    26    27    1
    29    26    13    1
    30    28    38   ar
    31    29    31    2
    32    29    33   ar
    33    30    35   ar
    34    32    37    1
    35    33     1    1
    36    34    36   ar
    37    34    30    1
    38    35    33   ar
    39    35    39    2
    40    36    29   ar
    41    37    28   ar
    42    37    34   ar
    43    38    30   ar
