@<TRIPOS>MOLECULE
outputs/IAG933/test6/raw/output_7916_IAG933_linker_design_.xyz
 44 49 0 0 0
SMALL
GASTEIGER

@<TRIPOS>ATOM
      1 C         -24.8550   -1.0120   30.1430 C.3     1  UNL1        0.0566
      2 C         -24.9730   -2.5050   29.7880 C.2     1  UNL1       -0.0195
      3 C         -23.9060   -3.1730   29.1460 C.2     1  UNL1       -0.0042
      4 C         -23.9890   -4.5490   28.8530 C.2     1  UNL1       -0.0003
      5 C         -25.1370   -5.2800   29.2050 C.2     1  UNL1       -0.0000
      6 C         -26.2320   -4.6110   29.7840 C.2     1  UNL1       -0.0003
      7 C         -26.1550   -3.2320   30.0650 C.2     1  UNL1       -0.0042
      8 C         -25.3870   -0.6790   31.5710 C.3     1  UNL1        0.0787
      9 C         -25.1890    0.7730   32.0280 C.3     1  UNL1        0.0220
     10 C         -25.3360    0.6840   33.5440 C.3     1  UNL1        0.0205
     11 C         -24.8290   -0.7150   33.9050 C.3     1  UNL1        0.0887
     12 N         -24.7580   -1.4810   32.6460 N.3     1  UNL1       -0.2191
     13 C         -25.6880    1.6140   26.4610 C.2     1  UNL1        0.0569
     14 C         -26.2500    2.9200   26.3950 C.2     1  UNL1        0.0779
     15 C         -25.6420    4.0930   27.1230 C.2     1  UNL1        0.2665
     16 N         -25.6140    5.2520   26.4490 N.am    1  UNL1       -0.1997
     17 C         -25.0260    6.4790   26.9630 C.3     1  UNL1        0.1388
     18 O         -25.1430    3.9660   28.2430 O.2     1  UNL1       -0.2683
     19 C         -27.4380    3.0910   25.6450 C.2     1  UNL1        0.1068
     20 N         -28.0750    2.0890   25.0030 N.2     1  UNL1       -0.2081
     21 C         -27.5430    0.8490   25.0790 C.2     1  UNL1        0.2533
     22 O         -28.1930   -0.2080   24.4770 O.2     1  UNL1       -0.4558
     23 C         -29.4600    0.0050   23.8660 C.3     1  UNL1        0.2426
     24 C         -30.0650   -1.3770   23.5730 C.3     1  UNL1        0.2292
     25 O         -30.7290   -1.8780   24.7210 O.3     1  UNL1       -0.2162
     26 C         -26.3540    0.5760   25.7770 C.2     1  UNL1        0.1944
     27 F         -25.8600   -0.6810   25.7950 F       1  UNL1       -0.1992
     28 O         -24.7069    5.7829   32.4296 O.2     1  UNL1       -0.4661
     29 N         -22.0755    0.9811   29.5758 N.3     1  UNL1       -0.0652
     30 O         -22.0832    1.6803   27.3724 O.2     1  UNL1       -0.4204
     31 C         -25.6342    5.6587   31.4455 C.3     1  UNL1        0.2496
     32 C         -24.3135    4.7509   33.2036 C.2     1  UNL1        0.1725
     33 C         -24.7586    3.4853   32.8472 C.2     1  UNL1        0.0369
     34 N         -24.1121    0.9707   28.1501 N.pl3   1  UNL1       -0.2565
     35 C         -24.3549    1.4625   26.9476 C.2     1  UNL1        0.1181
     36 C         -25.0546    0.0737   29.0052 C.3     1  UNL1        0.0831
     37 N         -27.3076    4.2687   30.2751 N.pl3   1  UNL1       -0.1293
     38 C         -26.1955    4.3828   31.1304 C.2     1  UNL1        0.1065
     39 C         -23.0154    1.7290   26.3310 C.2     1  UNL1        0.2991
     40 C         -22.7491    1.1964   28.4390 C.3     1  UNL1        0.3472
     41 C         -25.8806    1.3041   29.7310 C.3     1  UNL1        0.0247
     42 C         -26.0158    1.8220   31.2017 C.3     1  UNL1        0.0266
     43 F         -22.6580    2.0612   25.0746 F       1  UNL1       -0.1618
     44 C         -25.6528    3.2091   31.7465 C.2     1  UNL1       -0.0030
@<TRIPOS>BOND
     1     1     2    1
     2     1     8    1
     3     2     7    1
     4     3     2    2
     5     4     3    1
     6     4     5    2
     7     5     6    1
     8     6     7    2
     9     8     9    1
    10     8    12    1
    11     9    10    1
    12    10    11    1
    13    12    11    1
    14    13    35    1
    15    14    13    1
    16    14    15    1
    17    15    18    2
    18    16    17    1
    19    16    15    1
    20    19    14    2
    21    20    21    2
    22    20    19    1
    23    21    26    1
    24    22    21    1
    25    23    22    1
    26    24    23    1
    27    24    25    1
    28    26    27    1
    29    26    13    2
    30    28    32    1
    31    30    40    1
    32    31    28    1
    33    33    32    2
    34    34    40    1
    35    35    34    1
    36    36    34    1
    37    36    41    1
    38    36     1    1
    39    37    38    1
    40    38    31    1
    41    38    44    2
    42    39    35    2
    43    39    30    1
    44    40    29    1
    45    41    42    1
    46    42    44    1
    47    42     9    1
    48    43    39    1
    49    44    33    1
