@<TRIPOS>MOLECULE
outputs/IAG933/test6/raw/output_792_IAG933_linker_design_.xyz
 48 53 0 0 0
SMALL
GASTEIGER

@<TRIPOS>ATOM
      1 C         -24.8550   -1.0120   30.1430 C.3     1  UNL1        0.0632
      2 C         -24.9730   -2.5050   29.7880 C.2     1  UNL1       -0.0193
      3 C         -23.9060   -3.1730   29.1460 C.2     1  UNL1       -0.0042
      4 C         -23.9890   -4.5490   28.8530 C.2     1  UNL1       -0.0003
      5 C         -25.1370   -5.2800   29.2050 C.2     1  UNL1       -0.0000
      6 C         -26.2320   -4.6110   29.7840 C.2     1  UNL1       -0.0003
      7 C         -26.1550   -3.2320   30.0650 C.2     1  UNL1       -0.0042
      8 C         -25.3870   -0.6790   31.5710 C.3     1  UNL1        0.0786
      9 C         -25.1890    0.7730   32.0280 C.3     1  UNL1        0.0193
     10 C         -25.3360    0.6840   33.5440 C.3     1  UNL1        0.0202
     11 C         -24.8290   -0.7150   33.9050 C.3     1  UNL1        0.0887
     12 N         -24.7580   -1.4810   32.6460 N.3     1  UNL1       -0.2191
     13 C         -25.6880    1.6140   26.4610 C.2     1  UNL1        0.0317
     14 C         -26.2500    2.9200   26.3950 C.2     1  UNL1        0.0739
     15 C         -25.6420    4.0930   27.1230 C.2     1  UNL1        0.2662
     16 N         -25.6140    5.2520   26.4490 N.am    1  UNL1       -0.1997
     17 C         -25.0260    6.4790   26.9630 C.3     1  UNL1        0.1388
     18 O         -25.1430    3.9660   28.2430 O.2     1  UNL1       -0.2683
     19 C         -27.4380    3.0910   25.6450 C.2     1  UNL1        0.1065
     20 N         -28.0750    2.0890   25.0030 N.2     1  UNL1       -0.2081
     21 C         -27.5430    0.8490   25.0790 C.2     1  UNL1        0.2530
     22 O         -28.1930   -0.2080   24.4770 O.2     1  UNL1       -0.4558
     23 C         -29.4600    0.0050   23.8660 C.3     1  UNL1        0.2426
     24 C         -30.0650   -1.3770   23.5730 C.3     1  UNL1        0.2292
     25 O         -30.7290   -1.8780   24.7210 O.3     1  UNL1       -0.2162
     26 C         -26.3540    0.5760   25.7770 C.2     1  UNL1        0.1904
     27 F         -25.8600   -0.6810   25.7950 F       1  UNL1       -0.1995
     28 C         -21.1774    1.9815   27.4287 C.3     1  UNL1        0.1423
     29 C         -29.4353    5.3374   28.2540 C.3     1  UNL1        0.0896
     30 O         -27.6514   -0.5103   28.4582 O.2     1  UNL1       -0.2718
     31 C         -22.3211    1.3366   27.8100 C.3     1  UNL1        0.0363
     32 C         -29.0866    3.5507   29.9436 C.3     1  UNL1        0.0775
     33 C         -29.1000    3.9787   32.4228 C.3     1  UNL1        0.0015
     34 C         -27.7491    3.2235   32.2851 C.3     1  UNL1        0.0019
     35 C         -31.1991    4.4647   30.7725 C.3     1  UNL1        0.0187
     36 N         -27.0879    1.4847   29.6053 N.am    1  UNL1       -0.2046
     37 C         -26.7828    0.2372   29.0129 C.2     1  UNL1        0.2576
     38 C         -28.1126    1.8759   31.6556 C.3     1  UNL1        0.0230
     39 C         -23.3642    1.6519   26.9097 C.3     1  UNL1        0.0524
     40 O         -21.4485    2.4588   26.1896 O.3     1  UNL1       -0.3537
     41 C         -28.3768    2.0516   30.1574 C.3     1  UNL1        0.1099
     42 C         -24.7010    1.3860   27.2688 C.3     1  UNL1        0.1004
     43 N         -29.9614    4.0517   28.8020 N.3     1  UNL1       -0.2712
     44 N         -24.7225    1.2254   28.8370 N.3     1  UNL1       -0.2067
     45 C         -31.3456    4.1237   29.2890 C.3     1  UNL1        0.0722
     46 C         -29.9920    3.6304   31.1946 C.3     1  UNL1        0.0177
     47 C         -25.2583   -0.1297   28.9874 C.3     1  UNL1        0.1560
     48 C         -22.7314    2.3118   25.7144 C.3     1  UNL1        0.1439
@<TRIPOS>BOND
     1     1    47    1
     2     2     7    1
     3     2     1    1
     4     3     2    2
     5     4     3    1
     6     4     5    2
     7     5     6    1
     8     6     7    2
     9     8     1    1
    10     8     9    1
    11     8    12    1
    12     9    10    1
    13    10    11    1
    14    12    11    1
    15    13    42    1
    16    14    13    1
    17    14    15    1
    18    15    18    2
    19    16    17    1
    20    16    15    1
    21    19    14    2
    22    20    21    2
    23    20    19    1
    24    21    26    1
    25    22    21    1
    26    23    22    1
    27    24    23    1
    28    24    25    1
    29    26    27    1
    30    26    13    2
    31    28    31    1
    32    29    43    1
    33    30    37    2
    34    32    43    1
    35    32    41    1
    36    32    46    1
    37    34    33    1
    38    37    36    1
    39    38    34    1
    40    39    42    1
    41    39    31    1
    42    40    28    1
    43    41    36    1
    44    41    38    1
    45    42    44    1
    46    43    45    1
    47    45    35    1
    48    46    35    1
    49    46    33    1
    50    47    44    1
    51    47    37    1
    52    48    40    1
    53    48    39    1
