@<TRIPOS>MOLECULE
outputs/IAG933/test6/raw/output_7920_IAG933_linker_design_.xyz
 41 45 0 0 0
SMALL
GASTEIGER

@<TRIPOS>ATOM
      1 C         -24.8550   -1.0120   30.1430 C.3     1  UNL1        0.1223
      2 C         -24.9730   -2.5050   29.7880 C.2     1  UNL1       -0.0023
      3 C         -23.9060   -3.1730   29.1460 C.2     1  UNL1       -0.0026
      4 C         -23.9890   -4.5490   28.8530 C.2     1  UNL1       -0.0003
      5 C         -25.1370   -5.2800   29.2050 C.2     1  UNL1       -0.0000
      6 C         -26.2320   -4.6110   29.7840 C.2     1  UNL1       -0.0003
      7 C         -26.1550   -3.2320   30.0650 C.2     1  UNL1       -0.0026
      8 C         -25.3870   -0.6790   31.5710 C.3     1  UNL1        0.0958
      9 C         -25.1890    0.7730   32.0280 C.3     1  UNL1        0.0209
     10 C         -25.3360    0.6840   33.5440 C.3     1  UNL1        0.0203
     11 C         -24.8290   -0.7150   33.9050 C.3     1  UNL1        0.0888
     12 N         -24.7580   -1.4810   32.6460 N.3     1  UNL1       -0.2174
     13 C         -25.6880    1.6140   26.4610 C.3     1  UNL1        0.0902
     14 C         -26.2500    2.9200   26.3950 C.2     1  UNL1        0.0563
     15 C         -25.6420    4.0930   27.1230 C.2     1  UNL1        0.2625
     16 N         -25.6140    5.2520   26.4490 N.am    1  UNL1       -0.2000
     17 C         -25.0260    6.4790   26.9630 C.3     1  UNL1        0.1388
     18 O         -25.1430    3.9660   28.2430 O.2     1  UNL1       -0.2687
     19 C         -27.4380    3.0910   25.6450 C.2     1  UNL1        0.1022
     20 N         -28.0750    2.0890   25.0030 N.2     1  UNL1       -0.2119
     21 C         -27.5430    0.8490   25.0790 C.2     1  UNL1        0.2341
     22 O         -28.1930   -0.2080   24.4770 O.2     1  UNL1       -0.4585
     23 C         -29.4600    0.0050   23.8660 C.3     1  UNL1        0.2423
     24 C         -30.0650   -1.3770   23.5730 C.3     1  UNL1        0.2292
     25 O         -30.7290   -1.8780   24.7210 O.3     1  UNL1       -0.2162
     26 C         -26.3540    0.5760   25.7770 C.3     1  UNL1        0.2415
     27 F         -25.8600   -0.6810   25.7950 F       1  UNL1       -0.2268
     28 C         -20.9974    0.0575   28.3133 C.3     1  UNL1        0.0016
     29 C         -22.6115    1.8068   28.4327 C.3     1  UNL1        0.0644
     30 C         -22.9515    1.6047   25.8462 C.3     1  UNL1        0.2784
     31 C         -25.1246    1.3063   29.0531 C.3     1  UNL1        0.1782
     32 C         -26.6755   -0.3488   28.7588 C.1     1  UNL1        0.1717
     33 C         -22.0513    0.5009   29.1892 C.3     1  UNL1        0.0162
     34 F         -23.2244    0.7273   24.7382 F       1  UNL1       -0.2028
     35 N         -24.0185    1.5907   28.1123 N.3     1  UNL1       -0.2525
     36 C         -21.9944    1.7738   26.9911 C.3     1  UNL1        0.0773
     37 C         -24.2638    1.4218   26.8193 C.3     1  UNL1        0.1279
     38 N         -27.7205   -0.4832   28.7752 N.1     1  UNL1       -0.1740
     39 F         -21.8085    2.3734   25.1065 F       1  UNL1       -0.2028
     40 N         -25.3606   -0.1475   29.0625 N.pl3   1  UNL1       -0.2281
     41 C         -20.8087    1.1894   27.1428 C.3     1  UNL1        0.0069
@<TRIPOS>BOND
     1     1    40    1
     2     2     7    1
     3     2     1    1
     4     3     2    2
     5     4     3    1
     6     4     5    2
     7     5     6    1
     8     6     7    2
     9     8     1    1
    10     8     9    1
    11     8    12    1
    12     9    10    1
    13    10    11    1
    14    12    11    1
    15    13    14    1
    16    13    37    1
    17    14    15    1
    18    15    18    2
    19    16    17    1
    20    16    15    1
    21    19    14    2
    22    20    21    2
    23    20    19    1
    24    21    26    1
    25    22    21    1
    26    23    22    1
    27    24    23    1
    28    24    25    1
    29    26    27    1
    30    26    13    1
    31    28    33    1
    32    29    33    1
    33    30    36    1
    34    31    40    1
    35    32    38    3
    36    32    40    1
    37    34    30    1
    38    35    29    1
    39    35    31    1
    40    36    41    1
    41    36    29    1
    42    37    30    1
    43    37    35    1
    44    39    30    1
    45    41    28    1
