@<TRIPOS>MOLECULE
outputs/IAG933/test6/raw/output_7921_IAG933_linker_design_.xyz
 43 46 0 0 0
SMALL
GASTEIGER

@<TRIPOS>ATOM
      1 C         -24.8550   -1.0120   30.1430 C.3     1  UNL1        0.2055
      2 C         -24.9730   -2.5050   29.7880 C.2     1  UNL1        0.0186
      3 C         -23.9060   -3.1730   29.1460 C.2     1  UNL1       -0.0008
      4 C         -23.9890   -4.5490   28.8530 C.2     1  UNL1       -0.0002
      5 C         -25.1370   -5.2800   29.2050 C.2     1  UNL1       -0.0000
      6 C         -26.2320   -4.6110   29.7840 C.2     1  UNL1       -0.0002
      7 C         -26.1550   -3.2320   30.0650 C.2     1  UNL1       -0.0008
      8 C         -25.3870   -0.6790   31.5710 C.3     1  UNL1        0.1170
      9 C         -25.1890    0.7730   32.0280 C.3     1  UNL1        0.0229
     10 C         -25.3360    0.6840   33.5440 C.3     1  UNL1        0.0204
     11 C         -24.8290   -0.7150   33.9050 C.3     1  UNL1        0.0888
     12 N         -24.7580   -1.4810   32.6460 N.3     1  UNL1       -0.2154
     13 C         -25.6880    1.6140   26.4610 C.2     1  UNL1        0.0386
     14 C         -26.2500    2.9200   26.3950 C.2     1  UNL1        0.0764
     15 C         -25.6420    4.0930   27.1230 C.2     1  UNL1        0.2664
     16 N         -25.6140    5.2520   26.4490 N.am    1  UNL1       -0.1997
     17 C         -25.0260    6.4790   26.9630 C.3     1  UNL1        0.1388
     18 O         -25.1430    3.9660   28.2430 O.2     1  UNL1       -0.2683
     19 C         -27.4380    3.0910   25.6450 C.2     1  UNL1        0.1067
     20 N         -28.0750    2.0890   25.0030 N.2     1  UNL1       -0.2081
     21 C         -27.5430    0.8490   25.0790 C.2     1  UNL1        0.2533
     22 O         -28.1930   -0.2080   24.4770 O.2     1  UNL1       -0.4558
     23 C         -29.4600    0.0050   23.8660 C.3     1  UNL1        0.2426
     24 C         -30.0650   -1.3770   23.5730 C.3     1  UNL1        0.2292
     25 O         -30.7290   -1.8780   24.7210 O.3     1  UNL1       -0.2162
     26 C         -26.3540    0.5760   25.7770 C.2     1  UNL1        0.1929
     27 F         -25.8600   -0.6810   25.7950 F       1  UNL1       -0.1992
     28 C         -30.5413   -0.9881   29.7121 C.2     1  UNL1        0.1279
     29 C         -24.6990    1.2235   27.2470 C.2     1  UNL1        0.0331
     30 C         -27.1927    0.6139   29.6116 C.2     1  UNL1        0.1052
     31 C         -23.2693    1.5047   26.9553 C.3     1  UNL1        0.0270
     32 C         -28.6259    0.4319   29.9554 C.2     1  UNL1        0.0595
     33 C         -30.2337    0.1622   31.7878 C.2     1  UNL1        0.0016
     34 O         -24.2074   -0.0948   29.1983 O.2     1  UNL1       -0.4582
     35 C         -29.3176    0.9533   31.1156 C.2     1  UNL1        0.0048
     36 C         -23.1352    2.6073   25.8699 C.3     1  UNL1        0.0048
     37 N         -26.3712    0.1715   28.5863 N.2     1  UNL1       -0.2103
     38 C         -30.7527   -0.9033   31.0814 C.2     1  UNL1        0.0213
     39 N         -31.6008   -1.3760   28.8515 N.pl3   1  UNL1       -0.1247
     40 O         -29.2104   -0.5353   27.8273 O.2     1  UNL1       -0.2851
     41 C         -29.4007   -0.4849   29.1566 C.2     1  UNL1        0.2137
     42 C         -22.0663    1.3551   27.9027 C.3     1  UNL1        0.0048
     43 C         -25.0918    0.5022   28.3722 C.2     1  UNL1        0.2209
@<TRIPOS>BOND
     1     1    34    1
     2     2     7    1
     3     2     1    1
     4     3     2    2
     5     4     3    1
     6     4     5    2
     7     5     6    1
     8     6     7    2
     9     8     1    1
    10     8     9    1
    11     8    12    1
    12     9    10    1
    13    10    11    1
    14    12    11    1
    15    13    29    1
    16    14    13    1
    17    14    15    1
    18    15    18    2
    19    16    17    1
    20    16    15    1
    21    19    14    2
    22    20    21    2
    23    20    19    1
    24    21    26    1
    25    22    21    1
    26    23    22    1
    27    24    23    1
    28    24    25    1
    29    26    27    1
    30    26    13    2
    31    28    38    1
    32    29    43    2
    33    30    32    1
    34    31    29    1
    35    31    42    1
    36    32    35    2
    37    35    33    1
    38    36    31    1
    39    37    30    2
    40    38    33    2
    41    39    28    1
    42    40    41    1
    43    41    28    2
    44    41    32    1
    45    43    37    1
    46    43    34    1
