@<TRIPOS>MOLECULE
outputs/IAG933/test6/raw/output_7924_IAG933_linker_design_.xyz
 46 51 0 0 0
SMALL
GASTEIGER

@<TRIPOS>ATOM
      1 C         -24.8550   -1.0120   30.1430 C.3     1  UNL1        0.0963
      2 C         -24.9730   -2.5050   29.7880 C.2     1  UNL1       -0.0064
      3 C         -23.9060   -3.1730   29.1460 C.2     1  UNL1       -0.0029
      4 C         -23.9890   -4.5490   28.8530 C.2     1  UNL1       -0.0003
      5 C         -25.1370   -5.2800   29.2050 C.2     1  UNL1       -0.0000
      6 C         -26.2320   -4.6110   29.7840 C.2     1  UNL1       -0.0003
      7 C         -26.1550   -3.2320   30.0650 C.2     1  UNL1       -0.0029
      8 C         -25.3870   -0.6790   31.5710 C.3     1  UNL1        0.0916
      9 C         -25.1890    0.7730   32.0280 C.3     1  UNL1        0.0206
     10 C         -25.3360    0.6840   33.5440 C.3     1  UNL1        0.0203
     11 C         -24.8290   -0.7150   33.9050 C.3     1  UNL1        0.0888
     12 N         -24.7580   -1.4810   32.6460 N.3     1  UNL1       -0.2178
     13 C         -25.6880    1.6140   26.4610 C.3     1  UNL1        0.1294
     14 C         -26.2500    2.9200   26.3950 C.2     1  UNL1        0.0696
     15 C         -25.6420    4.0930   27.1230 C.2     1  UNL1        0.2637
     16 N         -25.6140    5.2520   26.4490 N.am    1  UNL1       -0.2000
     17 C         -25.0260    6.4790   26.9630 C.3     1  UNL1        0.1388
     18 O         -25.1430    3.9660   28.2430 O.2     1  UNL1       -0.2686
     19 C         -27.4380    3.0910   25.6450 C.2     1  UNL1        0.1035
     20 N         -28.0750    2.0890   25.0030 N.2     1  UNL1       -0.2118
     21 C         -27.5430    0.8490   25.0790 C.2     1  UNL1        0.2355
     22 O         -28.1930   -0.2080   24.4770 O.2     1  UNL1       -0.4585
     23 C         -29.4600    0.0050   23.8660 C.3     1  UNL1        0.2423
     24 C         -30.0650   -1.3770   23.5730 C.3     1  UNL1        0.2292
     25 O         -30.7290   -1.8780   24.7210 O.3     1  UNL1       -0.2162
     26 C         -26.3540    0.5760   25.7770 C.3     1  UNL1        0.2546
     27 F         -25.8600   -0.6810   25.7950 F       1  UNL1       -0.2254
     28 C         -21.9133    1.6829   27.5767 C.3     1  UNL1        0.1076
     29 C         -30.0862    3.6436   28.7781 C.3     1  UNL1        0.1615
     30 C         -27.5448    0.0904   29.5858 C.3     1  UNL1        0.0809
     31 O         -30.1628    2.8652   30.0079 O.3     1  UNL1       -0.2722
     32 N         -24.1998    1.4175   26.8328 N.3     1  UNL1       -0.2523
     33 C         -25.0941    0.3125   28.4385 C.3     1  UNL1        0.1068
     34 C         -22.7889    2.0224   26.5041 C.3     1  UNL1        0.0925
     35 N         -22.6844    0.4379   28.3062 N.3     1  UNL1       -0.2006
     36 C         -28.9130    1.4523   27.9145 C.3     1  UNL1        0.0768
     37 O         -30.2978   -0.4620   27.3248 O.2     1  UNL1       -0.2960
     38 C         -28.3495   -0.8074   28.6557 C.3     1  UNL1        0.0815
     39 C         -29.2296   -0.0159   27.7542 C.2     1  UNL1        0.1528
     40 N         -26.0169   -0.1099   29.2770 N.3     1  UNL1       -0.2667
     41 S         -28.8635    2.3925   30.5254 S.3     1  UNL1        0.1747
     42 O         -29.0785    2.0208   31.8522 O.3     1  UNL1       -0.1135
     43 C         -24.1132    0.6819   27.8501 C.3     1  UNL1        0.1485
     44 F         -27.9456    3.2130   30.2917 F       1  UNL1       -0.1301
     45 C         -29.9440    2.5688   27.6447 C.3     1  UNL1        0.0419
     46 C         -28.4630    1.3658   29.4587 C.3     1  UNL1        0.1329
@<TRIPOS>BOND
     1     1    40    1
     2     2     7    1
     3     2     1    1
     4     3     2    2
     5     4     3    1
     6     4     5    2
     7     5     6    1
     8     6     7    2
     9     8     1    1
    10     8     9    1
    11     8    12    1
    12     9    10    1
    13    10    11    1
    14    12    11    1
    15    13    14    1
    16    13    32    1
    17    14    15    1
    18    15    18    2
    19    16    17    1
    20    16    15    1
    21    19    14    2
    22    20    21    2
    23    20    19    1
    24    21    26    1
    25    22    21    1
    26    23    22    1
    27    24    23    1
    28    24    25    1
    29    26    27    1
    30    26    13    1
    31    28    35    1
    32    29    31    1
    33    30    40    1
    34    31    41    1
    35    32    34    1
    36    32    43    1
    37    33    40    1
    38    34    28    1
    39    36    45    1
    40    36    46    1
    41    37    39    2
    42    38    30    1
    43    39    36    1
    44    39    38    1
    45    41    44    1
    46    41    42    1
    47    43    35    1
    48    43    33    1
    49    45    29    1
    50    46    30    1
    51    46    41    1
