@<TRIPOS>MOLECULE
outputs/IAG933/test6/raw/output_7926_IAG933_linker_design_.xyz
 41 44 0 0 0
SMALL
GASTEIGER

@<TRIPOS>ATOM
      1 C         -24.8550   -1.0120   30.1430 C.3     1  UNL1        0.0749
      2 C         -24.9730   -2.5050   29.7880 C.2     1  UNL1       -0.0183
      3 C         -23.9060   -3.1730   29.1460 C.2     1  UNL1       -0.0041
      4 C         -23.9890   -4.5490   28.8530 C.2     1  UNL1       -0.0003
      5 C         -25.1370   -5.2800   29.2050 C.2     1  UNL1       -0.0000
      6 C         -26.2320   -4.6110   29.7840 C.2     1  UNL1       -0.0003
      7 C         -26.1550   -3.2320   30.0650 C.2     1  UNL1       -0.0041
      8 C         -25.3870   -0.6790   31.5710 C.3     1  UNL1        0.0866
      9 C         -25.1890    0.7730   32.0280 C.3     1  UNL1        0.0780
     10 C         -25.3360    0.6840   33.5440 C.3     1  UNL1        0.0276
     11 C         -24.8290   -0.7150   33.9050 C.3     1  UNL1        0.0892
     12 N         -24.7580   -1.4810   32.6460 N.3     1  UNL1       -0.2186
     13 C         -25.6880    1.6140   26.4610 C.2     1  UNL1        0.0401
     14 C         -26.2500    2.9200   26.3950 C.2     1  UNL1        0.0766
     15 C         -25.6420    4.0930   27.1230 C.2     1  UNL1        0.2664
     16 N         -25.6140    5.2520   26.4490 N.am    1  UNL1       -0.1997
     17 C         -25.0260    6.4790   26.9630 C.3     1  UNL1        0.1388
     18 O         -25.1430    3.9660   28.2430 O.2     1  UNL1       -0.2683
     19 C         -27.4380    3.0910   25.6450 C.2     1  UNL1        0.1067
     20 N         -28.0750    2.0890   25.0030 N.2     1  UNL1       -0.2081
     21 C         -27.5430    0.8490   25.0790 C.2     1  UNL1        0.2533
     22 O         -28.1930   -0.2080   24.4770 O.2     1  UNL1       -0.4558
     23 C         -29.4600    0.0050   23.8660 C.3     1  UNL1        0.2426
     24 C         -30.0650   -1.3770   23.5730 C.3     1  UNL1        0.2292
     25 O         -30.7290   -1.8780   24.7210 O.3     1  UNL1       -0.2162
     26 C         -26.3540    0.5760   25.7770 C.2     1  UNL1        0.1931
     27 F         -25.8600   -0.6810   25.7950 F       1  UNL1       -0.1992
     28 C         -25.2218   -0.0209   29.0141 C.3     1  UNL1        0.1969
     29 C         -21.6932    0.9349   28.0961 C.2     1  UNL1        0.0994
     30 N         -22.7574    0.3440   28.7069 N.2     1  UNL1       -0.2456
     31 C         -23.1915    1.9233   26.4798 C.2     1  UNL1        0.0605
     32 C         -24.8821    3.1831   32.2791 C.3     1  UNL1        0.2061
     33 O         -26.0514   -0.6840   28.0511 O.3     1  UNL1       -0.2163
     34 C         -24.3187    1.3701   27.1032 C.2     1  UNL1        0.0292
     35 C         -24.9274    5.4189   32.8488 C.3     1  UNL1        0.1747
     36 C         -24.0418    0.5996   28.2848 C.2     1  UNL1        0.0904
     37 C         -24.5518    2.0210   31.5503 C.2     1  UNL1        0.1814
     38 O         -24.7545    4.4868   31.7909 O.3     1  UNL1       -0.3432
     39 CL        -23.1802    2.9941   25.1033 Cl      1  UNL1       -0.0822
     40 C         -21.8917    1.7070   26.9345 C.2     1  UNL1        0.0320
     41 O         -23.6304    1.9949   30.6999 O.2     1  UNL1       -0.2934
@<TRIPOS>BOND
     1     1    28    1
     2     2     7    1
     3     2     1    1
     4     3     2    2
     5     4     3    1
     6     4     5    2
     7     5     6    1
     8     6     7    2
     9     8     1    1
    10     8     9    1
    11     8    12    1
    12     9    37    1
    13     9    10    1
    14    10    11    1
    15    12    11    1
    16    13    34    1
    17    14    13    1
    18    14    15    1
    19    15    18    2
    20    16    17    1
    21    16    15    1
    22    19    14    2
    23    20    21    2
    24    20    19    1
    25    21    26    1
    26    22    21    1
    27    23    22    1
    28    24    23    1
    29    24    25    1
    30    26    27    1
    31    26    13    2
    32    28    33    1
    33    29    30    1
    34    31    40    1
    35    31    34    2
    36    34    36    1
    37    36    30    2
    38    36    28    1
    39    37    32    1
    40    38    32    1
    41    38    35    1
    42    39    31    1
    43    40    29    2
    44    41    37    2
