@<TRIPOS>MOLECULE
outputs/IAG933/test6/raw/output_7932_IAG933_linker_design_.xyz
 43 47 0 0 0
SMALL
GASTEIGER

@<TRIPOS>ATOM
      1 C         -24.8550   -1.0120   30.1430 C.3     1  UNL1        0.0984
      2 C         -24.9730   -2.5050   29.7880 C.2     1  UNL1       -0.0064
      3 C         -23.9060   -3.1730   29.1460 C.2     1  UNL1       -0.0029
      4 C         -23.9890   -4.5490   28.8530 C.2     1  UNL1       -0.0003
      5 C         -25.1370   -5.2800   29.2050 C.2     1  UNL1       -0.0000
      6 C         -26.2320   -4.6110   29.7840 C.2     1  UNL1       -0.0003
      7 C         -26.1550   -3.2320   30.0650 C.2     1  UNL1       -0.0029
      8 C         -25.3870   -0.6790   31.5710 C.3     1  UNL1        0.0916
      9 C         -25.1890    0.7730   32.0280 C.3     1  UNL1        0.0206
     10 C         -25.3360    0.6840   33.5440 C.3     1  UNL1        0.0203
     11 C         -24.8290   -0.7150   33.9050 C.3     1  UNL1        0.0888
     12 N         -24.7580   -1.4810   32.6460 N.3     1  UNL1       -0.2178
     13 C         -25.6880    1.6140   26.4610 C.3     1  UNL1        0.0890
     14 C         -26.2500    2.9200   26.3950 C.2     1  UNL1        0.0565
     15 C         -25.6420    4.0930   27.1230 C.2     1  UNL1        0.2625
     16 N         -25.6140    5.2520   26.4490 N.am    1  UNL1       -0.2000
     17 C         -25.0260    6.4790   26.9630 C.3     1  UNL1        0.1388
     18 O         -25.1430    3.9660   28.2430 O.2     1  UNL1       -0.2687
     19 C         -27.4380    3.0910   25.6450 C.2     1  UNL1        0.1022
     20 N         -28.0750    2.0890   25.0030 N.2     1  UNL1       -0.2119
     21 C         -27.5430    0.8490   25.0790 C.2     1  UNL1        0.2341
     22 O         -28.1930   -0.2080   24.4770 O.2     1  UNL1       -0.4585
     23 C         -29.4600    0.0050   23.8660 C.3     1  UNL1        0.2423
     24 C         -30.0650   -1.3770   23.5730 C.3     1  UNL1        0.2292
     25 O         -30.7290   -1.8780   24.7210 O.3     1  UNL1       -0.2162
     26 C         -26.3540    0.5760   25.7770 C.3     1  UNL1        0.2416
     27 F         -25.8600   -0.6810   25.7950 F       1  UNL1       -0.2268
     28 O         -30.2767    2.1447   28.5383 O.2     1  UNL1       -0.2689
     29 C         -23.1722    1.3667   26.9681 C.2     1  UNL1       -0.0086
     30 C         -21.8131    0.4099   29.1162 C.2     1  UNL1       -0.0006
     31 C         -22.4475    1.7351   25.9985 C.3     1  UNL1        0.1235
     32 N         -25.6873   -0.1619   28.9672 N.3     1  UNL1       -0.2409
     33 C         -27.1230   -0.6294   28.5864 C.3     1  UNL1        0.2209
     34 C         -21.5554    1.5749   27.0573 C.2     1  UNL1       -0.0061
     35 C         -29.6538    1.4444   29.2651 C.2     1  UNL1        0.2909
     36 C         -23.8668    1.0172   27.9084 C.2     1  UNL1       -0.0100
     37 C         -21.0141    1.0130   28.1915 C.2     1  UNL1       -0.0030
     38 C         -25.2737    1.1297   27.9887 C.3     1  UNL1        0.0895
     39 N         -29.3370    1.9484   30.6505 N.am    1  UNL1       -0.0856
     40 O         -28.0435    0.2805   28.0285 O.3     1  UNL1       -0.3273
     41 CL        -22.1846    2.2311   24.5551 Cl      1  UNL1       -0.1054
     42 C         -23.2137    0.4564   28.9301 C.2     1  UNL1       -0.0032
     43 C         -29.2188    0.1470   28.9194 C.3     1  UNL1        0.2318
@<TRIPOS>BOND
     1     1    32    1
     2     2     7    1
     3     2     1    1
     4     3     2    2
     5     4     3    1
     6     4     5    2
     7     5     6    1
     8     6     7    2
     9     8     1    1
    10     8     9    1
    11     8    12    1
    12     9    10    1
    13    10    11    1
    14    12    11    1
    15    13    38    1
    16    14    13    1
    17    14    15    1
    18    15    18    2
    19    16    17    1
    20    16    15    1
    21    19    14    2
    22    20    21    2
    23    20    19    1
    24    21    26    1
    25    22    21    1
    26    23    22    1
    27    24    23    1
    28    24    25    1
    29    26    27    1
    30    26    13    1
    31    28    35    2
    32    29    34    2
    33    29    36    1
    34    31    41    1
    35    31    29    1
    36    31    34    1
    37    33    32    1
    38    34    37    1
    39    35    39    1
    40    36    38    1
    41    36    42    2
    42    37    30    2
    43    38    32    1
    44    40    33    1
    45    40    43    1
    46    42    30    1
    47    43    35    1
