@<TRIPOS>MOLECULE
outputs/IAG933/test6/raw/output_7937_IAG933_linker_design_.xyz
 49 55 0 0 0
SMALL
GASTEIGER

@<TRIPOS>ATOM
      1 C         -24.8550   -1.0120   30.1430 C.3     1  UNL1        0.0451
      2 C         -24.9730   -2.5050   29.7880 C.2     1  UNL1       -0.0207
      3 C         -23.9060   -3.1730   29.1460 C.2     1  UNL1       -0.0042
      4 C         -23.9890   -4.5490   28.8530 C.2     1  UNL1       -0.0003
      5 C         -25.1370   -5.2800   29.2050 C.2     1  UNL1       -0.0000
      6 C         -26.2320   -4.6110   29.7840 C.2     1  UNL1       -0.0003
      7 C         -26.1550   -3.2320   30.0650 C.2     1  UNL1       -0.0042
      8 C         -25.3870   -0.6790   31.5710 C.3     1  UNL1        0.0918
      9 C         -25.1890    0.7730   32.0280 C.3     1  UNL1        0.0777
     10 C         -25.3360    0.6840   33.5440 C.3     1  UNL1        0.0363
     11 C         -24.8290   -0.7150   33.9050 C.3     1  UNL1        0.0901
     12 N         -24.7580   -1.4810   32.6460 N.3     1  UNL1       -0.2177
     13 C         -25.6880    1.6140   26.4610 C.2     1  UNL1        0.0214
     14 C         -26.2500    2.9200   26.3950 C.2     1  UNL1        0.0544
     15 C         -25.6420    4.0930   27.1230 C.2     1  UNL1        0.2227
     16 N         -25.6140    5.2520   26.4490 N.2     1  UNL1       -0.2356
     17 C         -25.0260    6.4790   26.9630 C.3     1  UNL1        0.1550
     18 O         -25.1430    3.9660   28.2430 O.2     1  UNL1       -0.4372
     19 C         -27.4380    3.0910   25.6450 C.3     1  UNL1        0.1592
     20 N         -28.0750    2.0890   25.0030 N.2     1  UNL1       -0.2340
     21 C         -27.5430    0.8490   25.0790 C.2     1  UNL1        0.2341
     22 O         -28.1930   -0.2080   24.4770 O.2     1  UNL1       -0.4585
     23 C         -29.4600    0.0050   23.8660 C.3     1  UNL1        0.2423
     24 C         -30.0650   -1.3770   23.5730 C.3     1  UNL1        0.2292
     25 O         -30.7290   -1.8780   24.7210 O.3     1  UNL1       -0.2162
     26 C         -26.3540    0.5760   25.7770 C.3     1  UNL1        0.2577
     27 F         -25.8600   -0.6810   25.7950 F       1  UNL1       -0.2223
     28 C         -23.8485    2.0850   28.1368 C.2     1  UNL1        0.0340
     29 C         -24.8757    2.9439   29.1409 C.2     1  UNL1        0.1663
     30 C         -29.2528    2.6101   31.0344 C.3     1  UNL1        0.2007
     31 N         -25.7724    1.7912   31.1480 N.3     1  UNL1       -0.2440
     32 C         -24.9053    2.9813   30.6516 C.3     1  UNL1        0.2261
     33 C         -26.4008    5.8869   31.1316 C.3     1  UNL1        0.0378
     34 N         -27.5894    3.7647   32.1947 N.3     1  UNL1       -0.2141
     35 C         -22.1807    2.0677   25.4169 C.2     1  UNL1       -0.0000
     36 C         -26.1213    5.0405   33.6116 C.3     1  UNL1        0.1595
     37 C         -25.9333    6.7120   32.2953 C.3     1  UNL1        0.1424
     38 O         -29.3641    1.5272   31.9089 O.3     1  UNL1       -0.2188
     39 C         -27.0386    1.8815   30.4208 C.3     1  UNL1        0.0946
     40 O         -23.7124    2.8794   31.1945 O.3     1  UNL1       -0.2010
     41 C         -24.2569    1.7839   26.7424 C.2     1  UNL1        0.0017
     42 C         -22.5479    1.8503   28.5328 C.2     1  UNL1        0.0028
     43 O         -25.1338    5.9002   33.2554 O.3     1  UNL1       -0.3523
     44 CA        -27.8315    3.1057   30.9176 C.3     1  UNL1        0.1217
     45 C         -23.5518    1.9119   25.5552 C.2     1  UNL1       -0.0001
     46 C         -21.2635    2.0710   26.4061 C.2     1  UNL1        0.0000
     47 C         -21.3658    1.8605   27.7567 C.2     1  UNL1        0.0001
     48 C         -25.4767    4.5190   31.3465 C.3     1  UNL1        0.0706
     49 C         -26.2482    4.0936   32.5917 C.3     1  UNL1        0.1066
@<TRIPOS>BOND
     1     2     7    1
     2     2     1    1
     3     3     2    2
     4     4     3    1
     5     4     5    2
     6     5     6    1
     7     6     7    2
     8     8     1    1
     9     8     9    1
    10     8    12    1
    11     9    10    1
    12    10    11    1
    13    12    11    1
    14    13    41    1
    15    14    13    2
    16    14    15    1
    17    15    18    1
    18    16    17    1
    19    16    15    2
    20    18    29    1
    21    19    14    1
    22    20    21    2
    23    20    19    1
    24    21    26    1
    25    22    21    1
    26    23    22    1
    27    24    23    1
    28    24    25    1
    29    26    27    1
    30    26    13    1
    31    28    42    1
    32    28    29    2
    33    29    32    1
    34    30    38    1
    35    31    39    1
    36    31     9    1
    37    32    31    1
    38    32    40    1
    39    32    48    1
    40    33    37    1
    41    34    49    1
    42    35    45    1
    43    35    46    2
    44    37    43    1
    45    39    44    1
    46    41    28    1
    47    43    36    1
    48    44    30    1
    49    44    34    1
    50    45    41    2
    51    46    47    1
    52    47    42    2
    53    48    33    1
    54    48    49    1
    55    49    36    1
