@<TRIPOS>MOLECULE
outputs/IAG933/test6/raw/output_7938_IAG933_linker_design_.xyz
 44 47 0 0 0
SMALL
GASTEIGER

@<TRIPOS>ATOM
      1 C         -24.8550   -1.0120   30.1430 C.3     1  UNL1        0.0447
      2 C         -24.9730   -2.5050   29.7880 C.2     1  UNL1       -0.0208
      3 C         -23.9060   -3.1730   29.1460 C.2     1  UNL1       -0.0042
      4 C         -23.9890   -4.5490   28.8530 C.2     1  UNL1       -0.0003
      5 C         -25.1370   -5.2800   29.2050 C.2     1  UNL1       -0.0000
      6 C         -26.2320   -4.6110   29.7840 C.2     1  UNL1       -0.0003
      7 C         -26.1550   -3.2320   30.0650 C.2     1  UNL1       -0.0042
      8 C         -25.3870   -0.6790   31.5710 C.3     1  UNL1        0.0906
      9 C         -25.1890    0.7730   32.0280 C.3     1  UNL1        0.1074
     10 C         -25.3360    0.6840   33.5440 C.3     1  UNL1        0.0346
     11 C         -24.8290   -0.7150   33.9050 C.3     1  UNL1        0.0897
     12 N         -24.7580   -1.4810   32.6460 N.3     1  UNL1       -0.2181
     13 C         -25.6880    1.6140   26.4610 C.3     1  UNL1        0.0936
     14 C         -26.2500    2.9200   26.3950 C.2     1  UNL1        0.0589
     15 C         -25.6420    4.0930   27.1230 C.2     1  UNL1        0.2628
     16 N         -25.6140    5.2520   26.4490 N.am    1  UNL1       -0.2000
     17 C         -25.0260    6.4790   26.9630 C.3     1  UNL1        0.1388
     18 O         -25.1430    3.9660   28.2430 O.2     1  UNL1       -0.2686
     19 C         -27.4380    3.0910   25.6450 C.2     1  UNL1        0.1025
     20 N         -28.0750    2.0890   25.0030 N.2     1  UNL1       -0.2118
     21 C         -27.5430    0.8490   25.0790 C.2     1  UNL1        0.2344
     22 O         -28.1930   -0.2080   24.4770 O.2     1  UNL1       -0.4585
     23 C         -29.4600    0.0050   23.8660 C.3     1  UNL1        0.2423
     24 C         -30.0650   -1.3770   23.5730 C.3     1  UNL1        0.2292
     25 O         -30.7290   -1.8780   24.7210 O.3     1  UNL1       -0.2162
     26 C         -26.3540    0.5760   25.7770 C.3     1  UNL1        0.2440
     27 F         -25.8600   -0.6810   25.7950 F       1  UNL1       -0.2265
     28 C         -24.2583    1.6392   26.7002 C.2     1  UNL1        0.0009
     29 N         -24.6843    1.4354   29.1630 N.pl3   1  UNL1       -0.1611
     30 S         -24.4368    1.8136   30.9212 S.3     1  UNL1        0.0747
     31 N         -25.4870    6.9664   35.6823 N.2     1  UNL1       -0.1413
     32 O         -25.9529    7.1300   33.0648 O.2     1  UNL1       -0.2666
     33 C         -25.2978    6.6963   34.0747 C.2     1  UNL1        0.2861
     34 O         -22.9648    1.9871   30.9898 O.3     1  UNL1       -0.1362
     35 C         -25.3238    7.2282   34.8128 C.2     1  UNL1        0.1814
     36 N         -24.5178    5.6151   33.8701 N.am    1  UNL1       -0.1987
     37 N         -25.4254    3.0488   31.5555 N.3     1  UNL1       -0.1372
     38 C         -21.5191    1.7696   27.0214 C.2     1  UNL1        0.0013
     39 C         -23.7592    1.5436   28.0186 C.2     1  UNL1        0.0761
     40 C         -22.0538    1.9890   25.7510 C.2     1  UNL1       -0.0002
     41 C         -24.2802    4.9529   32.7533 C.3     1  UNL1        0.1354
     42 C         -23.4246    1.9092   25.5792 C.2     1  UNL1       -0.0025
     43 C         -22.3434    1.5217   28.1265 C.2     1  UNL1        0.0169
     44 C         -25.0222    4.4614   31.5189 C.3     1  UNL1        0.1273
@<TRIPOS>BOND
     1     2     7    1
     2     2     1    1
     3     3     2    2
     4     4     3    1
     5     4     5    2
     6     5     6    1
     7     6     7    2
     8     8     1    1
     9     8     9    1
    10     8    12    1
    11     9    30    1
    12     9    10    1
    13    10    11    1
    14    12    11    1
    15    13    28    1
    16    14    13    1
    17    14    15    1
    18    15    18    2
    19    16    17    1
    20    16    15    1
    21    19    14    2
    22    20    21    2
    23    20    19    1
    24    21    26    1
    25    22    21    1
    26    23    22    1
    27    24    23    1
    28    24    25    1
    29    26    27    1
    30    26    13    1
    31    28    39    1
    32    29    30    1
    33    30    34    1
    34    30    37    1
    35    32    33    2
    36    33    35    1
    37    35    31    2
    38    36    33    1
    39    38    43    1
    40    39    43    2
    41    39    29    1
    42    40    38    2
    43    41    36    1
    44    42    40    1
    45    42    28    2
    46    44    37    1
    47    44    41    1
