@<TRIPOS>MOLECULE
outputs/IAG933/test6/raw/output_794_IAG933_linker_design_.xyz
 42 45 0 0 0
SMALL
GASTEIGER

@<TRIPOS>ATOM
      1 C         -24.8550   -1.0120   30.1430 C.3     1  UNL1        0.0625
      2 C         -24.9730   -2.5050   29.7880 C.2     1  UNL1       -0.0191
      3 C         -23.9060   -3.1730   29.1460 C.2     1  UNL1       -0.0042
      4 C         -23.9890   -4.5490   28.8530 C.2     1  UNL1       -0.0003
      5 C         -25.1370   -5.2800   29.2050 C.2     1  UNL1       -0.0000
      6 C         -26.2320   -4.6110   29.7840 C.2     1  UNL1       -0.0003
      7 C         -26.1550   -3.2320   30.0650 C.2     1  UNL1       -0.0042
      8 C         -25.3870   -0.6790   31.5710 C.3     1  UNL1        0.0788
      9 C         -25.1890    0.7730   32.0280 C.3     1  UNL1        0.0193
     10 C         -25.3360    0.6840   33.5440 C.3     1  UNL1        0.0202
     11 C         -24.8290   -0.7150   33.9050 C.3     1  UNL1        0.0887
     12 N         -24.7580   -1.4810   32.6460 N.3     1  UNL1       -0.2191
     13 C         -25.6880    1.6140   26.4610 C.2     1  UNL1        0.0526
     14 C         -26.2500    2.9200   26.3950 C.2     1  UNL1        0.0778
     15 C         -25.6420    4.0930   27.1230 C.2     1  UNL1        0.2665
     16 N         -25.6140    5.2520   26.4490 N.am    1  UNL1       -0.1997
     17 C         -25.0260    6.4790   26.9630 C.3     1  UNL1        0.1388
     18 O         -25.1430    3.9660   28.2430 O.2     1  UNL1       -0.2683
     19 C         -27.4380    3.0910   25.6450 C.2     1  UNL1        0.1068
     20 N         -28.0750    2.0890   25.0030 N.2     1  UNL1       -0.2081
     21 C         -27.5430    0.8490   25.0790 C.2     1  UNL1        0.2533
     22 O         -28.1930   -0.2080   24.4770 O.2     1  UNL1       -0.4558
     23 C         -29.4600    0.0050   23.8660 C.3     1  UNL1        0.2426
     24 C         -30.0650   -1.3770   23.5730 C.3     1  UNL1        0.2292
     25 O         -30.7290   -1.8780   24.7210 O.3     1  UNL1       -0.2162
     26 C         -26.3540    0.5760   25.7770 C.2     1  UNL1        0.1943
     27 F         -25.8600   -0.6810   25.7950 F       1  UNL1       -0.1992
     28 O         -28.2323   -0.5237   28.2696 O.2     1  UNL1       -0.2733
     29 N         -27.0199    0.8903   29.3983 N.am    1  UNL1       -0.2023
     30 C         -24.8199    0.5429   28.3239 C.2     1  UNL1        0.0116
     31 C         -28.2279    0.4024   29.0506 C.2     1  UNL1        0.2421
     32 C         -25.7768   -0.0304   29.2671 C.3     1  UNL1        0.1238
     33 C         -21.1743    1.4337   27.5072 C.3     1  UNL1        0.2480
     34 O         -20.2896    0.7195   28.1639 O.2     1  UNL1       -0.4662
     35 C         -24.5851    1.1978   27.2409 C.2     1  UNL1        0.0667
     36 C         -20.9330   -0.2446   28.8146 C.2     1  UNL1        0.1728
     37 C         -22.4913    0.9501   27.6386 C.2     1  UNL1        0.0884
     38 C         -29.5067    1.0528   29.5734 C.3     1  UNL1        0.0964
     39 C         -22.6463    0.1241   28.5241 C.2     1  UNL1        0.0186
     40 C         -21.8981   -0.7420   29.2041 C.2     1  UNL1        0.0412
     41 CL        -23.2062    2.4566   25.3736 Cl      1  UNL1        0.0068
     42 N         -23.4264    1.4690   26.7718 N.pl3   1  UNL1       -0.2114
@<TRIPOS>BOND
     1     1    32    1
     2     2     7    1
     3     2     1    1
     4     3     2    2
     5     4     3    1
     6     4     5    2
     7     5     6    1
     8     6     7    2
     9     8     1    1
    10     8     9    1
    11     8    12    1
    12     9    10    1
    13    10    11    1
    14    12    11    1
    15    13    35    1
    16    14    13    1
    17    14    15    1
    18    15    18    2
    19    16    17    1
    20    16    15    1
    21    19    14    2
    22    20    21    2
    23    20    19    1
    24    21    26    1
    25    22    21    1
    26    23    22    1
    27    24    23    1
    28    24    25    1
    29    26    27    1
    30    26    13    2
    31    28    31    2
    32    31    29    1
    33    31    38    1
    34    32    30    1
    35    32    29    1
    36    33    37    1
    37    33    34    1
    38    34    36    1
    39    35    30    2
    40    36    40    2
    41    37    39    2
    42    39    40    1
    43    41    42    1
    44    42    35    1
    45    42    37    1
