@<TRIPOS>MOLECULE
outputs/IAG933/test6/raw/output_7941_IAG933_linker_design_.xyz
 45 48 0 0 0
SMALL
GASTEIGER

@<TRIPOS>ATOM
      1 C         -24.8550   -1.0120   30.1430 C.3     1  UNL1        0.0438
      2 C         -24.9730   -2.5050   29.7880 C.2     1  UNL1       -0.0208
      3 C         -23.9060   -3.1730   29.1460 C.2     1  UNL1       -0.0042
      4 C         -23.9890   -4.5490   28.8530 C.2     1  UNL1       -0.0003
      5 C         -25.1370   -5.2800   29.2050 C.2     1  UNL1       -0.0000
      6 C         -26.2320   -4.6110   29.7840 C.2     1  UNL1       -0.0003
      7 C         -26.1550   -3.2320   30.0650 C.2     1  UNL1       -0.0042
      8 C         -25.3870   -0.6790   31.5710 C.3     1  UNL1        0.0790
      9 C         -25.1890    0.7730   32.0280 C.3     1  UNL1        0.0447
     10 C         -25.3360    0.6840   33.5440 C.3     1  UNL1        0.0222
     11 C         -24.8290   -0.7150   33.9050 C.3     1  UNL1        0.0888
     12 N         -24.7580   -1.4810   32.6460 N.3     1  UNL1       -0.2191
     13 C         -25.6880    1.6140   26.4610 C.3     1  UNL1        0.0900
     14 C         -26.2500    2.9200   26.3950 C.2     1  UNL1        0.0565
     15 C         -25.6420    4.0930   27.1230 C.2     1  UNL1        0.2625
     16 N         -25.6140    5.2520   26.4490 N.am    1  UNL1       -0.2000
     17 C         -25.0260    6.4790   26.9630 C.3     1  UNL1        0.1388
     18 O         -25.1430    3.9660   28.2430 O.2     1  UNL1       -0.2687
     19 C         -27.4380    3.0910   25.6450 C.2     1  UNL1        0.1022
     20 N         -28.0750    2.0890   25.0030 N.2     1  UNL1       -0.2119
     21 C         -27.5430    0.8490   25.0790 C.2     1  UNL1        0.2341
     22 O         -28.1930   -0.2080   24.4770 O.2     1  UNL1       -0.4585
     23 C         -29.4600    0.0050   23.8660 C.3     1  UNL1        0.2423
     24 C         -30.0650   -1.3770   23.5730 C.3     1  UNL1        0.2292
     25 O         -30.7290   -1.8780   24.7210 O.3     1  UNL1       -0.2162
     26 C         -26.3540    0.5760   25.7770 C.3     1  UNL1        0.2417
     27 F         -25.8600   -0.6810   25.7950 F       1  UNL1       -0.2268
     28 C         -25.0177    7.9661   32.6831 C.2     1  UNL1        0.0031
     29 C         -22.5140    1.9538   26.5940 C.2     1  UNL1        0.3934
     30 O         -24.9290    3.5364   33.2624 O.2     1  UNL1       -0.2481
     31 F         -21.2366    2.0081   26.9273 F       1  UNL1       -0.1435
     32 C         -24.6830    1.1441   27.5157 C.3     1  UNL1        0.1037
     33 N         -23.8023    2.1965   30.4847 N.3     1  UNL1       -0.2066
     34 C         -24.8397    2.0831   31.3494 C.3     1  UNL1        0.1732
     35 C         -26.9696    6.7888   33.5808 C.2     1  UNL1        0.0031
     36 N         -23.3544    1.5082   27.4979 N.am    1  UNL1       -0.2506
     37 C         -26.0799    7.8913   33.6091 C.2     1  UNL1        0.0002
     38 C         -24.7506    6.8291   31.8727 C.2     1  UNL1        0.0376
     39 C         -25.5412    5.6778   31.9695 C.2     1  UNL1        0.1485
     40 C         -22.9322    1.2801   29.8659 C.3     1  UNL1        0.1108
     41 C         -24.9613    3.4373   31.9940 C.2     1  UNL1        0.3374
     42 C         -22.3866    0.8457   28.5046 C.3     1  UNL1        0.1147
     43 O         -25.1133    4.5442   31.2978 O.3     1  UNL1       -0.4232
     44 C         -26.7260    5.7007   32.7216 C.2     1  UNL1        0.0376
     45 O         -22.7192    2.1612   25.3863 O.2     1  UNL1       -0.2360
@<TRIPOS>BOND
     1     2     7    1
     2     2     1    1
     3     3     2    2
     4     4     3    1
     5     4     5    2
     6     5     6    1
     7     6     7    2
     8     8     1    1
     9     8     9    1
    10     8    12    1
    11     9    34    1
    12     9    10    1
    13    10    11    1
    14    12    11    1
    15    13    32    1
    16    14    13    1
    17    14    15    1
    18    15    18    2
    19    16    17    1
    20    16    15    1
    21    19    14    2
    22    20    21    2
    23    20    19    1
    24    21    26    1
    25    22    21    1
    26    23    22    1
    27    24    23    1
    28    24    25    1
    29    26    27    1
    30    26    13    1
    31    28    37    1
    32    29    31    1
    33    29    36   am
    34    34    33    1
    35    34    41    1
    36    35    37    2
    37    36    32    1
    38    36    42    1
    39    38    39    1
    40    38    28    2
    41    39    44    2
    42    40    33    1
    43    41    30    2
    44    42    40    1
    45    43    39    1
    46    43    41    1
    47    44    35    1
    48    45    29    2
