@<TRIPOS>MOLECULE
outputs/IAG933/test6/raw/output_7942_IAG933_linker_design_.xyz
 45 49 0 0 0
SMALL
GASTEIGER

@<TRIPOS>ATOM
      1 C         -24.8550   -1.0120   30.1430 C.3     1  UNL1        0.0438
      2 C         -24.9730   -2.5050   29.7880 C.2     1  UNL1       -0.0208
      3 C         -23.9060   -3.1730   29.1460 C.2     1  UNL1       -0.0042
      4 C         -23.9890   -4.5490   28.8530 C.2     1  UNL1       -0.0003
      5 C         -25.1370   -5.2800   29.2050 C.2     1  UNL1       -0.0000
      6 C         -26.2320   -4.6110   29.7840 C.2     1  UNL1       -0.0003
      7 C         -26.1550   -3.2320   30.0650 C.2     1  UNL1       -0.0042
      8 C         -25.3870   -0.6790   31.5710 C.3     1  UNL1        0.0793
      9 C         -25.1890    0.7730   32.0280 C.3     1  UNL1        0.0446
     10 C         -25.3360    0.6840   33.5440 C.3     1  UNL1        0.0225
     11 C         -24.8290   -0.7150   33.9050 C.3     1  UNL1        0.0888
     12 N         -24.7580   -1.4810   32.6460 N.3     1  UNL1       -0.2190
     13 C         -25.6880    1.6140   26.4610 C.3     1  UNL1        0.1065
     14 C         -26.2500    2.9200   26.3950 C.2     1  UNL1        0.0602
     15 C         -25.6420    4.0930   27.1230 C.2     1  UNL1        0.2628
     16 N         -25.6140    5.2520   26.4490 N.am    1  UNL1       -0.2000
     17 C         -25.0260    6.4790   26.9630 C.3     1  UNL1        0.1388
     18 O         -25.1430    3.9660   28.2430 O.2     1  UNL1       -0.2686
     19 C         -27.4380    3.0910   25.6450 C.2     1  UNL1        0.1025
     20 N         -28.0750    2.0890   25.0030 N.2     1  UNL1       -0.2118
     21 C         -27.5430    0.8490   25.0790 C.2     1  UNL1        0.2345
     22 O         -28.1930   -0.2080   24.4770 O.2     1  UNL1       -0.4585
     23 C         -29.4600    0.0050   23.8660 C.3     1  UNL1        0.2423
     24 C         -30.0650   -1.3770   23.5730 C.3     1  UNL1        0.2292
     25 O         -30.7290   -1.8780   24.7210 O.3     1  UNL1       -0.2162
     26 C         -26.3540    0.5760   25.7770 C.3     1  UNL1        0.2453
     27 F         -25.8600   -0.6810   25.7950 F       1  UNL1       -0.2265
     28 C         -24.9917    1.1744   28.8804 C.2     1  UNL1        0.1694
     29 C         -24.3662    1.6449   26.6704 C.2     1  UNL1        0.0443
     30 C         -22.1112    2.1811   26.0277 C.2     1  UNL1        0.0056
     31 N         -25.0142    1.8858   30.1054 N.2     1  UNL1       -0.2506
     32 C         -21.7038    1.4917   27.2296 C.2     1  UNL1        0.0587
     33 N         -23.9456    1.2878   27.8578 N.am    1  UNL1       -0.2200
     34 O         -28.9152   -0.3841   28.5299 O.2     1  UNL1       -0.2866
     35 O         -28.4755    3.4425   32.5840 O.2     1  UNL1       -0.2868
     36 C         -29.9560    1.0497   30.2059 C.2     1  UNL1        0.0453
     37 C         -29.8251    2.0320   31.2159 C.2     1  UNL1        0.0450
     38 C         -22.7064    0.9214   28.0493 C.2     1  UNL1        0.2575
     39 C         -27.3820    1.8570   30.9953 C.2     1  UNL1        0.0420
     40 O         -22.5017   -0.0068   28.9647 O.2     1  UNL1       -0.2692
     41 C         -28.8649    0.5595   29.5346 C.2     1  UNL1        0.1957
     42 C         -23.4885    2.1603   25.7141 C.2     1  UNL1        0.0114
     43 C         -28.5721    2.4591   31.6300 C.2     1  UNL1        0.1937
     44 C         -25.8882    1.9902   31.3632 C.3     1  UNL1        0.1314
     45 C         -27.5955    1.0823   29.8699 C.2     1  UNL1        0.0428
@<TRIPOS>BOND
     1     2     7    1
     2     2     1    1
     3     3     2    2
     4     4     3    1
     5     4     5    2
     6     5     6    1
     7     6     7    2
     8     8     1    1
     9     8     9    1
    10     8    12    1
    11     9    44    1
    12     9    10    1
    13    10    11    1
    14    12    11    1
    15    13    29    1
    16    14    13    1
    17    14    15    1
    18    15    18    2
    19    16    17    1
    20    16    15    1
    21    19    14    2
    22    20    21    2
    23    20    19    1
    24    21    26    1
    25    22    21    1
    26    23    22    1
    27    24    23    1
    28    24    25    1
    29    26    27    1
    30    26    13    1
    31    28    31    2
    32    29    33    1
    33    30    32    2
    34    32    38    1
    35    33    38   am
    36    33    28    1
    37    34    41    1
    38    36    37    1
    39    37    43    2
    40    38    40    2
    41    39    44    1
    42    39    43    1
    43    41    45    1
    44    41    36    2
    45    42    30    1
    46    42    29    2
    47    43    35    1
    48    44    31    1
    49    45    39    2
