@<TRIPOS>MOLECULE
outputs/IAG933/test6/raw/output_7944_IAG933_linker_design_.xyz
 42 45 0 0 0
SMALL
GASTEIGER

@<TRIPOS>ATOM
      1 C         -24.8550   -1.0120   30.1430 C.3     1  UNL1        0.0388
      2 C         -24.9730   -2.5050   29.7880 C.2     1  UNL1       -0.0211
      3 C         -23.9060   -3.1730   29.1460 C.2     1  UNL1       -0.0042
      4 C         -23.9890   -4.5490   28.8530 C.2     1  UNL1       -0.0003
      5 C         -25.1370   -5.2800   29.2050 C.2     1  UNL1       -0.0000
      6 C         -26.2320   -4.6110   29.7840 C.2     1  UNL1       -0.0003
      7 C         -26.1550   -3.2320   30.0650 C.2     1  UNL1       -0.0042
      8 C         -25.3870   -0.6790   31.5710 C.3     1  UNL1        0.0768
      9 C         -25.1890    0.7730   32.0280 C.3     1  UNL1        0.0192
     10 C         -25.3360    0.6840   33.5440 C.3     1  UNL1        0.0202
     11 C         -24.8290   -0.7150   33.9050 C.3     1  UNL1        0.0887
     12 N         -24.7580   -1.4810   32.6460 N.3     1  UNL1       -0.2191
     13 C         -25.6880    1.6140   26.4610 C.3     1  UNL1        0.0811
     14 C         -26.2500    2.9200   26.3950 C.2     1  UNL1        0.0554
     15 C         -25.6420    4.0930   27.1230 C.2     1  UNL1        0.2625
     16 N         -25.6140    5.2520   26.4490 N.am    1  UNL1       -0.2000
     17 C         -25.0260    6.4790   26.9630 C.3     1  UNL1        0.1388
     18 O         -25.1430    3.9660   28.2430 O.2     1  UNL1       -0.2687
     19 C         -27.4380    3.0910   25.6450 C.2     1  UNL1        0.1022
     20 N         -28.0750    2.0890   25.0030 N.2     1  UNL1       -0.2119
     21 C         -27.5430    0.8490   25.0790 C.2     1  UNL1        0.2341
     22 O         -28.1930   -0.2080   24.4770 O.2     1  UNL1       -0.4585
     23 C         -29.4600    0.0050   23.8660 C.3     1  UNL1        0.2423
     24 C         -30.0650   -1.3770   23.5730 C.3     1  UNL1        0.2292
     25 O         -30.7290   -1.8780   24.7210 O.3     1  UNL1       -0.2162
     26 C         -26.3540    0.5760   25.7770 C.3     1  UNL1        0.2405
     27 F         -25.8600   -0.6810   25.7950 F       1  UNL1       -0.2269
     28 C         -24.8882    1.4447   29.2431 C.3     1  UNL1        0.0878
     29 O         -21.6609    1.8776   26.2890 O.3     1  UNL1       -0.4189
     30 C         -24.1440    1.6549   26.7709 C.3     1  UNL1        0.1137
     31 N         -25.8015    3.6143   30.7683 N.am    1  UNL1       -0.0625
     32 C         -22.9598    2.1951   25.8906 C.2     1  UNL1        0.3219
     33 F         -22.3770    0.5438   29.6576 F       1  UNL1       -0.2055
     34 C         -25.4118   -0.0995   29.0717 C.3     1  UNL1        0.0154
     35 C         -23.7925    1.3644   28.0613 C.3     1  UNL1        0.0732
     36 O         -23.5928    2.7282   30.9134 O.2     1  UNL1       -0.2710
     37 C         -22.4768    1.0542   28.4249 C.2     1  UNL1        0.1557
     38 C         -25.0125    4.5009   33.0505 C.3     1  UNL1        0.2080
     39 C         -21.3845    1.3911   27.5510 C.2     1  UNL1        0.2077
     40 O         -23.0956    2.9747   24.9349 O.2     1  UNL1       -0.2497
     41 C         -24.6756    2.6681   30.3792 C.2     1  UNL1        0.2673
     42 O         -25.8680    4.0094   32.0502 O.3     1  UNL1       -0.2412
@<TRIPOS>BOND
     1     1    34    1
     2     2     7    1
     3     2     1    1
     4     3     2    2
     5     4     3    1
     6     4     5    2
     7     5     6    1
     8     6     7    2
     9     8     1    1
    10     8     9    1
    11     8    12    1
    12     9    10    1
    13    10    11    1
    14    12    11    1
    15    13    14    1
    16    13    30    1
    17    14    15    1
    18    15    18    2
    19    16    17    1
    20    16    15    1
    21    19    14    2
    22    20    21    2
    23    20    19    1
    24    21    26    1
    25    22    21    1
    26    23    22    1
    27    24    23    1
    28    24    25    1
    29    26    27    1
    30    26    13    1
    31    28    34    1
    32    28    41    1
    33    29    39    1
    34    30    32    1
    35    30    35    1
    36    31    42    1
    37    32    29    1
    38    35    37    1
    39    35    28    1
    40    37    33    1
    41    39    37    2
    42    40    32    2
    43    41    31    1
    44    41    36    2
    45    42    38    1
