@<TRIPOS>MOLECULE
outputs/IAG933/test6/raw/output_7947_IAG933_linker_design_.xyz
 43 48 0 0 0
SMALL
GASTEIGER

@<TRIPOS>ATOM
      1 C         -24.8550   -1.0120   30.1430 C.3     1  UNL1        0.0961
      2 C         -24.9730   -2.5050   29.7880 C.2     1  UNL1       -0.0142
      3 C         -23.9060   -3.1730   29.1460 C.2     1  UNL1       -0.0038
      4 C         -23.9890   -4.5490   28.8530 C.2     1  UNL1       -0.0003
      5 C         -25.1370   -5.2800   29.2050 C.2     1  UNL1       -0.0000
      6 C         -26.2320   -4.6110   29.7840 C.2     1  UNL1       -0.0003
      7 C         -26.1550   -3.2320   30.0650 C.2     1  UNL1       -0.0038
      8 C         -25.3870   -0.6790   31.5710 C.3     1  UNL1        0.0883
      9 C         -25.1890    0.7730   32.0280 C.3     1  UNL1        0.0480
     10 C         -25.3360    0.6840   33.5440 C.3     1  UNL1        0.0252
     11 C         -24.8290   -0.7150   33.9050 C.3     1  UNL1        0.0891
     12 N         -24.7580   -1.4810   32.6460 N.3     1  UNL1       -0.2183
     13 C         -25.6880    1.6140   26.4610 C.2     1  UNL1        0.0164
     14 C         -26.2500    2.9200   26.3950 C.2     1  UNL1        0.0726
     15 C         -25.6420    4.0930   27.1230 C.2     1  UNL1        0.2661
     16 N         -25.6140    5.2520   26.4490 N.am    1  UNL1       -0.1997
     17 C         -25.0260    6.4790   26.9630 C.3     1  UNL1        0.1388
     18 O         -25.1430    3.9660   28.2430 O.2     1  UNL1       -0.2683
     19 C         -27.4380    3.0910   25.6450 C.2     1  UNL1        0.1064
     20 N         -28.0750    2.0890   25.0030 N.2     1  UNL1       -0.2081
     21 C         -27.5430    0.8490   25.0790 C.2     1  UNL1        0.2530
     22 O         -28.1930   -0.2080   24.4770 O.2     1  UNL1       -0.4558
     23 C         -29.4600    0.0050   23.8660 C.3     1  UNL1        0.2426
     24 C         -30.0650   -1.3770   23.5730 C.3     1  UNL1        0.2292
     25 O         -30.7290   -1.8780   24.7210 O.3     1  UNL1       -0.2162
     26 C         -26.3540    0.5760   25.7770 C.2     1  UNL1        0.1891
     27 F         -25.8600   -0.6810   25.7950 F       1  UNL1       -0.1996
     28 C         -25.7985    3.1731   32.1187 C.1     1  UNL1       -0.0558
     29 C         -24.5212    2.3560   30.3388 C.2     1  UNL1       -0.0195
     30 C         -22.5801    0.3087   29.6480 C.3     1  UNL1        0.1502
     31 C         -25.2336   -0.2947   29.0021 C.2     1  UNL1        0.1560
     32 C         -21.6522    1.1646   27.5036 C.3     1  UNL1        0.3368
     33 C         -24.3526    0.7060   28.2762 C.3     1  UNL1        0.0691
     34 C         -23.7897    1.1540   29.6456 C.3     1  UNL1        0.0593
     35 C         -25.0993    2.1666   31.4953 C.2     1  UNL1        0.0172
     36 O         -22.3828    2.3765   25.4410 O.2     1  UNL1       -0.2905
     37 C         -26.7611    3.9036   32.4661 C.1     1  UNL1       -0.0095
     38 C         -23.6914    1.7679   27.6173 C.3     1  UNL1        0.0748
     39 F         -20.6358    1.8980   27.3635 F       1  UNL1       -0.1955
     40 O         -25.9717   -0.5858   28.3136 O.2     1  UNL1       -0.2957
     41 C         -24.6527    1.4321   27.4120 C.3     1  UNL1        0.0397
     42 O         -21.7595    0.2908   28.4839 O.3     1  UNL1       -0.3210
     43 C         -22.7037    1.9849   26.3952 C.2     1  UNL1        0.2120
@<TRIPOS>BOND
     1     1     2    1
     2     1     8    1
     3     2     7    1
     4     3     2    2
     5     4     3    1
     6     4     5    2
     7     5     6    1
     8     6     7    2
     9     8     9    1
    10     8    12    1
    11     9    10    1
    12    10    11    1
    13    12    11    1
    14    14    13    1
    15    14    15    1
    16    15    18    2
    17    16    17    1
    18    16    15    1
    19    19    14    2
    20    20    21    2
    21    20    19    1
    22    21    26    1
    23    22    21    1
    24    23    22    1
    25    24    23    1
    26    24    25    1
    27    26    27    1
    28    26    13    2
    29    28    37    3
    30    29    35    2
    31    31     1    1
    32    32    39    1
    33    32    42    1
    34    33    31    1
    35    33    34    1
    36    34    30    1
    37    34    29    1
    38    35     9    1
    39    35    28    1
    40    36    43    2
    41    38    43    1
    42    38    33    1
    43    40    31    2
    44    41    13    1
    45    41    38    1
    46    41    33    1
    47    42    30    1
    48    43    32    1
