@<TRIPOS>MOLECULE
outputs/IAG933/test6/raw/output_7948_IAG933_linker_design_.xyz
 65 73 0 0 0
SMALL
GASTEIGER

@<TRIPOS>ATOM
      1 C         -24.8550   -1.0120   30.1430 C.3     1  UNL1        0.0965
      2 C         -24.9730   -2.5050   29.7880 C.2     1  UNL1       -0.0064
      3 C         -23.9060   -3.1730   29.1460 C.2     1  UNL1       -0.0029
      4 C         -23.9890   -4.5490   28.8530 C.2     1  UNL1       -0.0003
      5 C         -25.1370   -5.2800   29.2050 C.2     1  UNL1       -0.0000
      6 C         -26.2320   -4.6110   29.7840 C.2     1  UNL1       -0.0003
      7 C         -26.1550   -3.2320   30.0650 C.2     1  UNL1       -0.0029
      8 C         -25.3870   -0.6790   31.5710 C.3     1  UNL1        0.0916
      9 C         -25.1890    0.7730   32.0280 C.3     1  UNL1        0.0206
     10 C         -25.3360    0.6840   33.5440 C.3     1  UNL1        0.0203
     11 C         -24.8290   -0.7150   33.9050 C.3     1  UNL1        0.0888
     12 N         -24.7580   -1.4810   32.6460 N.3     1  UNL1       -0.2178
     13 C         -25.6880    1.6140   26.4610 C.2     1  UNL1        0.0169
     14 C         -26.2500    2.9200   26.3950 C.2     1  UNL1        0.0726
     15 C         -25.6420    4.0930   27.1230 C.2     1  UNL1        0.2661
     16 N         -25.6140    5.2520   26.4490 N.am    1  UNL1       -0.1997
     17 C         -25.0260    6.4790   26.9630 C.3     1  UNL1        0.1388
     18 O         -25.1430    3.9660   28.2430 O.2     1  UNL1       -0.2683
     19 C         -27.4380    3.0910   25.6450 C.2     1  UNL1        0.1064
     20 N         -28.0750    2.0890   25.0030 N.2     1  UNL1       -0.2081
     21 C         -27.5430    0.8490   25.0790 C.2     1  UNL1        0.2530
     22 O         -28.1930   -0.2080   24.4770 O.2     1  UNL1       -0.4558
     23 C         -29.4600    0.0050   23.8660 C.3     1  UNL1        0.2426
     24 C         -30.0650   -1.3770   23.5730 C.3     1  UNL1        0.2292
     25 O         -30.7290   -1.8780   24.7210 O.3     1  UNL1       -0.2162
     26 C         -26.3540    0.5760   25.7770 C.2     1  UNL1        0.1891
     27 F         -25.8600   -0.6810   25.7950 F       1  UNL1       -0.1996
     28 N         -36.9606    1.9707   34.0071 N.pl3   1  UNL1       -0.3041
     29 O         -26.6092    2.8301   30.5759 O.3     1  UNL1       -0.2162
     30 C         -32.1283    2.0135   31.5979 C.2     1  UNL1       -0.0218
     31 O         -32.0207   -1.3352   29.7784 O.3     1  UNL1       -0.2200
     32 C         -30.8155    1.9735   31.0088 C.3     1  UNL1        0.0481
     33 C         -36.4620    4.3783   33.5048 C.2     1  UNL1        0.0145
     34 N         -25.0902   -0.1347   28.8786 N.3     1  UNL1       -0.2667
     35 C         -21.6371    0.8314   27.7502 C.3     1  UNL1        0.0014
     36 C         -31.4603   -1.8422   28.5899 C.3     1  UNL1        0.1877
     37 C         -22.1168    2.0031   26.9053 C.3     1  UNL1        0.0004
     38 C         -36.1149    0.8343   33.9519 C.3     1  UNL1        0.1122
     39 C         -30.0612    2.7922   31.8553 C.2     1  UNL1       -0.0372
     40 C         -28.1937    1.4553   29.3543 C.3     1  UNL1        0.1273
     41 C         -33.5112    3.3738   32.9933 C.2     1  UNL1       -0.0028
     42 C         -24.4186    1.4383   27.0608 C.3     1  UNL1        0.0395
     43 C         -35.2198    5.2550   33.7136 C.2     1  UNL1        0.0013
     44 C         -38.4080    1.8125   33.4666 C.3     1  UNL1        0.1122
     45 C         -34.6102    2.5823   32.6271 C.2     1  UNL1        0.0130
     46 C         -31.2355    0.9564   27.3975 C.3     1  UNL1        0.0297
     47 C         -30.8986    3.2626   32.9266 C.3     1  UNL1        0.0481
     48 C         -22.6933    0.3945   28.7701 C.3     1  UNL1        0.0163
     49 C         -27.5593   -0.5073   28.8223 C.2     1  UNL1       -0.0046
     50 C         -33.8046    4.6822   33.7009 C.2     1  UNL1       -0.0002
     51 C         -33.2417    1.3918   31.0833 C.2     1  UNL1       -0.0042
     52 C         -27.9883    2.5435   30.4667 C.3     1  UNL1        0.1952
     53 C         -32.1847    2.9758   32.6028 C.2     1  UNL1       -0.0217
     54 C         -26.2420    0.5411   29.4062 C.3     1  UNL1        0.0968
     55 C         -23.3577    1.5798   26.0841 C.3     1  UNL1        0.0058
     56 C         -28.6627    3.0284   31.6910 C.2     1  UNL1        0.0003
     57 N         -29.3147    1.1112   28.6086 N.pl3   1  UNL1       -0.3063
     58 C         -36.1496    2.9453   32.9950 C.2     1  UNL1        0.0479
     59 C         -30.9112   -0.5066   27.8215 C.3     1  UNL1        0.0705
     60 C         -34.4042    1.5375   31.7488 C.2     1  UNL1        0.0009
     61 C         -24.0863    0.8556   28.3521 C.3     1  UNL1        0.0621
     62 C         -30.1846    1.8958   27.8882 C.3     1  UNL1        0.0913
     63 C         -29.6207   -0.1784   28.2767 C.2     1  UNL1        0.0273
     64 C         -27.2191    0.5028   29.2485 C.2     1  UNL1       -0.0077
     65 C         -28.6635   -1.2475   28.2705 C.2     1  UNL1        0.0096
@<TRIPOS>BOND
     1     1    34    1
     2     2     7    1
     3     2     1    1
     4     3     2    2
     5     4     3    1
     6     4     5    2
     7     5     6    1
     8     6     7    2
     9     8     1    1
    10     8     9    1
    11     8    12    1
    12     9    10    1
    13    10    11    1
    14    12    11    1
    15    14    13    1
    16    14    15    1
    17    15    18    2
    18    16    17    1
    19    16    15    1
    20    19    14    2
    21    20    21    2
    22    20    19    1
    23    21    26    1
    24    22    21    1
    25    23    22    1
    26    24    23    1
    27    24    25    1
    28    26    27    1
    29    26    13    2
    30    30    53    1
    31    32    30    1
    32    32    39    1
    33    33    43    1
    34    34    54    1
    35    35    48    1
    36    36    31    1
    37    37    35    1
    38    38    28    1
    39    39    47    1
    40    40    52    1
    41    41    50    1
    42    42    13    1
    43    42    61    1
    44    44    28    1
    45    45    41    1
    46    45    58    1
    47    46    59    1
    48    46    62    1
    49    49    64    2
    50    50    43    2
    51    51    30    2
    52    51    60    1
    53    52    29    1
    54    52    56    1
    55    53    47    1
    56    53    41    2
    57    55    37    1
    58    55    42    1
    59    56    39    2
    60    57    40    1
    61    58    33    2
    62    58    28    1
    63    59    63    1
    64    59    36    1
    65    60    45    2
    66    61    48    1
    67    61    34    1
    68    62    57    1
    69    63    57    1
    70    64    40    1
    71    64    54    1
    72    65    63    2
    73    65    49    1
