@<TRIPOS>MOLECULE
outputs/IAG933/test6/raw/output_7950_IAG933_linker_design_.xyz
 51 57 0 0 0
SMALL
GASTEIGER

@<TRIPOS>ATOM
      1 C         -24.8550   -1.0120   30.1430 C.3     1  UNL1        0.1536
      2 C         -24.9730   -2.5050   29.7880 C.2     1  UNL1        0.0059
      3 C         -23.9060   -3.1730   29.1460 C.2     1  UNL1       -0.0019
      4 C         -23.9890   -4.5490   28.8530 C.2     1  UNL1       -0.0002
      5 C         -25.1370   -5.2800   29.2050 C.2     1  UNL1       -0.0000
      6 C         -26.2320   -4.6110   29.7840 C.2     1  UNL1       -0.0002
      7 C         -26.1550   -3.2320   30.0650 C.2     1  UNL1       -0.0019
      8 C         -25.3870   -0.6790   31.5710 C.3     1  UNL1        0.1041
      9 C         -25.1890    0.7730   32.0280 C.3     1  UNL1        0.0217
     10 C         -25.3360    0.6840   33.5440 C.3     1  UNL1        0.0203
     11 C         -24.8290   -0.7150   33.9050 C.3     1  UNL1        0.0888
     12 N         -24.7580   -1.4810   32.6460 N.3     1  UNL1       -0.2166
     13 C         -25.6880    1.6140   26.4610 C.3     1  UNL1        0.1425
     14 C         -26.2500    2.9200   26.3950 C.2     1  UNL1        0.0709
     15 C         -25.6420    4.0930   27.1230 C.2     1  UNL1        0.2638
     16 N         -25.6140    5.2520   26.4490 N.am    1  UNL1       -0.2000
     17 C         -25.0260    6.4790   26.9630 C.3     1  UNL1        0.1388
     18 O         -25.1430    3.9660   28.2430 O.2     1  UNL1       -0.2686
     19 C         -27.4380    3.0910   25.6450 C.2     1  UNL1        0.1035
     20 N         -28.0750    2.0890   25.0030 N.2     1  UNL1       -0.2118
     21 C         -27.5430    0.8490   25.0790 C.2     1  UNL1        0.2356
     22 O         -28.1930   -0.2080   24.4770 O.2     1  UNL1       -0.4573
     23 C         -29.4600    0.0050   23.8660 C.3     1  UNL1        0.2540
     24 C         -30.0650   -1.3770   23.5730 C.3     1  UNL1        0.2558
     25 O         -30.7290   -1.8780   24.7210 O.3     1  UNL1       -0.4429
     26 C         -26.3540    0.5760   25.7770 C.3     1  UNL1        0.2559
     27 F         -25.8600   -0.6810   25.7950 F       1  UNL1       -0.2253
     28 C         -29.8578    0.6915   29.8222 C.2     1  UNL1        0.0028
     29 C         -31.9489   -1.9197   27.2726 C.ar    1  UNL1        0.1399
     30 C         -22.3698    0.2617   29.2077 C.2     1  UNL1        0.0024
     31 C         -30.7236   -0.0743   27.6862 C.ar    1  UNL1        0.1497
     32 C         -23.4366    1.1223   26.6440 C.3     1  UNL1        0.0557
     33 C         -32.3550   -3.4371   30.5360 C.3     1  UNL1        0.0065
     34 C         -31.4017   -1.0356   28.3794 C.ar    1  UNL1        0.0518
     35 C         -31.4590   -1.3929   25.8929 C.ar    1  UNL1        0.3121
     36 C         -31.3272   -1.1562   29.8344 C.2     1  UNL1       -0.0178
     37 C         -32.2261   -4.4396   28.0655 C.3     1  UNL1        0.1124
     38 C         -31.7511   -4.4227   29.5007 C.3     1  UNL1        0.0237
     39 C         -21.8934    1.4499   26.9797 C.3     1  UNL1        0.1841
     40 C         -21.4015    0.7580   28.1233 C.2     1  UNL1        0.0063
     41 N         -25.7078    1.1231   27.5750 N.3     1  UNL1       -0.2100
     42 C         -23.8320    0.6962   29.1982 C.3     1  UNL1        0.1533
     43 C         -31.9186   -2.1777   30.7858 C.3     1  UNL1        0.0266
     44 N         -32.4681   -3.2322   27.4179 N.pl3   1  UNL1       -0.2316
     45 C         -30.4920   -0.3289   30.5103 C.2     1  UNL1       -0.0040
     46 O         -24.9498    0.1238   29.4665 O.3     1  UNL1       -0.3471
     47 O         -30.7916   -0.1527   26.2727 O.2     1  UNL1       -0.4228
     48 C         -29.9861    0.8498   28.4337 C.2     1  UNL1        0.0376
     49 C         -23.7479    1.9174   25.6146 C.3     1  UNL1        0.0047
     50 F         -21.7480    2.1065   25.6423 F       1  UNL1       -0.2324
     51 C         -24.2789    1.1849   27.9385 C.3     1  UNL1        0.1074
@<TRIPOS>BOND
     1     1    46    1
     2     2     7    1
     3     2     1    1
     4     3     2    2
     5     4     3    1
     6     4     5    2
     7     5     6    1
     8     6     7    2
     9     8     1    1
    10     8     9    1
    11     8    12    1
    12     9    10    1
    13    10    11    1
    14    12    11    1
    15    13    41    1
    16    14    13    1
    17    14    15    1
    18    15    18    2
    19    16    17    1
    20    16    15    1
    21    19    14    2
    22    20    21    2
    23    20    19    1
    24    21    26    1
    25    22    21    1
    26    23    22    1
    27    24    23    1
    28    24    25    1
    29    25    35    1
    30    26    27    1
    31    26    13    1
    32    28    45    1
    33    29    44    1
    34    29    34   ar
    35    31    34   ar
    36    31    48    1
    37    32    49    1
    38    32    39    1
    39    32    51    1
    40    33    43    1
    41    34    36    1
    42    35    47   ar
    43    35    29   ar
    44    36    45    2
    45    36    43    1
    46    37    38    1
    47    38    33    1
    48    39    50    1
    49    39    40    1
    50    40    30    2
    51    42    30    1
    52    42    46    1
    53    44    37    1
    54    47    31   ar
    55    48    28    2
    56    51    41    1
    57    51    42    1
