@<TRIPOS>MOLECULE
outputs/IAG933/test6/raw/output_7954_IAG933_linker_design_.xyz
 40 43 0 0 0
SMALL
GASTEIGER

@<TRIPOS>ATOM
      1 C         -24.8550   -1.0120   30.1430 C.3     1  UNL1        0.0910
      2 C         -24.9730   -2.5050   29.7880 C.2     1  UNL1       -0.0167
      3 C         -23.9060   -3.1730   29.1460 C.2     1  UNL1       -0.0041
      4 C         -23.9890   -4.5490   28.8530 C.2     1  UNL1       -0.0003
      5 C         -25.1370   -5.2800   29.2050 C.2     1  UNL1       -0.0000
      6 C         -26.2320   -4.6110   29.7840 C.2     1  UNL1       -0.0003
      7 C         -26.1550   -3.2320   30.0650 C.2     1  UNL1       -0.0041
      8 C         -25.3870   -0.6790   31.5710 C.3     1  UNL1        0.0812
      9 C         -25.1890    0.7730   32.0280 C.3     1  UNL1        0.0193
     10 C         -25.3360    0.6840   33.5440 C.3     1  UNL1        0.0202
     11 C         -24.8290   -0.7150   33.9050 C.3     1  UNL1        0.0887
     12 N         -24.7580   -1.4810   32.6460 N.3     1  UNL1       -0.2190
     13 C         -25.6880    1.6140   26.4610 C.2     1  UNL1        0.0539
     14 C         -26.2500    2.9200   26.3950 C.2     1  UNL1        0.0779
     15 C         -25.6420    4.0930   27.1230 C.2     1  UNL1        0.2665
     16 N         -25.6140    5.2520   26.4490 N.am    1  UNL1       -0.1997
     17 C         -25.0260    6.4790   26.9630 C.3     1  UNL1        0.1388
     18 O         -25.1430    3.9660   28.2430 O.2     1  UNL1       -0.2683
     19 C         -27.4380    3.0910   25.6450 C.2     1  UNL1        0.1068
     20 N         -28.0750    2.0890   25.0030 N.2     1  UNL1       -0.2081
     21 C         -27.5430    0.8490   25.0790 C.2     1  UNL1        0.2533
     22 O         -28.1930   -0.2080   24.4770 O.2     1  UNL1       -0.4558
     23 C         -29.4600    0.0050   23.8660 C.3     1  UNL1        0.2426
     24 C         -30.0650   -1.3770   23.5730 C.3     1  UNL1        0.2292
     25 O         -30.7290   -1.8780   24.7210 O.3     1  UNL1       -0.2162
     26 C         -26.3540    0.5760   25.7770 C.2     1  UNL1        0.1944
     27 F         -25.8600   -0.6810   25.7950 F       1  UNL1       -0.1992
     28 C         -23.1551    1.6499   26.5981 C.ar    1  UNL1        0.0898
     29 C         -22.9432    0.7746   28.5727 C.ar    1  UNL1        0.1806
     30 C         -24.4174    1.3179   27.1083 C.ar    1  UNL1        0.0691
     31 O         -26.4364   -0.1050   28.5290 O.3     1  UNL1       -0.1676
     32 O         -27.4551    0.5572   29.1431 O.3     1  UNL1       -0.0328
     33 C         -23.0144    2.2223   25.2684 C.3     1  UNL1        0.3446
     34 N         -22.3817    0.3975   29.7677 N.pl3   1  UNL1       -0.1065
     35 F         -20.8756    1.4904   27.5563 F       1  UNL1       -0.2013
     36 N         -24.2465    0.6170   28.2700 N.ar    1  UNL1       -0.2868
     37 C         -22.2365    1.3120   27.5605 C.ar    1  UNL1        0.1757
     38 F         -23.5262    1.2714   24.3626 F       1  UNL1       -0.1931
     39 F         -23.4806    3.3660   25.1094 F       1  UNL1       -0.1931
     40 C         -25.2574   -0.1082   28.9686 C.3     1  UNL1        0.2493
@<TRIPOS>BOND
     1     1    40    1
     2     2     7    1
     3     2     1    1
     4     3     2    2
     5     4     3    1
     6     4     5    2
     7     5     6    1
     8     6     7    2
     9     8     1    1
    10     8     9    1
    11     8    12    1
    12     9    10    1
    13    10    11    1
    14    12    11    1
    15    13    30    1
    16    14    13    1
    17    14    15    1
    18    15    18    2
    19    16    17    1
    20    16    15    1
    21    19    14    2
    22    20    21    2
    23    20    19    1
    24    21    26    1
    25    22    21    1
    26    23    22    1
    27    24    23    1
    28    24    25    1
    29    26    27    1
    30    26    13    2
    31    28    30   ar
    32    28    37   ar
    33    29    34    1
    34    30    36   ar
    35    31    32    1
    36    33    28    1
    37    35    37    1
    38    36    29   ar
    39    36    40    1
    40    37    29   ar
    41    38    33    1
    42    39    33    1
    43    40    31    1
