@<TRIPOS>MOLECULE
outputs/IAG933/test6/raw/output_7955_IAG933_linker_design_.xyz
 45 50 0 0 0
SMALL
GASTEIGER

@<TRIPOS>ATOM
      1 C         -24.8550   -1.0120   30.1430 C.3     1  UNL1        0.0461
      2 C         -24.9730   -2.5050   29.7880 C.2     1  UNL1       -0.0207
      3 C         -23.9060   -3.1730   29.1460 C.2     1  UNL1       -0.0042
      4 C         -23.9890   -4.5490   28.8530 C.2     1  UNL1       -0.0003
      5 C         -25.1370   -5.2800   29.2050 C.2     1  UNL1       -0.0000
      6 C         -26.2320   -4.6110   29.7840 C.2     1  UNL1       -0.0003
      7 C         -26.1550   -3.2320   30.0650 C.2     1  UNL1       -0.0042
      8 C         -25.3870   -0.6790   31.5710 C.3     1  UNL1        0.0772
      9 C         -25.1890    0.7730   32.0280 C.3     1  UNL1        0.0192
     10 C         -25.3360    0.6840   33.5440 C.3     1  UNL1        0.0202
     11 C         -24.8290   -0.7150   33.9050 C.3     1  UNL1        0.0887
     12 N         -24.7580   -1.4810   32.6460 N.3     1  UNL1       -0.2191
     13 C         -25.6880    1.6140   26.4610 C.2     1  UNL1        0.0281
     14 C         -26.2500    2.9200   26.3950 C.2     1  UNL1        0.0714
     15 C         -25.6420    4.0930   27.1230 C.2     1  UNL1        0.2282
     16 N         -25.6140    5.2520   26.4490 N.2     1  UNL1       -0.2353
     17 C         -25.0260    6.4790   26.9630 C.3     1  UNL1        0.1550
     18 O         -25.1430    3.9660   28.2430 O.2     1  UNL1       -0.4216
     19 C         -27.4380    3.0910   25.6450 C.2     1  UNL1        0.1065
     20 N         -28.0750    2.0890   25.0030 N.2     1  UNL1       -0.2081
     21 C         -27.5430    0.8490   25.0790 C.2     1  UNL1        0.2530
     22 O         -28.1930   -0.2080   24.4770 O.2     1  UNL1       -0.4558
     23 C         -29.4600    0.0050   23.8660 C.3     1  UNL1        0.2426
     24 C         -30.0650   -1.3770   23.5730 C.3     1  UNL1        0.2292
     25 O         -30.7290   -1.8780   24.7210 O.3     1  UNL1       -0.2162
     26 C         -26.3540    0.5760   25.7770 C.2     1  UNL1        0.1897
     27 F         -25.8600   -0.6810   25.7950 F       1  UNL1       -0.1996
     28 C         -24.1323   -0.0020   29.2060 C.3     1  UNL1        0.0773
     29 O         -27.0537    5.5715   29.7655 O.3     1  UNL1       -0.1014
     30 O         -23.2756    2.4124   25.6206 O.2     1  UNL1       -0.2492
     31 O         -22.0800    1.9194   27.4414 O.3     1  UNL1       -0.3881
     32 N         -26.3790    5.9813   30.8970 N.3     1  UNL1        0.0467
     33 C         -27.4824    3.5174   30.5907 C.3     1  UNL1        0.2126
     34 N         -22.5475   -0.2944   29.9345 N.2     1  UNL1       -0.1459
     35 N         -26.6511    5.1796   32.0618 N.3     1  UNL1       -0.0904
     36 C         -25.2776    3.6207   29.6890 C.2     1  UNL1        0.2233
     37 C         -23.2813    1.8556   26.8640 C.2     1  UNL1        0.3294
     38 C         -24.5312    1.5772   27.2877 C.3     1  UNL1        0.1470
     39 C         -21.8085    0.8275   28.2771 C.2     1  UNL1        0.3634
     40 O         -27.8980    4.5088   30.0121 O.3     1  UNL1       -0.1981
     41 C         -24.9510    1.1684   28.7337 C.3     1  UNL1        0.1269
     42 N         -25.1415    2.1601   29.7860 N.2     1  UNL1       -0.2407
     43 C         -22.8133    0.1789   29.1261 C.2     1  UNL1        0.1580
     44 O         -20.6502    0.3768   28.2875 O.2     1  UNL1       -0.2430
     45 C         -26.2425    3.9425   31.2745 C.3     1  UNL1        0.2026
@<TRIPOS>BOND
     1     1     2    1
     2     2     7    1
     3     3     2    2
     4     4     3    1
     5     4     5    2
     6     5     6    1
     7     6     7    2
     8     8     1    1
     9     8     9    1
    10     8    12    1
    11     9    10    1
    12    10    11    1
    13    12    11    1
    14    14    13    1
    15    14    15    1
    16    15    18    1
    17    16    17    1
    18    16    15    2
    19    18    36    1
    20    19    14    2
    21    20    21    2
    22    20    19    1
    23    21    26    1
    24    22    21    1
    25    23    22    1
    26    24    23    1
    27    24    25    1
    28    26    27    1
    29    26    13    2
    30    28     1    1
    31    29    40    1
    32    29    32    1
    33    30    37    2
    34    31    39    1
    35    32    35    1
    36    33    45    1
    37    36    42    2
    38    37    38    1
    39    37    31    1
    40    38    13    1
    41    38    41    1
    42    39    44    2
    43    39    43    1
    44    40    33    1
    45    41    28    1
    46    41    42    1
    47    43    28    1
    48    43    34    2
    49    45    36    1
    50    45    35    1
