@<TRIPOS>MOLECULE
outputs/IAG933/test6/raw/output_7956_IAG933_linker_design_.xyz
 48 52 0 0 0
SMALL
GASTEIGER

@<TRIPOS>ATOM
      1 C         -24.8550   -1.0120   30.1430 C.3     1  UNL1        0.1140
      2 C         -24.9730   -2.5050   29.7880 C.2     1  UNL1       -0.0124
      3 C         -23.9060   -3.1730   29.1460 C.2     1  UNL1       -0.0038
      4 C         -23.9890   -4.5490   28.8530 C.2     1  UNL1       -0.0003
      5 C         -25.1370   -5.2800   29.2050 C.2     1  UNL1       -0.0000
      6 C         -26.2320   -4.6110   29.7840 C.2     1  UNL1       -0.0003
      7 C         -26.1550   -3.2320   30.0650 C.2     1  UNL1       -0.0038
      8 C         -25.3870   -0.6790   31.5710 C.3     1  UNL1        0.0856
      9 C         -25.1890    0.7730   32.0280 C.3     1  UNL1        0.0197
     10 C         -25.3360    0.6840   33.5440 C.3     1  UNL1        0.0203
     11 C         -24.8290   -0.7150   33.9050 C.3     1  UNL1        0.0887
     12 N         -24.7580   -1.4810   32.6460 N.3     1  UNL1       -0.2186
     13 C         -25.6880    1.6140   26.4610 C.3     1  UNL1        0.0743
     14 C         -26.2500    2.9200   26.3950 C.2     1  UNL1        0.0531
     15 C         -25.6420    4.0930   27.1230 C.2     1  UNL1        0.2225
     16 N         -25.6140    5.2520   26.4490 N.2     1  UNL1       -0.2356
     17 C         -25.0260    6.4790   26.9630 C.3     1  UNL1        0.1550
     18 O         -25.1430    3.9660   28.2430 O.2     1  UNL1       -0.4389
     19 C         -27.4380    3.0910   25.6450 C.2     1  UNL1        0.1022
     20 N         -28.0750    2.0890   25.0030 N.2     1  UNL1       -0.2119
     21 C         -27.5430    0.8490   25.0790 C.2     1  UNL1        0.2341
     22 O         -28.1930   -0.2080   24.4770 O.2     1  UNL1       -0.4585
     23 C         -29.4600    0.0050   23.8660 C.3     1  UNL1        0.2423
     24 C         -30.0650   -1.3770   23.5730 C.3     1  UNL1        0.2292
     25 O         -30.7290   -1.8780   24.7210 O.3     1  UNL1       -0.2162
     26 C         -26.3540    0.5760   25.7770 C.3     1  UNL1        0.2401
     27 F         -25.8600   -0.6810   25.7950 F       1  UNL1       -0.2269
     28 O         -28.3381    4.6959   32.7757 O.2     1  UNL1       -0.2726
     29 O         -24.4207   -0.3181   27.9023 O.2     1  UNL1       -0.4594
     30 N         -25.3476    1.3917   29.3261 N.2     1  UNL1       -0.2260
     31 C         -21.1409    1.8157   27.4620 C.3     1  UNL1        0.0762
     32 N         -24.7254    6.0619   35.2835 N.3     1  UNL1       -0.1314
     33 C         -25.6821    4.0464   34.3221 C.3     1  UNL1        0.0213
     34 C         -25.5592    3.9136   29.5127 C.2     1  UNL1        0.1521
     35 C         -24.8757    0.0213   29.1221 C.2     1  UNL1        0.2018
     36 C         -24.2062    1.5948   26.4301 C.3     1  UNL1        0.0592
     37 N         -27.9932    3.4838   30.9915 N.am    1  UNL1       -0.1425
     38 C         -26.1586    4.8108   31.8738 C.3     1  UNL1        0.1033
     39 C         -27.5090    4.3593   31.9193 C.2     1  UNL1        0.2517
     40 C         -26.0432    2.6838   29.7655 C.3     1  UNL1        0.2398
     41 C         -25.6764    4.9773   35.5637 C.3     1  UNL1        0.1093
     42 O         -27.6974    1.2614   31.0846 O.2     1  UNL1       -0.2703
     43 C         -23.5218    1.1947   27.5522 C.3     1  UNL1        0.2241
     44 C         -22.2625    1.1911   28.1325 C.2     1  UNL1        0.1907
     45 C         -25.4881    4.9637   30.5716 C.2     1  UNL1        0.0182
     46 O         -22.1562    0.8080   29.3244 O.2     1  UNL1       -0.2923
     47 C         -27.2902    2.3872   30.6415 C.2     1  UNL1        0.2778
     48 C         -25.2323    4.8546   33.0929 C.3     1  UNL1        0.0152
@<TRIPOS>BOND
     1     1    35    1
     2     2     7    1
     3     2     1    1
     4     3     2    2
     5     4     3    1
     6     4     5    2
     7     5     6    1
     8     6     7    2
     9     8     1    1
    10     8     9    1
    11     8    12    1
    12     9    10    1
    13    10    11    1
    14    12    11    1
    15    13    36    1
    16    14    13    1
    17    14    15    1
    18    15    18    1
    19    16    17    1
    20    16    15    2
    21    18    34    1
    22    19    14    2
    23    20    21    2
    24    20    19    1
    25    21    26    1
    26    22    21    1
    27    23    22    1
    28    24    23    1
    29    24    25    1
    30    26    27    1
    31    26    13    1
    32    29    35    1
    33    31    44    1
    34    32    41    1
    35    33    41    1
    36    34    40    1
    37    34    45    2
    38    35    30    2
    39    36    43    1
    40    37    39    1
    41    38    39    1
    42    38    48    1
    43    39    28    2
    44    40    30    1
    45    40    47    1
    46    43    29    1
    47    43    44    1
    48    44    46    2
    49    45    38    1
    50    47    37    1
    51    47    42    2
    52    48    33    1
