@<TRIPOS>MOLECULE
No_796-gen_results/8p0m/2024-11-27-11-27-31/
 17 17 0 0 0
SMALL
GASTEIGER

@<TRIPOS>ATOM
      1 C         -28.0162   -0.8135   28.8779 C.3     1  UNL1        0.1298
      2 C         -27.0636   -0.1189   28.6079 C.ar    1  UNL1       -0.0098
      3 C         -25.7647   -0.3897   29.0360 C.ar    1  UNL1       -0.0037
      4 C         -24.5516    0.4058   28.7646 C.ar    1  UNL1        0.0043
      5 C         -24.6957    1.4480   27.7988 C.ar    1  UNL1        0.0568
      6 C         -25.9755    1.7250   27.3077 C.ar    1  UNL1        0.0084
      7 C         -27.0718    1.0134   27.6535 C.ar    1  UNL1        0.0467
      8 C         -28.6178   -0.4695   30.2207 C.3     1  UNL1        0.4017
      9 F         -28.4023    0.4444   30.7991 F       1  UNL1       -0.1697
     10 F         -30.0286   -0.8062   30.1991 F       1  UNL1       -0.1697
     11 C         -23.4989    2.2358   27.5016 C.2     1  UNL1        0.2842
     12 N         -23.6099    3.1718   26.6235 N.am    1  UNL1       -0.0837
     13 O         -22.3317    1.9154   27.8874 O.2     1  UNL1       -0.2667
     14 F         -28.1532   -1.6286   31.0404 F       1  UNL1       -0.1697
     15 C         -28.3844    1.2864   27.0488 C.2     1  UNL1        0.2533
     16 CL        -28.7668    1.3129   26.0941 Cl      1  UNL1       -0.0383
     17 O         -29.2594    1.4454   28.2374 O.2     1  UNL1       -0.2740
@<TRIPOS>BOND
     1     1     8    1
     2     8     9    1
     3     8    10    1
     4     5    11    1
     5    11    12   am
     6    11    13    2
     7     8    14    1
     8     7    15    1
     9    15    16    1
    10    15    17    2
    11     1     2    1
    12     2     3   ar
    13     3     4   ar
    14     4     5   ar
    15     5     6   ar
    16     6     7   ar
    17     7     2   ar
