@<TRIPOS>MOLECULE
outputs/IAG933/test6/raw/output_7960_IAG933_linker_design_.xyz
 42 45 0 0 0
SMALL
GASTEIGER

@<TRIPOS>ATOM
      1 C         -24.8550   -1.0120   30.1430 C.3     1  UNL1        0.0968
      2 C         -24.9730   -2.5050   29.7880 C.2     1  UNL1       -0.0160
      3 C         -23.9060   -3.1730   29.1460 C.2     1  UNL1       -0.0041
      4 C         -23.9890   -4.5490   28.8530 C.2     1  UNL1       -0.0003
      5 C         -25.1370   -5.2800   29.2050 C.2     1  UNL1       -0.0000
      6 C         -26.2320   -4.6110   29.7840 C.2     1  UNL1       -0.0003
      7 C         -26.1550   -3.2320   30.0650 C.2     1  UNL1       -0.0041
      8 C         -25.3870   -0.6790   31.5710 C.3     1  UNL1        0.0820
      9 C         -25.1890    0.7730   32.0280 C.3     1  UNL1        0.0194
     10 C         -25.3360    0.6840   33.5440 C.3     1  UNL1        0.0202
     11 C         -24.8290   -0.7150   33.9050 C.3     1  UNL1        0.0887
     12 N         -24.7580   -1.4810   32.6460 N.3     1  UNL1       -0.2189
     13 C         -25.6880    1.6140   26.4610 C.2     1  UNL1        0.0402
     14 C         -26.2500    2.9200   26.3950 C.2     1  UNL1        0.0766
     15 C         -25.6420    4.0930   27.1230 C.2     1  UNL1        0.2664
     16 N         -25.6140    5.2520   26.4490 N.am    1  UNL1       -0.1997
     17 C         -25.0260    6.4790   26.9630 C.3     1  UNL1        0.1388
     18 O         -25.1430    3.9660   28.2430 O.2     1  UNL1       -0.2683
     19 C         -27.4380    3.0910   25.6450 C.2     1  UNL1        0.1067
     20 N         -28.0750    2.0890   25.0030 N.2     1  UNL1       -0.2081
     21 C         -27.5430    0.8490   25.0790 C.2     1  UNL1        0.2533
     22 O         -28.1930   -0.2080   24.4770 O.2     1  UNL1       -0.4558
     23 C         -29.4600    0.0050   23.8660 C.3     1  UNL1        0.2426
     24 C         -30.0650   -1.3770   23.5730 C.3     1  UNL1        0.2292
     25 O         -30.7290   -1.8780   24.7210 O.3     1  UNL1       -0.2162
     26 C         -26.3540    0.5760   25.7770 C.2     1  UNL1        0.1931
     27 F         -25.8600   -0.6810   25.7950 F       1  UNL1       -0.1992
     28 C         -22.2030    2.0981   26.7123 C.2     1  UNL1        0.2532
     29 C         -21.5263    0.7528   28.3235 C.2     1  UNL1        0.4065
     30 C         -24.1089    0.5113   28.2761 C.2     1  UNL1        0.0413
     31 C         -25.2584   -0.1233   29.0039 C.3     1  UNL1        0.2438
     32 C         -22.7910    0.3067   28.7202 C.2     1  UNL1        0.0964
     33 F         -22.6880    2.8736   25.7556 F       1  UNL1       -0.2003
     34 O         -25.6835   -0.7737   27.9255 O.3     1  UNL1       -0.1900
     35 O         -26.0462    1.1452   29.2345 O.3     1  UNL1       -0.3271
     36 C         -23.1928    1.9708   26.5539 C.2     1  UNL1        0.1843
     37 C         -24.3678    1.3505   27.0946 C.2     1  UNL1        0.0345
     38 C         -28.3326    2.2084   29.6665 C.3     1  UNL1        0.1414
     39 C         -27.4666    1.0287   29.2082 C.3     1  UNL1        0.1655
     40 N         -20.4582    0.1663   28.9094 N.pl3   1  UNL1        0.2140
     41 N         -28.4431    2.1789   31.1510 N.3     1  UNL1       -0.1286
     42 N         -21.2188    1.6742   27.3701 N.pl3   1  UNL1        0.0022
@<TRIPOS>BOND
     1     1    31    1
     2     2     7    1
     3     2     1    1
     4     3     2    2
     5     4     3    1
     6     4     5    2
     7     5     6    1
     8     6     7    2
     9     8     1    1
    10     8     9    1
    11     8    12    1
    12     9    10    1
    13    10    11    1
    14    12    11    1
    15    13    37    1
    16    14    13    1
    17    14    15    1
    18    15    18    2
    19    16    17    1
    20    16    15    1
    21    19    14    2
    22    20    21    2
    23    20    19    1
    24    21    26    1
    25    22    21    1
    26    23    22    1
    27    24    23    1
    28    24    25    1
    29    26    27    1
    30    26    13    2
    31    28    42    1
    32    29    32    2
    33    29    40    1
    34    30    32    1
    35    30    31    1
    36    31    34    1
    37    31    35    1
    38    33    36    1
    39    36    28    2
    40    36    37    1
    41    37    30    2
    42    38    41    1
    43    39    35    1
    44    39    38    1
    45    42    29    1
