@<TRIPOS>MOLECULE
outputs/IAG933/test6/raw/output_7961_IAG933_linker_design_.xyz
 43 47 0 0 0
SMALL
GASTEIGER

@<TRIPOS>ATOM
      1 C         -24.8550   -1.0120   30.1430 C.3     1  UNL1        0.0992
      2 C         -24.9730   -2.5050   29.7880 C.2     1  UNL1       -0.0063
      3 C         -23.9060   -3.1730   29.1460 C.2     1  UNL1       -0.0029
      4 C         -23.9890   -4.5490   28.8530 C.2     1  UNL1       -0.0003
      5 C         -25.1370   -5.2800   29.2050 C.2     1  UNL1       -0.0000
      6 C         -26.2320   -4.6110   29.7840 C.2     1  UNL1       -0.0003
      7 C         -26.1550   -3.2320   30.0650 C.2     1  UNL1       -0.0029
      8 C         -25.3870   -0.6790   31.5710 C.3     1  UNL1        0.0917
      9 C         -25.1890    0.7730   32.0280 C.3     1  UNL1        0.0231
     10 C         -25.3360    0.6840   33.5440 C.3     1  UNL1        0.0204
     11 C         -24.8290   -0.7150   33.9050 C.3     1  UNL1        0.0888
     12 N         -24.7580   -1.4810   32.6460 N.3     1  UNL1       -0.2178
     13 C         -25.6880    1.6140   26.4610 C.2     1  UNL1        0.0320
     14 C         -26.2500    2.9200   26.3950 C.2     1  UNL1        0.0739
     15 C         -25.6420    4.0930   27.1230 C.2     1  UNL1        0.2662
     16 N         -25.6140    5.2520   26.4490 N.am    1  UNL1       -0.1997
     17 C         -25.0260    6.4790   26.9630 C.3     1  UNL1        0.1388
     18 O         -25.1430    3.9660   28.2430 O.2     1  UNL1       -0.2683
     19 C         -27.4380    3.0910   25.6450 C.2     1  UNL1        0.1065
     20 N         -28.0750    2.0890   25.0030 N.2     1  UNL1       -0.2081
     21 C         -27.5430    0.8490   25.0790 C.2     1  UNL1        0.2530
     22 O         -28.1930   -0.2080   24.4770 O.2     1  UNL1       -0.4558
     23 C         -29.4600    0.0050   23.8660 C.3     1  UNL1        0.2426
     24 C         -30.0650   -1.3770   23.5730 C.3     1  UNL1        0.2292
     25 O         -30.7290   -1.8780   24.7210 O.3     1  UNL1       -0.2162
     26 C         -26.3540    0.5760   25.7770 C.2     1  UNL1        0.1904
     27 F         -25.8600   -0.6810   25.7950 F       1  UNL1       -0.1995
     28 C         -24.7349    1.6946   29.8503 C.3     1  UNL1        0.2139
     29 O         -26.0509    1.8831   29.3351 O.3     1  UNL1       -0.2049
     30 C         -23.4342    0.1744   28.5157 C.3     1  UNL1        0.1238
     31 C         -21.5040    1.4815   27.4166 C.3     1  UNL1        0.2077
     32 O         -19.7631    0.2394   28.7796 O.3     1  UNL1       -0.2203
     33 N         -24.4609    0.2776   29.5893 N.3     1  UNL1       -0.2325
     34 O         -23.4657    3.3203   25.0821 O.co2   1  UNL1       -0.2441
     35 C         -24.4010    1.2633   27.1761 C.3     1  UNL1        0.1032
     36 O         -20.3394    2.4194   27.2151 O.3     1  UNL1       -0.2183
     37 N         -23.6320    1.1336   27.5235 N.3     1  UNL1       -0.2468
     38 C         -21.9795   -0.1727   29.0987 C.3     1  UNL1        0.0685
     39 C         -22.7168    1.5128   26.7619 C.3     1  UNL1        0.1963
     40 C         -23.0416    1.9785   25.4377 C.2     1  UNL1        0.3816
     41 C         -24.3873    1.8565   31.3036 C.3     1  UNL1        0.0516
     42 O         -23.0154    1.1473   24.4553 O.co2   1  UNL1       -0.2441
     43 C         -20.9305    0.1797   28.1619 C.3     1  UNL1        0.1868
@<TRIPOS>BOND
     1     1     2    1
     2     1     8    1
     3     2     7    1
     4     3     2    2
     5     4     3    1
     6     4     5    2
     7     5     6    1
     8     6     7    2
     9     8     9    1
    10     8    12    1
    11     9    41    1
    12     9    10    1
    13    10    11    1
    14    12    11    1
    15    13    35    1
    16    14    13    1
    17    14    15    1
    18    15    18    2
    19    16    17    1
    20    16    15    1
    21    19    14    2
    22    20    21    2
    23    20    19    1
    24    21    26    1
    25    22    21    1
    26    23    22    1
    27    24    23    1
    28    24    25    1
    29    26    27    1
    30    26    13    2
    31    28    29    1
    32    28    41    1
    33    30    38    1
    34    31    36    1
    35    31    43    1
    36    33    30    1
    37    33    28    1
    38    33     1    1
    39    34    40   ar
    40    35    37    1
    41    37    30    1
    42    39    40    1
    43    39    31    1
    44    39    37    1
    45    42    40   ar
    46    43    32    1
    47    43    38    1
