@<TRIPOS>MOLECULE
outputs/IAG933/test6/raw/output_7962_IAG933_linker_design_.xyz
 42 45 0 0 0
SMALL
GASTEIGER

@<TRIPOS>ATOM
      1 C         -24.8550   -1.0120   30.1430 C.3     1  UNL1        0.1110
      2 C         -24.9730   -2.5050   29.7880 C.2     1  UNL1       -0.0051
      3 C         -23.9060   -3.1730   29.1460 C.2     1  UNL1       -0.0029
      4 C         -23.9890   -4.5490   28.8530 C.2     1  UNL1       -0.0003
      5 C         -25.1370   -5.2800   29.2050 C.2     1  UNL1       -0.0000
      6 C         -26.2320   -4.6110   29.7840 C.2     1  UNL1       -0.0003
      7 C         -26.1550   -3.2320   30.0650 C.2     1  UNL1       -0.0029
      8 C         -25.3870   -0.6790   31.5710 C.3     1  UNL1        0.0929
      9 C         -25.1890    0.7730   32.0280 C.3     1  UNL1        0.0206
     10 C         -25.3360    0.6840   33.5440 C.3     1  UNL1        0.0203
     11 C         -24.8290   -0.7150   33.9050 C.3     1  UNL1        0.0888
     12 N         -24.7580   -1.4810   32.6460 N.3     1  UNL1       -0.2177
     13 C         -25.6880    1.6140   26.4610 C.2     1  UNL1        0.0505
     14 C         -26.2500    2.9200   26.3950 C.2     1  UNL1        0.0770
     15 C         -25.6420    4.0930   27.1230 C.2     1  UNL1        0.2664
     16 N         -25.6140    5.2520   26.4490 N.am    1  UNL1       -0.1997
     17 C         -25.0260    6.4790   26.9630 C.3     1  UNL1        0.1388
     18 O         -25.1430    3.9660   28.2430 O.2     1  UNL1       -0.2683
     19 C         -27.4380    3.0910   25.6450 C.2     1  UNL1        0.1067
     20 N         -28.0750    2.0890   25.0030 N.2     1  UNL1       -0.2081
     21 C         -27.5430    0.8490   25.0790 C.2     1  UNL1        0.2533
     22 O         -28.1930   -0.2080   24.4770 O.2     1  UNL1       -0.4558
     23 C         -29.4600    0.0050   23.8660 C.3     1  UNL1        0.2426
     24 C         -30.0650   -1.3770   23.5730 C.3     1  UNL1        0.2292
     25 O         -30.7290   -1.8780   24.7210 O.3     1  UNL1       -0.2162
     26 C         -26.3540    0.5760   25.7770 C.2     1  UNL1        0.1935
     27 F         -25.8600   -0.6810   25.7950 F       1  UNL1       -0.1992
     28 O         -23.0868    2.1538   29.1122 O.3     1  UNL1       -0.4437
     29 C         -21.3989    0.8739   27.7732 C.3     1  UNL1        0.2103
     30 O         -23.4624    1.1709   24.9984 O.2     1  UNL1       -0.4439
     31 O         -25.4313    1.7478   29.1948 O.2     1  UNL1       -0.2447
     32 C         -22.3506    0.9476   28.7835 C.3     1  UNL1        0.2271
     33 C         -24.3116    1.5040   27.1323 C.2     1  UNL1        0.1493
     34 C         -24.3567    1.8608   28.4808 C.2     1  UNL1        0.3476
     35 N         -23.7400   -0.2248   29.8381 N.3     1  UNL1       -0.2086
     36 C         -23.3036    2.3797   24.5067 C.3     1  UNL1        0.2558
     37 O         -21.6974    1.2314   26.6409 O.2     1  UNL1       -0.4479
     38 C         -20.0511    0.4039   28.3490 C.3     1  UNL1        0.0513
     39 C         -23.1193    1.3271   26.3449 C.2     1  UNL1        0.2983
     40 C         -21.6107   -0.9781   29.5365 C.3     1  UNL1        0.2031
     41 O         -21.2554   -1.8966   28.6061 O.3     1  UNL1       -0.2187
     42 CA        -22.6772    0.0271   29.8424 C.3     1  UNL1        0.1496
@<TRIPOS>BOND
     1     1    35    1
     2     2     7    1
     3     2     1    1
     4     3     2    2
     5     4     3    1
     6     4     5    2
     7     5     6    1
     8     6     7    2
     9     8     1    1
    10     8     9    1
    11     8    12    1
    12     9    10    1
    13    10    11    1
    14    12    11    1
    15    13    33    1
    16    14    13    1
    17    14    15    1
    18    15    18    2
    19    16    17    1
    20    16    15    1
    21    19    14    2
    22    20    21    2
    23    20    19    1
    24    21    26    1
    25    22    21    1
    26    23    22    1
    27    24    23    1
    28    24    25    1
    29    26    27    1
    30    26    13    2
    31    29    38    1
    32    29    32    1
    33    30    39    1
    34    32    28    1
    35    32    42    1
    36    33    34    1
    37    34    28    1
    38    34    31    2
    39    35    42    1
    40    36    30    1
    41    37    29    1
    42    39    37    1
    43    39    33    2
    44    41    40    1
    45    42    40    1
