@<TRIPOS>MOLECULE
outputs/IAG933/test6/raw/output_7964_IAG933_linker_design_.xyz
 44 48 0 0 0
SMALL
GASTEIGER

@<TRIPOS>ATOM
      1 C         -24.8550   -1.0120   30.1430 C.3     1  UNL1        0.2040
      2 C         -24.9730   -2.5050   29.7880 C.2     1  UNL1        0.0186
      3 C         -23.9060   -3.1730   29.1460 C.2     1  UNL1       -0.0008
      4 C         -23.9890   -4.5490   28.8530 C.2     1  UNL1       -0.0002
      5 C         -25.1370   -5.2800   29.2050 C.2     1  UNL1       -0.0000
      6 C         -26.2320   -4.6110   29.7840 C.2     1  UNL1       -0.0002
      7 C         -26.1550   -3.2320   30.0650 C.2     1  UNL1       -0.0008
      8 C         -25.3870   -0.6790   31.5710 C.3     1  UNL1        0.1170
      9 C         -25.1890    0.7730   32.0280 C.3     1  UNL1        0.0229
     10 C         -25.3360    0.6840   33.5440 C.3     1  UNL1        0.0204
     11 C         -24.8290   -0.7150   33.9050 C.3     1  UNL1        0.0888
     12 N         -24.7580   -1.4810   32.6460 N.3     1  UNL1       -0.2154
     13 C         -25.6880    1.6140   26.4610 C.2     1  UNL1        0.0407
     14 C         -26.2500    2.9200   26.3950 C.2     1  UNL1        0.0745
     15 C         -25.6420    4.0930   27.1230 C.2     1  UNL1        0.2253
     16 N         -25.6140    5.2520   26.4490 N.2     1  UNL1       -0.2356
     17 C         -25.0260    6.4790   26.9630 C.3     1  UNL1        0.1550
     18 O         -25.1430    3.9660   28.2430 O.2     1  UNL1       -0.4233
     19 C         -27.4380    3.0910   25.6450 C.2     1  UNL1        0.1068
     20 N         -28.0750    2.0890   25.0030 N.2     1  UNL1       -0.2081
     21 C         -27.5430    0.8490   25.0790 C.2     1  UNL1        0.2533
     22 O         -28.1930   -0.2080   24.4770 O.2     1  UNL1       -0.4558
     23 C         -29.4600    0.0050   23.8660 C.3     1  UNL1        0.2426
     24 C         -30.0650   -1.3770   23.5730 C.3     1  UNL1        0.2292
     25 O         -30.7290   -1.8780   24.7210 O.3     1  UNL1       -0.2162
     26 C         -26.3540    0.5760   25.7770 C.2     1  UNL1        0.1931
     27 F         -25.8600   -0.6810   25.7950 F       1  UNL1       -0.1992
     28 C         -21.8193    0.3699   28.8222 C.2     1  UNL1        0.0424
     29 O         -23.7288   -0.2213   30.1308 O.2     1  UNL1       -0.4703
     30 C         -23.3209    2.3934   27.6341 C.2     1  UNL1        0.0698
     31 C         -25.9441    3.2795   29.2270 C.3     1  UNL1        0.3673
     32 C         -22.0890    2.0051   27.0847 C.2     1  UNL1        0.1434
     33 C         -21.2765    1.0814   27.7259 C.2     1  UNL1        0.0330
     34 C         -23.9185    1.6987   28.7387 C.2     1  UNL1        0.1786
     35 F         -21.6782    2.4717   25.8835 F       1  UNL1       -0.2041
     36 C         -23.1718    0.6151   29.2283 C.2     1  UNL1        0.1729
     37 C         -26.1729    5.3269   33.4407 C.2     1  UNL1       -0.0214
     38 O         -25.2148    1.9682   29.3526 O.2     1  UNL1       -0.4366
     39 C         -27.6251    3.8343   31.0264 C.2     1  UNL1       -0.0012
     40 C         -27.4379    4.7121   33.3913 C.3     1  UNL1        0.0520
     41 C         -25.2348    5.4270   32.4103 C.2     1  UNL1       -0.0043
     42 C         -26.2941    4.0875   30.4997 C.2     1  UNL1        0.0609
     43 C         -28.1278    4.1665   32.2924 C.2     1  UNL1       -0.0215
     44 C         -25.2949    4.8479   31.1494 C.2     1  UNL1        0.0027
@<TRIPOS>BOND
     1     1    29    1
     2     2     7    1
     3     2     1    1
     4     3     2    2
     5     4     3    1
     6     4     5    2
     7     5     6    1
     8     6     7    2
     9     8     1    1
    10     8     9    1
    11     8    12    1
    12     9    10    1
    13    10    11    1
    14    12    11    1
    15    14    13    1
    16    14    15    1
    17    15    18    1
    18    16    17    1
    19    16    15    2
    20    19    14    2
    21    20    21    2
    22    20    19    1
    23    21    26    1
    24    22    21    1
    25    23    22    1
    26    24    23    1
    27    24    25    1
    28    26    27    1
    29    26    13    2
    30    28    36    1
    31    30    34    1
    32    31    18    1
    33    31    38    1
    34    31    42    1
    35    32    30    2
    36    32    33    1
    37    33    28    2
    38    34    36    2
    39    34    38    1
    40    35    32    1
    41    36    29    1
    42    39    43    2
    43    40    37    1
    44    41    37    2
    45    42    39    1
    46    42    44    2
    47    43    40    1
    48    44    41    1
