@<TRIPOS>MOLECULE
No_797-gen_results/8p0m/2024-11-27-11-27-31/
 16 17 0 0 0
SMALL
GASTEIGER

@<TRIPOS>ATOM
      1 C         -28.0162   -0.8135   28.8779 C.ar    1  UNL1        0.0369
      2 C         -27.0636   -0.1190   28.6079 C.ar    1  UNL1        0.1384
      3 C         -25.7923   -0.4302   29.0761 C.ar    1  UNL1        0.0369
      4 C         -25.5756   -1.5654   29.9363 C.ar    1  UNL1        0.0031
      5 C         -26.7354   -2.3004   30.2173 C.ar    1  UNL1        0.0002
      6 C         -27.9184   -1.9537   29.7629 C.ar    1  UNL1        0.0031
      7 O         -27.1229    1.0229   27.8500 O.3     1  UNL1       -0.4788
      8 C         -26.6157    1.8989   27.6272 C.3     1  UNL1        0.1704
      9 C         -25.4095    1.8295   26.7866 C.3     1  UNL1        0.0714
     10 C         -24.2077    1.5517   27.4674 C.ar    1  UNL1        0.0006
     11 C         -23.4786    2.7252   28.0519 C.ar    1  UNL1        0.0947
     12 C         -23.6373    0.2661   27.4997 C.ar    1  UNL1       -0.0010
     13 C         -22.3185    0.4277   28.2962 C.ar    1  UNL1        0.0204
     14 N         -22.3318    2.5755   28.7465 N.ar    1  UNL1       -0.2426
     15 C         -21.7758    1.4449   28.8769 C.ar    1  UNL1        0.0989
     16 C         -27.4745    3.1535   27.3594 C.3     1  UNL1        0.0476
@<TRIPOS>BOND
     1     2     7    1
     2     7     8    1
     3     8     9    1
     4     9    10    1
     5     8    16    1
     6     1     2   ar
     7     2     3   ar
     8     3     4   ar
     9     4     5   ar
    10     5     6   ar
    11     6     1   ar
    12    10    11   ar
    13    11    14   ar
    14    14    15   ar
    15    15    13   ar
    16    13    12   ar
    17    12    10   ar
