@<TRIPOS>MOLECULE
outputs/IAG933/test6/raw/output_7975_IAG933_linker_design_.xyz
 41 44 0 0 0
SMALL
GASTEIGER

@<TRIPOS>ATOM
      1 C         -24.8550   -1.0120   30.1430 C.3     1  UNL1        0.0966
      2 C         -24.9730   -2.5050   29.7880 C.2     1  UNL1       -0.0064
      3 C         -23.9060   -3.1730   29.1460 C.2     1  UNL1       -0.0029
      4 C         -23.9890   -4.5490   28.8530 C.2     1  UNL1       -0.0003
      5 C         -25.1370   -5.2800   29.2050 C.2     1  UNL1       -0.0000
      6 C         -26.2320   -4.6110   29.7840 C.2     1  UNL1       -0.0003
      7 C         -26.1550   -3.2320   30.0650 C.2     1  UNL1       -0.0029
      8 C         -25.3870   -0.6790   31.5710 C.3     1  UNL1        0.0916
      9 C         -25.1890    0.7730   32.0280 C.3     1  UNL1        0.0206
     10 C         -25.3360    0.6840   33.5440 C.3     1  UNL1        0.0203
     11 C         -24.8290   -0.7150   33.9050 C.3     1  UNL1        0.0888
     12 N         -24.7580   -1.4810   32.6460 N.3     1  UNL1       -0.2178
     13 C         -25.6880    1.6140   26.4610 C.3     1  UNL1        0.0936
     14 C         -26.2500    2.9200   26.3950 C.2     1  UNL1        0.0589
     15 C         -25.6420    4.0930   27.1230 C.2     1  UNL1        0.2628
     16 N         -25.6140    5.2520   26.4490 N.am    1  UNL1       -0.2000
     17 C         -25.0260    6.4790   26.9630 C.3     1  UNL1        0.1388
     18 O         -25.1430    3.9660   28.2430 O.2     1  UNL1       -0.2686
     19 C         -27.4380    3.0910   25.6450 C.2     1  UNL1        0.1025
     20 N         -28.0750    2.0890   25.0030 N.2     1  UNL1       -0.2118
     21 C         -27.5430    0.8490   25.0790 C.2     1  UNL1        0.2344
     22 O         -28.1930   -0.2080   24.4770 O.2     1  UNL1       -0.4585
     23 C         -29.4600    0.0050   23.8660 C.3     1  UNL1        0.2423
     24 C         -30.0650   -1.3770   23.5730 C.3     1  UNL1        0.2292
     25 O         -30.7290   -1.8780   24.7210 O.3     1  UNL1       -0.2162
     26 C         -26.3540    0.5760   25.7770 C.3     1  UNL1        0.2440
     27 F         -25.8600   -0.6810   25.7950 F       1  UNL1       -0.2265
     28 C         -21.6171    0.8542   27.8067 C.2     1  UNL1        0.2388
     29 C         -22.7539    0.3591   28.4533 C.2     1  UNL1        0.1319
     30 N         -25.7595   -0.0511   29.3357 N.3     1  UNL1       -0.2632
     31 C         -25.1574   -0.1855   28.1166 C.3     1  UNL1        0.1007
     32 N         -21.8612    1.7764   26.7639 N.2     1  UNL1       -0.2157
     33 C         -24.2279    1.4703   26.8178 C.2     1  UNL1        0.0029
     34 C         -26.8970    1.0105   29.3444 C.3     1  UNL1        0.1058
     35 F         -20.3655    0.5909   28.1517 F       1  UNL1       -0.1817
     36 C         -28.3436    0.4244   29.3186 C.3     1  UNL1        0.1680
     37 C         -23.9595    0.5503   27.7998 C.2     1  UNL1        0.0124
     38 O         -28.1818   -0.9755   29.0115 O.3     1  UNL1       -0.2217
     39 C         -23.0752    2.0579   26.2476 C.2     1  UNL1        0.0972
     40 C         -29.0363    0.6743   30.6884 C.3     1  UNL1        0.0370
     41 N         -22.5362   -0.2007   29.7114 N.pl3   1  UNL1       -0.1243
@<TRIPOS>BOND
     1     1    30    1
     2     2     7    1
     3     2     1    1
     4     3     2    2
     5     4     3    1
     6     4     5    2
     7     5     6    1
     8     6     7    2
     9     8     1    1
    10     8     9    1
    11     8    12    1
    12     9    10    1
    13    10    11    1
    14    12    11    1
    15    13    33    1
    16    14    13    1
    17    14    15    1
    18    15    18    2
    19    16    17    1
    20    16    15    1
    21    19    14    2
    22    20    21    2
    23    20    19    1
    24    21    26    1
    25    22    21    1
    26    23    22    1
    27    24    23    1
    28    24    25    1
    29    26    27    1
    30    26    13    1
    31    28    35    1
    32    28    29    1
    33    29    41    1
    34    30    34    1
    35    31    30    1
    36    32    28    2
    37    33    37    1
    38    36    34    1
    39    36    40    1
    40    37    31    1
    41    37    29    2
    42    38    36    1
    43    39    32    1
    44    39    33    2
