@<TRIPOS>MOLECULE
outputs/IAG933/test6/raw/output_798_IAG933_linker_design_.xyz
 46 51 0 0 0
SMALL
GASTEIGER

@<TRIPOS>ATOM
      1 C         -24.8550   -1.0120   30.1430 C.3     1  UNL1        0.0572
      2 C         -24.9730   -2.5050   29.7880 C.2     1  UNL1       -0.0197
      3 C         -23.9060   -3.1730   29.1460 C.2     1  UNL1       -0.0042
      4 C         -23.9890   -4.5490   28.8530 C.2     1  UNL1       -0.0003
      5 C         -25.1370   -5.2800   29.2050 C.2     1  UNL1       -0.0000
      6 C         -26.2320   -4.6110   29.7840 C.2     1  UNL1       -0.0003
      7 C         -26.1550   -3.2320   30.0650 C.2     1  UNL1       -0.0042
      8 C         -25.3870   -0.6790   31.5710 C.3     1  UNL1        0.0795
      9 C         -25.1890    0.7730   32.0280 C.3     1  UNL1        0.0339
     10 C         -25.3360    0.6840   33.5440 C.3     1  UNL1        0.0216
     11 C         -24.8290   -0.7150   33.9050 C.3     1  UNL1        0.0887
     12 N         -24.7580   -1.4810   32.6460 N.3     1  UNL1       -0.2190
     13 C         -25.6880    1.6140   26.4610 C.3     1  UNL1        0.1134
     14 C         -26.2500    2.9200   26.3950 C.2     1  UNL1        0.0605
     15 C         -25.6420    4.0930   27.1230 C.2     1  UNL1        0.2628
     16 N         -25.6140    5.2520   26.4490 N.am    1  UNL1       -0.2000
     17 C         -25.0260    6.4790   26.9630 C.3     1  UNL1        0.1388
     18 O         -25.1430    3.9660   28.2430 O.2     1  UNL1       -0.2686
     19 C         -27.4380    3.0910   25.6450 C.2     1  UNL1        0.1025
     20 N         -28.0750    2.0890   25.0030 N.2     1  UNL1       -0.2118
     21 C         -27.5430    0.8490   25.0790 C.2     1  UNL1        0.2345
     22 O         -28.1930   -0.2080   24.4770 O.2     1  UNL1       -0.4585
     23 C         -29.4600    0.0050   23.8660 C.3     1  UNL1        0.2423
     24 C         -30.0650   -1.3770   23.5730 C.3     1  UNL1        0.2292
     25 O         -30.7290   -1.8780   24.7210 O.3     1  UNL1       -0.2162
     26 C         -26.3540    0.5760   25.7770 C.3     1  UNL1        0.2456
     27 F         -25.8600   -0.6810   25.7950 F       1  UNL1       -0.2265
     28 O         -22.1940    2.3135   25.9943 O.2     1  UNL1       -0.3242
     29 C         -24.2317    1.6139   26.6437 C.ar    1  UNL1        0.1085
     30 C         -27.5215    4.7746   31.0902 C.3     1  UNL1        0.0161
     31 C         -24.9914    0.0507   29.0791 C.3     1  UNL1        0.1128
     32 N         -25.4315    1.3853   29.5677 N.3     1  UNL1       -0.2175
     33 C         -23.3837    1.0815   27.5101 C.ar    1  UNL1        0.0921
     34 N         -23.5448    2.2961   25.6650 N.ar    1  UNL1       -0.0784
     35 F         -20.9676    1.4888   27.8405 F       1  UNL1       -0.1608
     36 C         -27.1507    3.5419   33.2043 C.3     1  UNL1        0.0161
     37 N         -25.5385    5.2757   32.7174 N.3     1  UNL1       -0.2740
     38 C         -26.3632    4.2788   32.0797 C.3     1  UNL1        0.0468
     39 O         -22.5216    0.0214   29.5418 O.3     1  UNL1       -0.2165
     40 C         -24.3566    4.5643   33.1260 C.3     1  UNL1        0.0721
     41 C         -26.1955    6.0234   33.8314 C.3     1  UNL1        0.0896
     42 C         -24.1087    3.5391   31.9386 C.3     1  UNL1        0.0200
     43 C         -25.5187    3.3273   31.1973 C.3     1  UNL1        0.0309
     44 C         -23.5388    0.1087   28.4933 C.3     1  UNL1        0.1970
     45 C         -22.1089    1.6259   27.1299 C.ar    1  UNL1        0.3129
     46 C         -25.8586    1.7730   30.9537 C.3     1  UNL1        0.0754
@<TRIPOS>BOND
     1     1     2    1
     2     1     8    1
     3     2     7    1
     4     3     2    2
     5     4     3    1
     6     4     5    2
     7     5     6    1
     8     6     7    2
     9     8     9    1
    10     8    12    1
    11     9    10    1
    12    10    11    1
    13    12    11    1
    14    13    29    1
    15    14    13    1
    16    14    15    1
    17    15    18    2
    18    16    17    1
    19    16    15    1
    20    19    14    2
    21    20    21    2
    22    20    19    1
    23    21    26    1
    24    22    21    1
    25    23    22    1
    26    24    23    1
    27    24    25    1
    28    26    27    1
    29    26    13    1
    30    28    45   ar
    31    29    33   ar
    32    30    38    1
    33    31    44    1
    34    31    32    1
    35    31     1    1
    36    33    44    1
    37    34    28   ar
    38    34    29   ar
    39    37    40    1
    40    37    41    1
    41    38    37    1
    42    38    36    1
    43    42    40    1
    44    43    42    1
    45    43    38    1
    46    44    39    1
    47    45    33   ar
    48    45    35    1
    49    46    32    1
    50    46    43    1
    51    46     9    1
