@<TRIPOS>MOLECULE
outputs/IAG933/test6/raw/output_7983_IAG933_linker_design_.xyz
 40 43 0 0 0
SMALL
GASTEIGER

@<TRIPOS>ATOM
      1 C         -24.8550   -1.0120   30.1430 C.3     1  UNL1        0.0699
      2 C         -24.9730   -2.5050   29.7880 C.2     1  UNL1       -0.0186
      3 C         -23.9060   -3.1730   29.1460 C.2     1  UNL1       -0.0042
      4 C         -23.9890   -4.5490   28.8530 C.2     1  UNL1       -0.0003
      5 C         -25.1370   -5.2800   29.2050 C.2     1  UNL1       -0.0000
      6 C         -26.2320   -4.6110   29.7840 C.2     1  UNL1       -0.0003
      7 C         -26.1550   -3.2320   30.0650 C.2     1  UNL1       -0.0042
      8 C         -25.3870   -0.6790   31.5710 C.3     1  UNL1        0.0879
      9 C         -25.1890    0.7730   32.0280 C.3     1  UNL1        0.0976
     10 C         -25.3360    0.6840   33.5440 C.3     1  UNL1        0.0294
     11 C         -24.8290   -0.7150   33.9050 C.3     1  UNL1        0.0892
     12 N         -24.7580   -1.4810   32.6460 N.3     1  UNL1       -0.2185
     13 C         -25.6880    1.6140   26.4610 C.2     1  UNL1        0.0355
     14 C         -26.2500    2.9200   26.3950 C.2     1  UNL1        0.0763
     15 C         -25.6420    4.0930   27.1230 C.2     1  UNL1        0.2664
     16 N         -25.6140    5.2520   26.4490 N.am    1  UNL1       -0.1997
     17 C         -25.0260    6.4790   26.9630 C.3     1  UNL1        0.1388
     18 O         -25.1430    3.9660   28.2430 O.2     1  UNL1       -0.2683
     19 C         -27.4380    3.0910   25.6450 C.2     1  UNL1        0.1067
     20 N         -28.0750    2.0890   25.0030 N.2     1  UNL1       -0.2081
     21 C         -27.5430    0.8490   25.0790 C.2     1  UNL1        0.2533
     22 O         -28.1930   -0.2080   24.4770 O.2     1  UNL1       -0.4558
     23 C         -29.4600    0.0050   23.8660 C.3     1  UNL1        0.2426
     24 C         -30.0650   -1.3770   23.5730 C.3     1  UNL1        0.2292
     25 O         -30.7290   -1.8780   24.7210 O.3     1  UNL1       -0.2162
     26 C         -26.3540    0.5760   25.7770 C.2     1  UNL1        0.1928
     27 F         -25.8600   -0.6810   25.7950 F       1  UNL1       -0.1992
     28 C         -25.2904   -0.0436   28.9806 C.3     1  UNL1        0.1676
     29 C         -24.4810    1.3819   27.1488 C.2     1  UNL1        0.0018
     30 C         -22.3029    1.1525   27.6303 C.2     1  UNL1        0.1738
     31 N         -24.7970    2.2358   30.2380 N.am    1  UNL1       -0.0878
     32 CL        -22.9523    2.3210   25.1173 Cl      1  UNL1       -0.0802
     33 C         -23.0153    0.6947   28.7174 C.2     1  UNL1        0.1519
     34 F         -20.9294    1.2585   27.5363 F       1  UNL1       -0.2013
     35 O         -26.5428    0.0658   28.6616 O.3     1  UNL1       -0.2220
     36 C         -24.8933    2.1971   31.5352 C.2     1  UNL1        0.2617
     37 F         -22.3237    0.2059   29.8145 F       1  UNL1       -0.2061
     38 O         -25.0614    3.0634   32.3043 O.2     1  UNL1       -0.2716
     39 C         -24.3353    0.9279   28.6202 C.3     1  UNL1        0.1064
     40 C         -23.1960    1.6101   26.6642 C.2     1  UNL1        0.0835
@<TRIPOS>BOND
     1     1    28    1
     2     2     7    1
     3     2     1    1
     4     3     2    2
     5     4     3    1
     6     4     5    2
     7     5     6    1
     8     6     7    2
     9     8     1    1
    10     8     9    1
    11     8    12    1
    12     9    36    1
    13     9    10    1
    14    10    11    1
    15    12    11    1
    16    13    29    1
    17    14    13    1
    18    14    15    1
    19    15    18    2
    20    16    17    1
    21    16    15    1
    22    19    14    2
    23    20    21    2
    24    20    19    1
    25    21    26    1
    26    22    21    1
    27    23    22    1
    28    24    23    1
    29    24    25    1
    30    26    27    1
    31    26    13    2
    32    28    35    1
    33    29    39    1
    34    30    33    2
    35    31    36    1
    36    32    40    1
    37    33    37    1
    38    34    30    1
    39    36    38    2
    40    39    33    1
    41    39    28    1
    42    40    29    2
    43    40    30    1
