@<TRIPOS>MOLECULE
outputs/IAG933/test6/raw/output_7987_IAG933_linker_design_.xyz
 46 50 0 0 0
SMALL
GASTEIGER

@<TRIPOS>ATOM
      1 C         -24.8550   -1.0120   30.1430 C.3     1  UNL1        0.0805
      2 C         -24.9730   -2.5050   29.7880 C.2     1  UNL1       -0.0176
      3 C         -23.9060   -3.1730   29.1460 C.2     1  UNL1       -0.0041
      4 C         -23.9890   -4.5490   28.8530 C.2     1  UNL1       -0.0003
      5 C         -25.1370   -5.2800   29.2050 C.2     1  UNL1       -0.0000
      6 C         -26.2320   -4.6110   29.7840 C.2     1  UNL1       -0.0003
      7 C         -26.1550   -3.2320   30.0650 C.2     1  UNL1       -0.0041
      8 C         -25.3870   -0.6790   31.5710 C.3     1  UNL1        0.0804
      9 C         -25.1890    0.7730   32.0280 C.3     1  UNL1        0.0193
     10 C         -25.3360    0.6840   33.5440 C.3     1  UNL1        0.0202
     11 C         -24.8290   -0.7150   33.9050 C.3     1  UNL1        0.0887
     12 N         -24.7580   -1.4810   32.6460 N.3     1  UNL1       -0.2190
     13 C         -25.6880    1.6140   26.4610 C.2     1  UNL1        0.0927
     14 C         -26.2500    2.9200   26.3950 C.2     1  UNL1        0.0903
     15 C         -25.6420    4.0930   27.1230 C.2     1  UNL1        0.2676
     16 N         -25.6140    5.2520   26.4490 N.am    1  UNL1       -0.1997
     17 C         -25.0260    6.4790   26.9630 C.3     1  UNL1        0.1388
     18 O         -25.1430    3.9660   28.2430 O.2     1  UNL1       -0.2683
     19 C         -27.4380    3.0910   25.6450 C.2     1  UNL1        0.1080
     20 N         -28.0750    2.0890   25.0030 N.2     1  UNL1       -0.2080
     21 C         -27.5430    0.8490   25.0790 C.2     1  UNL1        0.2546
     22 O         -28.1930   -0.2080   24.4770 O.2     1  UNL1       -0.4558
     23 C         -29.4600    0.0050   23.8660 C.3     1  UNL1        0.2426
     24 C         -30.0650   -1.3770   23.5730 C.3     1  UNL1        0.2292
     25 O         -30.7290   -1.8780   24.7210 O.3     1  UNL1       -0.2162
     26 C         -26.3540    0.5760   25.7770 C.2     1  UNL1        0.2066
     27 F         -25.8600   -0.6810   25.7950 F       1  UNL1       -0.1979
     28 C         -23.2896    1.9340   26.6501 C.2     1  UNL1        0.2819
     29 F         -21.1183    1.7379   27.5903 F       1  UNL1       -0.1982
     30 C         -28.7088    0.5499   29.7246 C.3     1  UNL1        0.1344
     31 C         -23.0400    0.6378   28.5498 C.2     1  UNL1        0.1205
     32 O         -23.0588    2.7814   25.7456 O.2     1  UNL1       -0.2671
     33 C         -27.4440    1.2635   29.7350 C.2     1  UNL1        0.3191
     34 O         -26.3921    0.7463   29.1158 O.3     1  UNL1       -0.4497
     35 C         -24.3422    0.5729   28.1907 C.3     1  UNL1        0.1618
     36 C         -29.9182    2.7764   29.6019 C.3     1  UNL1        0.1454
     37 N         -24.4780    1.3661   27.0616 N.am    1  UNL1       -0.2435
     38 O         -27.2118    2.3275   30.3591 O.2     1  UNL1       -0.2500
     39 C         -28.6778   -0.7746   28.9182 C.3     1  UNL1        0.1932
     40 C         -22.4306    1.4191   27.5948 C.2     1  UNL1        0.2079
     41 O         -29.4599    3.7545   28.8291 O.3     1  UNL1       -0.3511
     42 C         -30.8525    3.5387   28.7964 C.3     1  UNL1        0.1715
     43 C         -25.3550   -0.2567   28.9036 C.3     1  UNL1        0.1980
     44 N         -22.4240   -0.0170   29.6403 N.pl3   1  UNL1       -0.1284
     45 O         -29.8534   -0.5236   28.0756 O.3     1  UNL1       -0.2198
     46 C         -29.7832    1.4712   30.1378 C.3     1  UNL1        0.0459
@<TRIPOS>BOND
     1     1    43    1
     2     2     7    1
     3     2     1    1
     4     3     2    2
     5     4     3    1
     6     4     5    2
     7     5     6    1
     8     6     7    2
     9     8     1    1
    10     8     9    1
    11     8    12    1
    12     9    10    1
    13    10    11    1
    14    12    11    1
    15    13    37    1
    16    14    13    1
    17    14    15    1
    18    15    18    2
    19    16    17    1
    20    16    15    1
    21    19    14    2
    22    20    21    2
    23    20    19    1
    24    21    26    1
    25    22    21    1
    26    23    22    1
    27    24    23    1
    28    24    25    1
    29    26    27    1
    30    26    13    2
    31    28    37   am
    32    28    40    1
    33    29    40    1
    34    30    39    1
    35    30    33    1
    36    30    46    1
    37    31    44    1
    38    32    28    2
    39    33    38    2
    40    34    33    1
    41    35    31    1
    42    35    43    1
    43    36    46    1
    44    37    35    1
    45    40    31    2
    46    41    36    1
    47    42    41    1
    48    42    36    1
    49    43    34    1
    50    45    39    1
