@<TRIPOS>MOLECULE
outputs/IAG933/test6/raw/output_7988_IAG933_linker_design_.xyz
 43 46 0 0 0
SMALL
GASTEIGER

@<TRIPOS>ATOM
      1 C         -24.8550   -1.0120   30.1430 C.3     1  UNL1        0.1014
      2 C         -24.9730   -2.5050   29.7880 C.2     1  UNL1       -0.0063
      3 C         -23.9060   -3.1730   29.1460 C.2     1  UNL1       -0.0029
      4 C         -23.9890   -4.5490   28.8530 C.2     1  UNL1       -0.0003
      5 C         -25.1370   -5.2800   29.2050 C.2     1  UNL1       -0.0000
      6 C         -26.2320   -4.6110   29.7840 C.2     1  UNL1       -0.0003
      7 C         -26.1550   -3.2320   30.0650 C.2     1  UNL1       -0.0029
      8 C         -25.3870   -0.6790   31.5710 C.3     1  UNL1        0.0917
      9 C         -25.1890    0.7730   32.0280 C.3     1  UNL1        0.0206
     10 C         -25.3360    0.6840   33.5440 C.3     1  UNL1        0.0203
     11 C         -24.8290   -0.7150   33.9050 C.3     1  UNL1        0.0888
     12 N         -24.7580   -1.4810   32.6460 N.3     1  UNL1       -0.2178
     13 C         -25.6880    1.6140   26.4610 C.2     1  UNL1        0.0217
     14 C         -26.2500    2.9200   26.3950 C.2     1  UNL1        0.0728
     15 C         -25.6420    4.0930   27.1230 C.2     1  UNL1        0.2661
     16 N         -25.6140    5.2520   26.4490 N.am    1  UNL1       -0.1997
     17 C         -25.0260    6.4790   26.9630 C.3     1  UNL1        0.1388
     18 O         -25.1430    3.9660   28.2430 O.2     1  UNL1       -0.2683
     19 C         -27.4380    3.0910   25.6450 C.2     1  UNL1        0.1064
     20 N         -28.0750    2.0890   25.0030 N.2     1  UNL1       -0.2081
     21 C         -27.5430    0.8490   25.0790 C.2     1  UNL1        0.2530
     22 O         -28.1930   -0.2080   24.4770 O.2     1  UNL1       -0.4558
     23 C         -29.4600    0.0050   23.8660 C.3     1  UNL1        0.2426
     24 C         -30.0650   -1.3770   23.5730 C.3     1  UNL1        0.2292
     25 O         -30.7290   -1.8780   24.7210 O.3     1  UNL1       -0.2162
     26 C         -26.3540    0.5760   25.7770 C.2     1  UNL1        0.1893
     27 F         -25.8600   -0.6810   25.7950 F       1  UNL1       -0.1996
     28 O         -28.0752   -0.1558   28.0443 O.co2   1  UNL1       -0.2206
     29 N         -26.4945    1.1373   28.9624 N.am    1  UNL1       -0.1502
     30 C         -25.2254    0.9679   28.3602 C.3     1  UNL1        0.1688
     31 F         -21.7817    2.2993   25.3338 F       1  UNL1       -0.2022
     32 C         -22.4749    1.7154   26.3289 C.2     1  UNL1        0.1933
     33 C         -24.7142    1.2533   27.1418 C.3     1  UNL1        0.0998
     34 O         -27.8451   -0.2790   30.2204 O.co2   1  UNL1       -0.2206
     35 N         -22.3018    1.3185   28.7769 N.pl3   1  UNL1       -0.1630
     36 C         -21.8867    1.6864   27.5882 C.2     1  UNL1        0.2372
     37 C         -27.5142    0.1880   29.0985 C.2     1  UNL1        0.4641
     38 F         -23.6616    0.5040   25.0691 F       1  UNL1       -0.2294
     39 N         -24.3781   -0.0527   29.2758 N.3     1  UNL1       -0.2077
     40 C         -23.7206    1.1644   26.2169 C.3     1  UNL1        0.2210
     41 F         -20.5480    1.9853   27.5641 F       1  UNL1       -0.1841
     42 F         -22.2280   -0.2888   29.8227 F       1  UNL1       -0.1936
     43 C         -23.0190    0.3982   29.1778 C.3     1  UNL1        0.3229
@<TRIPOS>BOND
     1     1     2    1
     2     2     7    1
     3     3     2    2
     4     4     3    1
     5     4     5    2
     6     5     6    1
     7     6     7    2
     8     8     1    1
     9     8     9    1
    10     8    12    1
    11     9    10    1
    12    10    11    1
    13    12    11    1
    14    14    13    1
    15    14    15    1
    16    15    18    2
    17    16    17    1
    18    16    15    1
    19    19    14    2
    20    20    21    2
    21    20    19    1
    22    21    26    1
    23    22    21    1
    24    23    22    1
    25    24    23    1
    26    24    25    1
    27    26    27    1
    28    26    13    2
    29    28    37   ar
    30    29    37    1
    31    30    29    1
    32    30    39    1
    33    31    32    1
    34    32    36    2
    35    33    13    1
    36    33    30    1
    37    35    43    1
    38    36    35    1
    39    37    34   ar
    40    39     1    1
    41    40    38    1
    42    40    32    1
    43    40    33    1
    44    41    36    1
    45    43    39    1
    46    43    42    1
