@<TRIPOS>MOLECULE
outputs/IAG933/test6/raw/output_7993_IAG933_linker_design_.xyz
 45 49 0 0 0
SMALL
GASTEIGER

@<TRIPOS>ATOM
      1 C         -24.8550   -1.0120   30.1430 C.3     1  UNL1        0.1980
      2 C         -24.9730   -2.5050   29.7880 C.2     1  UNL1        0.0213
      3 C         -23.9060   -3.1730   29.1460 C.2     1  UNL1       -0.0004
      4 C         -23.9890   -4.5490   28.8530 C.2     1  UNL1       -0.0002
      5 C         -25.1370   -5.2800   29.2050 C.2     1  UNL1       -0.0000
      6 C         -26.2320   -4.6110   29.7840 C.2     1  UNL1       -0.0002
      7 C         -26.1550   -3.2320   30.0650 C.2     1  UNL1       -0.0004
      8 C         -25.3870   -0.6790   31.5710 C.3     1  UNL1        0.1197
      9 C         -25.1890    0.7730   32.0280 C.3     1  UNL1        0.0233
     10 C         -25.3360    0.6840   33.5440 C.3     1  UNL1        0.0204
     11 C         -24.8290   -0.7150   33.9050 C.3     1  UNL1        0.0889
     12 N         -24.7580   -1.4810   32.6460 N.3     1  UNL1       -0.2150
     13 C         -25.6880    1.6140   26.4610 C.2     1  UNL1        0.0312
     14 C         -26.2500    2.9200   26.3950 C.2     1  UNL1        0.0734
     15 C         -25.6420    4.0930   27.1230 C.2     1  UNL1        0.2661
     16 N         -25.6140    5.2520   26.4490 N.am    1  UNL1       -0.1997
     17 C         -25.0260    6.4790   26.9630 C.3     1  UNL1        0.1388
     18 O         -25.1430    3.9660   28.2430 O.2     1  UNL1       -0.2683
     19 C         -27.4380    3.0910   25.6450 C.2     1  UNL1        0.1064
     20 N         -28.0750    2.0890   25.0030 N.2     1  UNL1       -0.2081
     21 C         -27.5430    0.8490   25.0790 C.2     1  UNL1        0.2530
     22 O         -28.1930   -0.2080   24.4770 O.2     1  UNL1       -0.4558
     23 C         -29.4600    0.0050   23.8660 C.3     1  UNL1        0.2426
     24 C         -30.0650   -1.3770   23.5730 C.3     1  UNL1        0.2292
     25 O         -30.7290   -1.8780   24.7210 O.3     1  UNL1       -0.2162
     26 C         -26.3540    0.5760   25.7770 C.2     1  UNL1        0.1900
     27 F         -25.8600   -0.6810   25.7950 F       1  UNL1       -0.1996
     28 C         -30.4882   -3.3719   30.2078 C.3     1  UNL1        0.1422
     29 F         -21.5839    2.3160   25.5317 F       1  UNL1       -0.2090
     30 C         -30.1850   -1.0131   30.0221 C.3     1  UNL1        0.1422
     31 C         -24.5281    0.4692   28.3907 C.2     1  UNL1        0.3023
     32 C         -26.7864    0.5499   28.8123 C.3     1  UNL1        0.1602
     33 C         -29.5087   -0.5080   28.7706 C.3     1  UNL1        0.0336
     34 C         -30.4965    0.3192   27.9139 C.3     1  UNL1        0.0027
     35 O         -29.5865   -2.2890   30.3321 O.3     1  UNL1       -0.3538
     36 C         -21.8691    0.6090   28.8412 C.3     1  UNL1        0.2699
     37 C         -22.3426    1.8402   26.4529 C.2     1  UNL1        0.1188
     38 N         -23.2973    0.3550   29.0016 N.2     1  UNL1       -0.0685
     39 C         -27.9863    1.4153   28.7129 C.3     1  UNL1        0.0506
     40 C         -29.7818   -4.6855   30.3259 C.3     1  UNL1        0.0346
     41 N         -25.4417   -0.0550   29.0952 N.pl3   1  UNL1       -0.1965
     42 C         -21.5280    1.4123   27.5844 C.3     1  UNL1        0.1140
     43 C         -24.6764    1.1816   27.1895 C.3     1  UNL1        0.1538
     44 C         -28.0750    0.0027   29.2366 C.3     1  UNL1        0.0491
     45 C         -23.5670    1.7663   26.3726 C.2     1  UNL1        0.0154
@<TRIPOS>BOND
     1     1    41    1
     2     2     7    1
     3     2     1    1
     4     3     2    2
     5     4     3    1
     6     4     5    2
     7     5     6    1
     8     6     7    2
     9     8     1    1
    10     8     9    1
    11     8    12    1
    12     9    10    1
    13    10    11    1
    14    12    11    1
    15    14    13    1
    16    14    15    1
    17    15    18    2
    18    16    17    1
    19    16    15    1
    20    19    14    2
    21    20    21    2
    22    20    19    1
    23    21    26    1
    24    22    21    1
    25    23    22    1
    26    24    23    1
    27    24    25    1
    28    26    27    1
    29    26    13    2
    30    28    40    1
    31    28    35    1
    32    29    37    1
    33    30    35    1
    34    31    38    2
    35    31    41    1
    36    32    41    1
    37    32    44    1
    38    33    34    1
    39    33    30    1
    40    36    38    1
    41    37    42    1
    42    39    32    1
    43    39    44    1
    44    42    36    1
    45    43    13    1
    46    43    31    1
    47    44    33    1
    48    45    37    2
    49    45    43    1
