@<TRIPOS>MOLECULE
outputs/IAG933/test6/raw/output_7995_IAG933_linker_design_.xyz
 42 46 0 0 0
SMALL
GASTEIGER

@<TRIPOS>ATOM
      1 C         -24.8550   -1.0120   30.1430 C.3     1  UNL1        0.0677
      2 C         -24.9730   -2.5050   29.7880 C.2     1  UNL1       -0.0165
      3 C         -23.9060   -3.1730   29.1460 C.2     1  UNL1       -0.0039
      4 C         -23.9890   -4.5490   28.8530 C.2     1  UNL1       -0.0003
      5 C         -25.1370   -5.2800   29.2050 C.2     1  UNL1       -0.0000
      6 C         -26.2320   -4.6110   29.7840 C.2     1  UNL1       -0.0003
      7 C         -26.1550   -3.2320   30.0650 C.2     1  UNL1       -0.0039
      8 C         -25.3870   -0.6790   31.5710 C.3     1  UNL1        0.0814
      9 C         -25.1890    0.7730   32.0280 C.3     1  UNL1        0.0195
     10 C         -25.3360    0.6840   33.5440 C.3     1  UNL1        0.0203
     11 C         -24.8290   -0.7150   33.9050 C.3     1  UNL1        0.0887
     12 N         -24.7580   -1.4810   32.6460 N.3     1  UNL1       -0.2188
     13 C         -25.6880    1.6140   26.4610 C.2     1  UNL1        0.0404
     14 C         -26.2500    2.9200   26.3950 C.2     1  UNL1        0.0766
     15 C         -25.6420    4.0930   27.1230 C.2     1  UNL1        0.2664
     16 N         -25.6140    5.2520   26.4490 N.am    1  UNL1       -0.1997
     17 C         -25.0260    6.4790   26.9630 C.3     1  UNL1        0.1388
     18 O         -25.1430    3.9660   28.2430 O.2     1  UNL1       -0.2683
     19 C         -27.4380    3.0910   25.6450 C.2     1  UNL1        0.1067
     20 N         -28.0750    2.0890   25.0030 N.2     1  UNL1       -0.2081
     21 C         -27.5430    0.8490   25.0790 C.2     1  UNL1        0.2533
     22 O         -28.1930   -0.2080   24.4770 O.2     1  UNL1       -0.4558
     23 C         -29.4600    0.0050   23.8660 C.3     1  UNL1        0.2426
     24 C         -30.0650   -1.3770   23.5730 C.3     1  UNL1        0.2292
     25 O         -30.7290   -1.8780   24.7210 O.3     1  UNL1       -0.2162
     26 C         -26.3540    0.5760   25.7770 C.2     1  UNL1        0.1931
     27 F         -25.8600   -0.6810   25.7950 F       1  UNL1       -0.1992
     28 C         -28.4243   -0.2613   28.9941 C.2     1  UNL1        0.0217
     29 C         -25.4061   -0.2170   29.0834 C.2     1  UNL1        0.0181
     30 C         -29.1116   -1.5877   29.3821 C.3     1  UNL1        0.1719
     31 N         -22.6900    0.3153   30.2400 N.pl3   1  UNL1       -0.1264
     32 O         -30.5086   -1.2686   29.2776 O.3     1  UNL1       -0.3483
     33 C         -24.3848    0.5793   28.3449 C.2     1  UNL1        0.0240
     34 C         -23.0644    0.5024   28.9034 C.2     1  UNL1        0.1085
     35 C         -26.8748   -0.2800   28.7835 C.1     1  UNL1       -0.1118
     36 C         -21.9046    0.8966   28.0974 C.2     1  UNL1        0.1178
     37 C         -23.2290    1.8577   26.5010 C.2     1  UNL1        0.1385
     38 C         -30.7272    0.1047   28.7330 C.3     1  UNL1        0.1477
     39 C         -29.3814    0.4484   28.0202 C.3     1  UNL1        0.0643
     40 CL        -23.2560    2.8322   25.1579 Cl      1  UNL1       -0.0613
     41 C         -24.4727    1.3196   27.1055 C.2     1  UNL1        0.0326
     42 N         -22.0322    1.5681   26.9826 N.2     1  UNL1       -0.2310
@<TRIPOS>BOND
     1     1    29    1
     2     2     7    1
     3     2     1    1
     4     3     2    2
     5     4     3    1
     6     4     5    2
     7     5     6    1
     8     6     7    2
     9     8     1    1
    10     8     9    1
    11     8    12    1
    12     9    10    1
    13    10    11    1
    14    12    11    1
    15    13    41    1
    16    14    13    1
    17    14    15    1
    18    15    18    2
    19    16    17    1
    20    16    15    1
    21    19    14    2
    22    20    21    2
    23    20    19    1
    24    21    26    1
    25    22    21    1
    26    23    22    1
    27    24    23    1
    28    24    25    1
    29    26    27    1
    30    26    13    2
    31    28    30    1
    32    32    30    1
    33    33    34    1
    34    33    29    1
    35    34    31    1
    36    35    28    2
    37    35    29    2
    38    36    34    2
    39    37    42    2
    40    37    41    1
    41    38    32    1
    42    39    38    1
    43    39    28    1
    44    40    37    1
    45    41    33    2
    46    42    36    1
