@<TRIPOS>MOLECULE
outputs/IAG933/test6/raw/output_7997_IAG933_linker_design_.xyz
 38 43 0 0 0
SMALL
GASTEIGER

@<TRIPOS>ATOM
      1 C         -24.8550   -1.0120   30.1430 C.3     1  UNL1        0.1223
      2 C         -24.9730   -2.5050   29.7880 C.2     1  UNL1       -0.0042
      3 C         -23.9060   -3.1730   29.1460 C.2     1  UNL1       -0.0029
      4 C         -23.9890   -4.5490   28.8530 C.2     1  UNL1       -0.0003
      5 C         -25.1370   -5.2800   29.2050 C.2     1  UNL1       -0.0000
      6 C         -26.2320   -4.6110   29.7840 C.2     1  UNL1       -0.0003
      7 C         -26.1550   -3.2320   30.0650 C.2     1  UNL1       -0.0029
      8 C         -25.3870   -0.6790   31.5710 C.3     1  UNL1        0.0938
      9 C         -25.1890    0.7730   32.0280 C.3     1  UNL1        0.0207
     10 C         -25.3360    0.6840   33.5440 C.3     1  UNL1        0.0203
     11 C         -24.8290   -0.7150   33.9050 C.3     1  UNL1        0.0888
     12 N         -24.7580   -1.4810   32.6460 N.3     1  UNL1       -0.2177
     13 C         -25.6880    1.6140   26.4610 C.3     1  UNL1        0.0875
     14 C         -26.2500    2.9200   26.3950 C.2     1  UNL1        0.0562
     15 C         -25.6420    4.0930   27.1230 C.2     1  UNL1        0.2625
     16 N         -25.6140    5.2520   26.4490 N.am    1  UNL1       -0.2000
     17 C         -25.0260    6.4790   26.9630 C.3     1  UNL1        0.1388
     18 O         -25.1430    3.9660   28.2430 O.2     1  UNL1       -0.2687
     19 C         -27.4380    3.0910   25.6450 C.2     1  UNL1        0.1022
     20 N         -28.0750    2.0890   25.0030 N.2     1  UNL1       -0.2119
     21 C         -27.5430    0.8490   25.0790 C.2     1  UNL1        0.2341
     22 O         -28.1930   -0.2080   24.4770 O.2     1  UNL1       -0.4585
     23 C         -29.4600    0.0050   23.8660 C.3     1  UNL1        0.2423
     24 C         -30.0650   -1.3770   23.5730 C.3     1  UNL1        0.2292
     25 O         -30.7290   -1.8780   24.7210 O.3     1  UNL1       -0.2162
     26 C         -26.3540    0.5760   25.7770 C.3     1  UNL1        0.2414
     27 F         -25.8600   -0.6810   25.7950 F       1  UNL1       -0.2268
     28 C         -23.5464    2.0038   25.1911 C.3     1  UNL1        0.1627
     29 C         -22.1781   -0.3117   29.7565 C.3     1  UNL1        0.1350
     30 C         -23.3620    1.1104   28.3714 C.3     1  UNL1        0.2305
     31 O         -21.1552    1.2380   27.7618 O.3     1  UNL1       -0.3145
     32 O         -24.1185    0.9664   29.2917 O.3     1  UNL1       -0.2651
     33 C         -22.0556    1.6633   26.7861 C.3     1  UNL1        0.3100
     34 O         -22.1596    2.2010   25.4480 O.3     1  UNL1       -0.3161
     35 N         -23.3537    1.5169   27.1805 N.3     1  UNL1       -0.1978
     36 C         -24.2975    1.7009   26.3007 C.3     1  UNL1        0.1012
     37 C         -22.0560    0.7031   28.5951 C.3     1  UNL1        0.1822
     38 N         -23.6693   -0.3604   29.7692 N.3     1  UNL1       -0.1577
@<TRIPOS>BOND
     1     1     2    1
     2     2     7    1
     3     3     2    2
     4     4     3    1
     5     4     5    2
     6     5     6    1
     7     6     7    2
     8     8     1    1
     9     8     9    1
    10     8    12    1
    11     9    10    1
    12    10    11    1
    13    12    11    1
    14    13    14    1
    15    14    15    1
    16    15    18    2
    17    16    17    1
    18    16    15    1
    19    19    14    2
    20    20    21    2
    21    20    19    1
    22    21    26    1
    23    22    21    1
    24    23    22    1
    25    24    23    1
    26    24    25    1
    27    26    27    1
    28    26    13    1
    29    28    34    1
    30    28    36    1
    31    29    38    1
    32    30    37    1
    33    30    32    1
    34    31    37    1
    35    32    38    1
    36    33    34    1
    37    33    35    1
    38    33    31    1
    39    35    30    1
    40    36    13    1
    41    36    35    1
    42    37    29    1
    43    38     1    1
