@<TRIPOS>MOLECULE
outputs/IAG933/test6/raw/output_80_IAG933_linker_design_.xyz
 41 45 0 0 0
SMALL
GASTEIGER

@<TRIPOS>ATOM
      1 C         -24.8550   -1.0120   30.1430 C.3     1  UNL1        0.1001
      2 C         -24.9730   -2.5050   29.7880 C.2     1  UNL1       -0.0139
      3 C         -23.9060   -3.1730   29.1460 C.2     1  UNL1       -0.0038
      4 C         -23.9890   -4.5490   28.8530 C.2     1  UNL1       -0.0003
      5 C         -25.1370   -5.2800   29.2050 C.2     1  UNL1       -0.0000
      6 C         -26.2320   -4.6110   29.7840 C.2     1  UNL1       -0.0003
      7 C         -26.1550   -3.2320   30.0650 C.2     1  UNL1       -0.0038
      8 C         -25.3870   -0.6790   31.5710 C.3     1  UNL1        0.0841
      9 C         -25.1890    0.7730   32.0280 C.3     1  UNL1        0.0196
     10 C         -25.3360    0.6840   33.5440 C.3     1  UNL1        0.0203
     11 C         -24.8290   -0.7150   33.9050 C.3     1  UNL1        0.0887
     12 N         -24.7580   -1.4810   32.6460 N.3     1  UNL1       -0.2187
     13 C         -25.6880    1.6140   26.4610 C.3     1  UNL1        0.0945
     14 C         -26.2500    2.9200   26.3950 C.2     1  UNL1        0.0568
     15 C         -25.6420    4.0930   27.1230 C.2     1  UNL1        0.2625
     16 N         -25.6140    5.2520   26.4490 N.am    1  UNL1       -0.2000
     17 C         -25.0260    6.4790   26.9630 C.3     1  UNL1        0.1388
     18 O         -25.1430    3.9660   28.2430 O.2     1  UNL1       -0.2687
     19 C         -27.4380    3.0910   25.6450 C.2     1  UNL1        0.1022
     20 N         -28.0750    2.0890   25.0030 N.2     1  UNL1       -0.2119
     21 C         -27.5430    0.8490   25.0790 C.2     1  UNL1        0.2342
     22 O         -28.1930   -0.2080   24.4770 O.2     1  UNL1       -0.4585
     23 C         -29.4600    0.0050   23.8660 C.3     1  UNL1        0.2423
     24 C         -30.0650   -1.3770   23.5730 C.3     1  UNL1        0.2292
     25 O         -30.7290   -1.8780   24.7210 O.3     1  UNL1       -0.2162
     26 C         -26.3540    0.5760   25.7770 C.3     1  UNL1        0.2420
     27 F         -25.8600   -0.6810   25.7950 F       1  UNL1       -0.2268
     28 O         -22.6973    3.3729   24.3650 O.2     1  UNL1       -0.2241
     29 C         -22.9272    2.5594   25.3014 C.2     1  UNL1        0.4260
     30 C         -21.2572    1.2757   28.0575 C.2     1  UNL1        0.1743
     31 N         -23.8875    1.8621   25.5016 N.am    1  UNL1       -0.1651
     32 C         -23.7678    0.3380   28.6192 C.2     1  UNL1        0.0358
     33 C         -21.4111    0.3448   29.0447 C.2     1  UNL1        0.0329
     34 C         -24.9661   -0.1070   29.1135 C.2     1  UNL1        0.1779
     35 F         -20.1019    1.9265   27.8555 F       1  UNL1       -0.2010
     36 O         -21.9630    2.3135   26.1778 O.3     1  UNL1       -0.4071
     37 C         -24.4572    1.4957   26.6045 C.3     1  UNL1        0.1313
     38 C         -22.2506    1.6180   27.2058 C.2     1  UNL1        0.1750
     39 C         -22.6930   -0.0744   29.3502 C.2     1  UNL1        0.0051
     40 O         -26.0406    0.1235   28.5548 O.2     1  UNL1       -0.2910
     41 C         -23.5891    1.1526   27.5367 C.2     1  UNL1        0.0377
@<TRIPOS>BOND
     1     1    34    1
     2     2     7    1
     3     2     1    1
     4     3     2    2
     5     4     3    1
     6     4     5    2
     7     5     6    1
     8     6     7    2
     9     8     1    1
    10     8     9    1
    11     8    12    1
    12     9    10    1
    13    10    11    1
    14    12    11    1
    15    13    14    1
    16    13    37    1
    17    14    15    1
    18    15    18    2
    19    16    17    1
    20    16    15    1
    21    19    14    2
    22    20    21    2
    23    20    19    1
    24    21    26    1
    25    22    21    1
    26    23    22    1
    27    24    23    1
    28    24    25    1
    29    26    27    1
    30    26    13    1
    31    28    29    2
    32    29    31    1
    33    29    36    1
    34    30    33    1
    35    32    34    1
    36    32    39    1
    37    33    39    2
    38    35    30    1
    39    36    38    1
    40    37    31    1
    41    37    41    1
    42    38    41    1
    43    38    30    2
    44    40    34    2
    45    41    32    2
