@<TRIPOS>MOLECULE
outputs/IAG933/test6/raw/output_8002_IAG933_linker_design_.xyz
 44 48 0 0 0
SMALL
GASTEIGER

@<TRIPOS>ATOM
      1 C         -24.8550   -1.0120   30.1430 C.3     1  UNL1        0.0591
      2 C         -24.9730   -2.5050   29.7880 C.2     1  UNL1       -0.0195
      3 C         -23.9060   -3.1730   29.1460 C.2     1  UNL1       -0.0042
      4 C         -23.9890   -4.5490   28.8530 C.2     1  UNL1       -0.0003
      5 C         -25.1370   -5.2800   29.2050 C.2     1  UNL1       -0.0000
      6 C         -26.2320   -4.6110   29.7840 C.2     1  UNL1       -0.0003
      7 C         -26.1550   -3.2320   30.0650 C.2     1  UNL1       -0.0042
      8 C         -25.3870   -0.6790   31.5710 C.3     1  UNL1        0.0785
      9 C         -25.1890    0.7730   32.0280 C.3     1  UNL1        0.0192
     10 C         -25.3360    0.6840   33.5440 C.3     1  UNL1        0.0202
     11 C         -24.8290   -0.7150   33.9050 C.3     1  UNL1        0.0887
     12 N         -24.7580   -1.4810   32.6460 N.3     1  UNL1       -0.2191
     13 C         -25.6880    1.6140   26.4610 C.2     1  UNL1        0.0347
     14 C         -26.2500    2.9200   26.3950 C.2     1  UNL1        0.0762
     15 C         -25.6420    4.0930   27.1230 C.2     1  UNL1        0.2664
     16 N         -25.6140    5.2520   26.4490 N.am    1  UNL1       -0.1997
     17 C         -25.0260    6.4790   26.9630 C.3     1  UNL1        0.1388
     18 O         -25.1430    3.9660   28.2430 O.2     1  UNL1       -0.2683
     19 C         -27.4380    3.0910   25.6450 C.2     1  UNL1        0.1067
     20 N         -28.0750    2.0890   25.0030 N.2     1  UNL1       -0.2081
     21 C         -27.5430    0.8490   25.0790 C.2     1  UNL1        0.2533
     22 O         -28.1930   -0.2080   24.4770 O.2     1  UNL1       -0.4558
     23 C         -29.4600    0.0050   23.8660 C.3     1  UNL1        0.2426
     24 C         -30.0650   -1.3770   23.5730 C.3     1  UNL1        0.2292
     25 O         -30.7290   -1.8780   24.7210 O.3     1  UNL1       -0.2162
     26 C         -26.3540    0.5760   25.7770 C.2     1  UNL1        0.1928
     27 F         -25.8600   -0.6810   25.7950 F       1  UNL1       -0.1992
     28 C         -24.4487    1.3535   27.1302 C.2     1  UNL1       -0.0086
     29 F         -21.0786    1.7402   27.8279 F       1  UNL1       -0.2012
     30 C         -22.3524    1.4251   27.6733 C.2     1  UNL1        0.1746
     31 C         -23.2183    1.8629   26.7054 C.2     1  UNL1        0.0289
     32 C         -29.8445    4.1777   29.9614 C.2     1  UNL1        0.0000
     33 O         -22.3629    0.0223   29.5804 O.2     1  UNL1       -0.2886
     34 C         -28.5261    2.3117   30.8735 C.2     1  UNL1        0.0046
     35 C         -28.3884    1.8092   29.5674 C.2     1  UNL1        0.0550
     36 C         -27.6738    0.5598   29.2378 C.2     1  UNL1        0.2648
     37 N         -26.4594    0.8142   28.9217 N.am    1  UNL1       -0.2023
     38 C         -25.2948    0.0061   29.1855 C.3     1  UNL1        0.1123
     39 C         -24.2995    0.5873   28.3126 C.3     1  UNL1        0.1069
     40 C         -22.9922    0.6175   28.5755 C.2     1  UNL1        0.2055
     41 C         -28.9131    2.4810   28.4782 C.2     1  UNL1        0.0046
     42 O         -28.1522   -0.5354   29.2749 O.2     1  UNL1       -0.2684
     43 C         -29.2841    3.4900   31.0606 C.2     1  UNL1        0.0001
     44 C         -29.6167    3.6718   28.6743 C.2     1  UNL1        0.0001
@<TRIPOS>BOND
     1     1    38    1
     2     2     7    1
     3     2     1    1
     4     3     2    2
     5     4     3    1
     6     4     5    2
     7     5     6    1
     8     6     7    2
     9     8     1    1
    10     8     9    1
    11     8    12    1
    12     9    10    1
    13    10    11    1
    14    12    11    1
    15    13    28    1
    16    14    13    1
    17    14    15    1
    18    15    18    2
    19    16    17    1
    20    16    15    1
    21    19    14    2
    22    20    21    2
    23    20    19    1
    24    21    26    1
    25    22    21    1
    26    23    22    1
    27    24    23    1
    28    24    25    1
    29    26    27    1
    30    26    13    2
    31    28    39    1
    32    30    29    1
    33    30    40    2
    34    31    28    2
    35    31    30    1
    36    32    43    1
    37    34    43    2
    38    35    34    1
    39    36    42    2
    40    36    35    1
    41    37    36    1
    42    38    37    1
    43    39    40    1
    44    39    38    1
    45    40    33    1
    46    41    44    1
    47    41    35    2
    48    44    32    2
