@<TRIPOS>MOLECULE
outputs/IAG933/test6/raw/output_8004_IAG933_linker_design_.xyz
 46 50 0 0 0
SMALL
GASTEIGER

@<TRIPOS>ATOM
      1 C         -24.8550   -1.0120   30.1430 C.3     1  UNL1        0.0968
      2 C         -24.9730   -2.5050   29.7880 C.2     1  UNL1       -0.0064
      3 C         -23.9060   -3.1730   29.1460 C.2     1  UNL1       -0.0029
      4 C         -23.9890   -4.5490   28.8530 C.2     1  UNL1       -0.0003
      5 C         -25.1370   -5.2800   29.2050 C.2     1  UNL1       -0.0000
      6 C         -26.2320   -4.6110   29.7840 C.2     1  UNL1       -0.0003
      7 C         -26.1550   -3.2320   30.0650 C.2     1  UNL1       -0.0029
      8 C         -25.3870   -0.6790   31.5710 C.3     1  UNL1        0.0916
      9 C         -25.1890    0.7730   32.0280 C.3     1  UNL1        0.0206
     10 C         -25.3360    0.6840   33.5440 C.3     1  UNL1        0.0203
     11 C         -24.8290   -0.7150   33.9050 C.3     1  UNL1        0.0888
     12 N         -24.7580   -1.4810   32.6460 N.3     1  UNL1       -0.2178
     13 C         -25.6880    1.6140   26.4610 C.2     1  UNL1        0.1827
     14 C         -26.2500    2.9200   26.3950 C.2     1  UNL1        0.1111
     15 C         -25.6420    4.0930   27.1230 C.2     1  UNL1        0.2694
     16 N         -25.6140    5.2520   26.4490 N.am    1  UNL1       -0.1996
     17 C         -25.0260    6.4790   26.9630 C.3     1  UNL1        0.1388
     18 O         -25.1430    3.9660   28.2430 O.2     1  UNL1       -0.2682
     19 C         -27.4380    3.0910   25.6450 C.2     1  UNL1        0.1098
     20 N         -28.0750    2.0890   25.0030 N.2     1  UNL1       -0.2079
     21 C         -27.5430    0.8490   25.0790 C.2     1  UNL1        0.2564
     22 O         -28.1930   -0.2080   24.4770 O.2     1  UNL1       -0.4558
     23 C         -29.4600    0.0050   23.8660 C.3     1  UNL1        0.2426
     24 C         -30.0650   -1.3770   23.5730 C.3     1  UNL1        0.2292
     25 O         -30.7290   -1.8780   24.7210 O.3     1  UNL1       -0.2162
     26 C         -26.3540    0.5760   25.7770 C.2     1  UNL1        0.2272
     27 F         -25.8600   -0.6810   25.7950 F       1  UNL1       -0.1960
     28 C         -22.2973    0.0337   29.2555 C.2     1  UNL1       -0.0019
     29 C         -28.1274    0.4465   28.7922 C.3     1  UNL1        0.0543
     30 C         -23.5815    0.0979   28.6725 C.3     1  UNL1        0.1392
     31 O         -26.6756    3.0221   30.3903 O.3     1  UNL1       -0.4427
     32 C         -26.3359    4.2783   30.9955 C.3     1  UNL1        0.2557
     33 C         -27.9277    2.7644   29.8506 C.2     1  UNL1        0.3445
     34 C         -23.6832    0.8430   27.5254 C.2     1  UNL1        0.1519
     35 N         -25.0009   -0.0375   29.0059 N.3     1  UNL1       -0.2607
     36 C         -30.4792   -0.4407   28.5490 C.3     1  UNL1        0.0322
     37 O         -24.5706    1.2623   27.1725 O.2     1  UNL1       -0.4526
     38 C         -22.2420    1.2391   27.2438 C.2     1  UNL1        0.0893
     39 C         -21.4413    0.8100   28.3152 C.2     1  UNL1        0.0114
     40 C         -29.1467    0.0155   27.9460 C.3     1  UNL1        0.0070
     41 CL        -21.8832    2.3799   25.9494 Cl      1  UNL1       -0.0794
     42 O         -28.5464    4.0604   29.7709 O.2     1  UNL1       -0.2474
     43 C         -26.6002   -0.0264   28.7820 C.3     1  UNL1        0.0760
     44 C         -30.9232    0.3980   29.6522 C.3     1  UNL1        0.1428
     45 C         -28.7622    1.3865   29.7823 C.3     1  UNL1        0.2145
     46 O         -29.8254    1.0095   30.4070 O.3     1  UNL1       -0.3451
@<TRIPOS>BOND
     1     1    35    1
     2     2     7    1
     3     2     1    1
     4     3     2    2
     5     4     3    1
     6     4     5    2
     7     5     6    1
     8     6     7    2
     9     8     1    1
    10     8     9    1
    11     8    12    1
    12     9    10    1
    13    10    11    1
    14    12    11    1
    15    13    37    1
    16    14    13    1
    17    14    15    1
    18    15    18    2
    19    16    17    1
    20    16    15    1
    21    19    14    2
    22    20    21    2
    23    20    19    1
    24    21    26    1
    25    22    21    1
    26    23    22    1
    27    24    23    1
    28    24    25    1
    29    26    27    1
    30    26    13    2
    31    29    43    1
    32    29    45    1
    33    30    35    1
    34    30    28    1
    35    31    32    1
    36    33    31    1
    37    34    30    1
    38    36    44    1
    39    37    34    1
    40    38    34    2
    41    38    39    1
    42    39    28    2
    43    40    36    1
    44    40    29    1
    45    41    38    1
    46    42    33    2
    47    43    35    1
    48    44    46    1
    49    45    33    1
    50    45    46    1
