@<TRIPOS>MOLECULE
outputs/IAG933/test6/raw/output_802_IAG933_linker_design_.xyz
 47 52 0 0 0
SMALL
GASTEIGER

@<TRIPOS>ATOM
      1 C         -24.8550   -1.0120   30.1430 C.3     1  UNL1        0.0440
      2 C         -24.9730   -2.5050   29.7880 C.2     1  UNL1       -0.0208
      3 C         -23.9060   -3.1730   29.1460 C.2     1  UNL1       -0.0042
      4 C         -23.9890   -4.5490   28.8530 C.2     1  UNL1       -0.0003
      5 C         -25.1370   -5.2800   29.2050 C.2     1  UNL1       -0.0000
      6 C         -26.2320   -4.6110   29.7840 C.2     1  UNL1       -0.0003
      7 C         -26.1550   -3.2320   30.0650 C.2     1  UNL1       -0.0042
      8 C         -25.3870   -0.6790   31.5710 C.3     1  UNL1        0.0812
      9 C         -25.1890    0.7730   32.0280 C.3     1  UNL1        0.0426
     10 C         -25.3360    0.6840   33.5440 C.3     1  UNL1        0.0246
     11 C         -24.8290   -0.7150   33.9050 C.3     1  UNL1        0.0891
     12 N         -24.7580   -1.4810   32.6460 N.3     1  UNL1       -0.2188
     13 C         -25.6880    1.6140   26.4610 C.2     1  UNL1        0.0407
     14 C         -26.2500    2.9200   26.3950 C.2     1  UNL1        0.0749
     15 C         -25.6420    4.0930   27.1230 C.2     1  UNL1        0.2287
     16 N         -25.6140    5.2520   26.4490 N.2     1  UNL1       -0.2353
     17 C         -25.0260    6.4790   26.9630 C.3     1  UNL1        0.1550
     18 O         -25.1430    3.9660   28.2430 O.3     1  UNL1       -0.4194
     19 C         -27.4380    3.0910   25.6450 C.2     1  UNL1        0.1068
     20 N         -28.0750    2.0890   25.0030 N.2     1  UNL1       -0.2081
     21 C         -27.5430    0.8490   25.0790 C.2     1  UNL1        0.2533
     22 O         -28.1930   -0.2080   24.4770 O.2     1  UNL1       -0.4558
     23 C         -29.4600    0.0050   23.8660 C.3     1  UNL1        0.2426
     24 C         -30.0650   -1.3770   23.5730 C.3     1  UNL1        0.2292
     25 O         -30.7290   -1.8780   24.7210 O.3     1  UNL1       -0.2162
     26 C         -26.3540    0.5760   25.7770 C.2     1  UNL1        0.1931
     27 F         -25.8600   -0.6810   25.7950 F       1  UNL1       -0.1992
     28 O         -28.1184    4.3470   35.8661 O.3     1  UNL1       -0.2189
     29 C         -21.6566    1.7102   27.5035 C.ar    1  UNL1        0.3553
     30 N         -20.8393    2.3774   26.7867 N.pl3   1  UNL1       -0.0667
     31 C         -28.7891    4.9864   33.0106 C.3     1  UNL1        0.0908
     32 N         -22.1609    0.4190   29.3118 N.ar    1  UNL1       -0.0359
     33 O         -21.1523    0.7241   28.4376 O.2     1  UNL1       -0.3118
     34 N         -22.9209    1.8340   27.6499 N.ar    1  UNL1       -0.1563
     35 C         -24.7916    2.4067   30.1130 C.ar    1  UNL1        0.1225
     36 C         -27.3861    3.5860   34.8989 C.3     1  UNL1        0.1997
     37 C         -25.2577    2.0973   31.3240 C.ar    1  UNL1        0.0106
     38 N         -26.0082    4.0997   30.6490 N.ar    1  UNL1       -0.3016
     39 C         -25.4676    3.5807   29.5738 C.ar    1  UNL1        0.2279
     40 C         -26.7442    5.2933   30.9272 C.3     1  UNL1        0.1101
     41 C         -25.7038    3.2916   31.8083 C.ar    1  UNL1        0.0387
     42 CA        -26.5982    4.5129   34.0304 C.3     1  UNL1        0.1115
     43 C         -23.0153    1.3848   28.9375 C.ar    1  UNL1        0.2811
     44 N         -23.5718    2.0971   29.8150 N.pl3   1  UNL1       -0.1707
     45 C         -25.5986    3.8209   33.0230 C.3     1  UNL1        0.0636
     46 N         -27.6348    5.5535   33.7687 N.3     1  UNL1       -0.2163
     47 C         -28.1554    4.8867   31.5842 C.3     1  UNL1        0.0434
@<TRIPOS>BOND
     1     2     7    1
     2     2     1    1
     3     3     2    2
     4     4     3    1
     5     4     5    2
     6     5     6    1
     7     6     7    2
     8     8     1    1
     9     8     9    1
    10     8    12    1
    11     9    37    1
    12     9    10    1
    13    10    11    1
    14    12    11    1
    15    14    13    1
    16    14    15    1
    17    15    18    1
    18    16    17    1
    19    16    15    2
    20    18    39    1
    21    19    14    2
    22    20    21    2
    23    20    19    1
    24    21    26    1
    25    22    21    1
    26    23    22    1
    27    24    23    1
    28    24    25    1
    29    26    27    1
    30    26    13    2
    31    29    34   ar
    32    29    33   ar
    33    30    29    1
    34    31    46    1
    35    33    32   ar
    36    34    43   ar
    37    35    37   ar
    38    36    28    1
    39    37    41   ar
    40    38    40    1
    41    38    41   ar
    42    39    35   ar
    43    39    38   ar
    44    40    47    1
    45    41    45    1
    46    42    36    1
    47    43    32   ar
    48    43    44    1
    49    44    35    1
    50    45    42    1
    51    46    42    1
    52    47    31    1
