@<TRIPOS>MOLECULE
outputs/IAG933/test6/raw/output_8023_IAG933_linker_design_.xyz
 45 50 0 0 0
SMALL
GASTEIGER

@<TRIPOS>ATOM
      1 C         -24.8550   -1.0120   30.1430 C.3     1  UNL1        0.0437
      2 C         -24.9730   -2.5050   29.7880 C.2     1  UNL1       -0.0208
      3 C         -23.9060   -3.1730   29.1460 C.2     1  UNL1       -0.0042
      4 C         -23.9890   -4.5490   28.8530 C.2     1  UNL1       -0.0003
      5 C         -25.1370   -5.2800   29.2050 C.2     1  UNL1       -0.0000
      6 C         -26.2320   -4.6110   29.7840 C.2     1  UNL1       -0.0003
      7 C         -26.1550   -3.2320   30.0650 C.2     1  UNL1       -0.0042
      8 C         -25.3870   -0.6790   31.5710 C.3     1  UNL1        0.0772
      9 C         -25.1890    0.7730   32.0280 C.3     1  UNL1        0.0192
     10 C         -25.3360    0.6840   33.5440 C.3     1  UNL1        0.0202
     11 C         -24.8290   -0.7150   33.9050 C.3     1  UNL1        0.0887
     12 N         -24.7580   -1.4810   32.6460 N.3     1  UNL1       -0.2191
     13 C         -25.6880    1.6140   26.4610 C.3     1  UNL1        0.0935
     14 C         -26.2500    2.9200   26.3950 C.2     1  UNL1        0.0589
     15 C         -25.6420    4.0930   27.1230 C.2     1  UNL1        0.2628
     16 N         -25.6140    5.2520   26.4490 N.am    1  UNL1       -0.2000
     17 C         -25.0260    6.4790   26.9630 C.3     1  UNL1        0.1388
     18 O         -25.1430    3.9660   28.2430 O.2     1  UNL1       -0.2686
     19 C         -27.4380    3.0910   25.6450 C.2     1  UNL1        0.1025
     20 N         -28.0750    2.0890   25.0030 N.2     1  UNL1       -0.2118
     21 C         -27.5430    0.8490   25.0790 C.2     1  UNL1        0.2344
     22 O         -28.1930   -0.2080   24.4770 O.2     1  UNL1       -0.4585
     23 C         -29.4600    0.0050   23.8660 C.3     1  UNL1        0.2423
     24 C         -30.0650   -1.3770   23.5730 C.3     1  UNL1        0.2292
     25 O         -30.7290   -1.8780   24.7210 O.3     1  UNL1       -0.2162
     26 C         -26.3540    0.5760   25.7770 C.3     1  UNL1        0.2440
     27 F         -25.8600   -0.6810   25.7950 F       1  UNL1       -0.2265
     28 C         -24.2215    5.7357   32.9197 C.3     1  UNL1        0.0175
     29 O         -21.4192    2.0055   26.2584 O.2     1  UNL1       -0.4663
     30 C         -24.2456    1.8817   31.5642 C.3     1  UNL1        0.0192
     31 C         -25.0089    4.9624   33.9524 C.3     1  UNL1        0.0175
     32 C         -25.3767    5.1544   32.5448 C.3     1  UNL1        0.0614
     33 C         -24.6492    3.0062   31.2849 C.3     1  UNL1        0.0803
     34 C         -24.1662    1.6911   26.4758 C.2     1  UNL1        0.0022
     35 C         -23.3519    1.8150   27.6918 C.2     1  UNL1        0.0985
     36 C         -22.1697    2.0282   25.1313 C.3     1  UNL1        0.2317
     37 N         -25.6609    4.0778   31.7706 N.3     1  UNL1       -0.2598
     38 N         -27.5656    5.0539   32.3180 N.3     1  UNL1       -0.2564
     39 C         -26.4940    6.1824   32.3867 C.3     1  UNL1        0.0880
     40 C         -27.8824    4.6119   31.2061 C.3     1  UNL1        0.0908
     41 C         -23.5336    1.7677   25.1959 C.2     1  UNL1        0.0182
     42 C         -24.9966    2.5800   29.8661 C.3     1  UNL1        0.1282
     43 C         -27.2252    4.1203   32.3966 C.3     1  UNL1        0.1494
     44 N         -23.7766    1.9592   29.0935 N.pl3   1  UNL1       -0.2333
     45 C         -21.9442    1.8968   27.5134 C.2     1  UNL1        0.1883
@<TRIPOS>BOND
     1     2     7    1
     2     2     1    1
     3     3     2    2
     4     4     3    1
     5     4     5    2
     6     5     6    1
     7     6     7    2
     8     8     1    1
     9     8     9    1
    10     8    12    1
    11     9    30    1
    12     9    10    1
    13    10    11    1
    14    12    11    1
    15    13    34    1
    16    14    13    1
    17    14    15    1
    18    15    18    2
    19    16    17    1
    20    16    15    1
    21    19    14    2
    22    20    21    2
    23    20    19    1
    24    21    26    1
    25    22    21    1
    26    23    22    1
    27    24    23    1
    28    24    25    1
    29    26    27    1
    30    26    13    1
    31    28    31    1
    32    29    45    1
    33    32    28    1
    34    32    31    1
    35    33    42    1
    36    33    30    1
    37    33    37    1
    38    34    35    1
    39    35    44    1
    40    36    41    1
    41    36    29    1
    42    37    43    1
    43    37    32    1
    44    38    39    1
    45    38    43    1
    46    39    32    1
    47    40    38    1
    48    41    34    2
    49    44    42    1
    50    45    35    2
