@<TRIPOS>MOLECULE
outputs/IAG933/test6/raw/output_8027_IAG933_linker_design_.xyz
 40 43 0 0 0
SMALL
GASTEIGER

@<TRIPOS>ATOM
      1 C         -24.8550   -1.0120   30.1430 C.3     1  UNL1        0.1153
      2 C         -24.9730   -2.5050   29.7880 C.2     1  UNL1       -0.0029
      3 C         -23.9060   -3.1730   29.1460 C.2     1  UNL1       -0.0026
      4 C         -23.9890   -4.5490   28.8530 C.2     1  UNL1       -0.0003
      5 C         -25.1370   -5.2800   29.2050 C.2     1  UNL1       -0.0000
      6 C         -26.2320   -4.6110   29.7840 C.2     1  UNL1       -0.0003
      7 C         -26.1550   -3.2320   30.0650 C.2     1  UNL1       -0.0026
      8 C         -25.3870   -0.6790   31.5710 C.3     1  UNL1        0.0952
      9 C         -25.1890    0.7730   32.0280 C.3     1  UNL1        0.0209
     10 C         -25.3360    0.6840   33.5440 C.3     1  UNL1        0.0203
     11 C         -24.8290   -0.7150   33.9050 C.3     1  UNL1        0.0888
     12 N         -24.7580   -1.4810   32.6460 N.3     1  UNL1       -0.2174
     13 C         -25.6880    1.6140   26.4610 C.3     1  UNL1        0.1447
     14 C         -26.2500    2.9200   26.3950 C.2     1  UNL1        0.0731
     15 C         -25.6420    4.0930   27.1230 C.2     1  UNL1        0.2640
     16 N         -25.6140    5.2520   26.4490 N.am    1  UNL1       -0.1999
     17 C         -25.0260    6.4790   26.9630 C.3     1  UNL1        0.1388
     18 O         -25.1430    3.9660   28.2430 O.2     1  UNL1       -0.2686
     19 C         -27.4380    3.0910   25.6450 C.2     1  UNL1        0.1038
     20 N         -28.0750    2.0890   25.0030 N.2     1  UNL1       -0.2118
     21 C         -27.5430    0.8490   25.0790 C.2     1  UNL1        0.2358
     22 O         -28.1930   -0.2080   24.4770 O.2     1  UNL1       -0.4585
     23 C         -29.4600    0.0050   23.8660 C.3     1  UNL1        0.2423
     24 C         -30.0650   -1.3770   23.5730 C.3     1  UNL1        0.2292
     25 O         -30.7290   -1.8780   24.7210 O.3     1  UNL1       -0.2162
     26 C         -26.3540    0.5760   25.7770 C.3     1  UNL1        0.2581
     27 F         -25.8600   -0.6810   25.7950 F       1  UNL1       -0.2251
     28 O         -23.7460    2.6031   25.5358 O.2     1  UNL1       -0.2431
     29 O         -28.0330   -1.3726   29.1112 O.2     1  UNL1       -0.2748
     30 N         -25.9345   -0.3093   29.2887 N.am    1  UNL1       -0.2586
     31 C         -27.4126   -0.3928   29.0373 C.2     1  UNL1        0.2276
     32 O         -21.7039    1.9552   26.3190 O.3     1  UNL1       -0.4170
     33 C         -21.4632    0.7482   28.4222 C.2     1  UNL1        0.0423
     34 C         -28.0153    0.8314   28.6466 C.3     1  UNL1        0.0949
     35 C         -23.0112    1.9382   26.4877 C.2     1  UNL1        0.3594
     36 C         -22.8465    0.6316   28.4289 C.2     1  UNL1        0.0244
     37 C         -23.6487    1.2571   27.4890 C.2     1  UNL1        0.1265
     38 C         -25.4656    0.7826   28.7635 C.3     1  UNL1        0.1913
     39 C         -21.0025    1.4033   27.3157 C.2     1  UNL1        0.1832
     40 N         -24.8937    1.2029   27.6475 N.pl3   1  UNL1       -0.2800
@<TRIPOS>BOND
     1     1    30    1
     2     2     7    1
     3     2     1    1
     4     3     2    2
     5     4     3    1
     6     4     5    2
     7     5     6    1
     8     6     7    2
     9     8     1    1
    10     8     9    1
    11     8    12    1
    12     9    10    1
    13    10    11    1
    14    12    11    1
    15    13    40    1
    16    14    13    1
    17    14    15    1
    18    15    18    2
    19    16    17    1
    20    16    15    1
    21    19    14    2
    22    20    21    2
    23    20    19    1
    24    21    26    1
    25    22    21    1
    26    23    22    1
    27    24    23    1
    28    24    25    1
    29    26    27    1
    30    26    13    1
    31    28    35    2
    32    31    29    2
    33    31    30   am
    34    32    35    1
    35    32    39    1
    36    33    36    1
    37    34    31    1
    38    35    37    1
    39    37    40    1
    40    37    36    2
    41    38    30    1
    42    39    33    2
    43    40    38    1
