@<TRIPOS>MOLECULE
outputs/IAG933/test6/raw/output_803_IAG933_linker_design_.xyz
 43 48 0 0 0
SMALL
GASTEIGER

@<TRIPOS>ATOM
      1 C         -24.8550   -1.0120   30.1430 C.3     1  UNL1        0.0704
      2 C         -24.9730   -2.5050   29.7880 C.2     1  UNL1       -0.0186
      3 C         -23.9060   -3.1730   29.1460 C.2     1  UNL1       -0.0042
      4 C         -23.9890   -4.5490   28.8530 C.2     1  UNL1       -0.0003
      5 C         -25.1370   -5.2800   29.2050 C.2     1  UNL1       -0.0000
      6 C         -26.2320   -4.6110   29.7840 C.2     1  UNL1       -0.0003
      7 C         -26.1550   -3.2320   30.0650 C.2     1  UNL1       -0.0042
      8 C         -25.3870   -0.6790   31.5710 C.3     1  UNL1        0.0884
      9 C         -25.1890    0.7730   32.0280 C.3     1  UNL1        0.0569
     10 C         -25.3360    0.6840   33.5440 C.3     1  UNL1        0.0302
     11 C         -24.8290   -0.7150   33.9050 C.3     1  UNL1        0.0896
     12 N         -24.7580   -1.4810   32.6460 N.3     1  UNL1       -0.2182
     13 C         -25.6880    1.6140   26.4610 C.3     1  UNL1        0.1621
     14 C         -26.2500    2.9200   26.3950 C.2     1  UNL1        0.0747
     15 C         -25.6420    4.0930   27.1230 C.2     1  UNL1        0.2641
     16 N         -25.6140    5.2520   26.4490 N.am    1  UNL1       -0.1999
     17 C         -25.0260    6.4790   26.9630 C.3     1  UNL1        0.1388
     18 O         -25.1430    3.9660   28.2430 O.2     1  UNL1       -0.2686
     19 C         -27.4380    3.0910   25.6450 C.2     1  UNL1        0.1038
     20 N         -28.0750    2.0890   25.0030 N.2     1  UNL1       -0.2118
     21 C         -27.5430    0.8490   25.0790 C.2     1  UNL1        0.2359
     22 O         -28.1930   -0.2080   24.4770 O.2     1  UNL1       -0.4585
     23 C         -29.4600    0.0050   23.8660 C.3     1  UNL1        0.2423
     24 C         -30.0650   -1.3770   23.5730 C.3     1  UNL1        0.2292
     25 O         -30.7290   -1.8780   24.7210 O.3     1  UNL1       -0.2162
     26 C         -26.3540    0.5760   25.7770 C.3     1  UNL1        0.2598
     27 F         -25.8600   -0.6810   25.7950 F       1  UNL1       -0.2250
     28 C         -21.2919    0.8616   27.5531 C.3     1  UNL1        0.1904
     29 C         -25.1501    0.3993   29.1178 C.3     1  UNL1        0.1691
     30 C         -20.6027    0.1393   28.5601 C.3     1  UNL1        0.0800
     31 O         -20.9488    1.5848   26.3139 O.2     1  UNL1       -0.4718
     32 C         -21.4106   -0.9298   29.0577 C.3     1  UNL1        0.1466
     33 C         -23.1934    1.0741   29.4363 C.3     1  UNL1        0.1496
     34 C         -24.3093    1.4821   29.8131 C.3     1  UNL1        0.1011
     35 N         -24.7897    1.3261   27.4345 N.pl3   1  UNL1       -0.2317
     36 S         -24.3586    2.0106   31.3416 S.3     1  UNL1       -0.1738
     37 C         -22.5840    1.2351   27.9856 C.2     1  UNL1        0.0376
     38 O         -22.5547   -0.1270   29.9156 O.3     1  UNL1       -0.3510
     39 C         -25.3322    3.3460   31.3466 C.3     1  UNL1        0.0591
     40 C         -21.7950    2.1942   25.5494 C.2     1  UNL1        0.1738
     41 O         -26.5042    0.8884   29.0544 O.3     1  UNL1       -0.2218
     42 C         -23.5264    1.5425   27.0964 C.2     1  UNL1        0.0665
     43 C         -23.1555    2.2045   25.9015 C.2     1  UNL1        0.0557
@<TRIPOS>BOND
     1     1     2    1
     2     1     8    1
     3     2     7    1
     4     3     2    2
     5     4     3    1
     6     4     5    2
     7     5     6    1
     8     6     7    2
     9     8     9    1
    10     8    12    1
    11     9    10    1
    12    10    11    1
    13    12    11    1
    14    13    35    1
    15    14    13    1
    16    14    15    1
    17    15    18    2
    18    16    17    1
    19    16    15    1
    20    19    14    2
    21    20    21    2
    22    20    19    1
    23    21    26    1
    24    22    21    1
    25    23    22    1
    26    24    23    1
    27    24    25    1
    28    26    27    1
    29    26    13    1
    30    28    37    1
    31    28    30    1
    32    29    41    1
    33    29    34    1
    34    29     1    1
    35    30    32    1
    36    31    28    1
    37    32    38    1
    38    33    37    1
    39    33    38    1
    40    34    33    1
    41    34    36    1
    42    36    39    1
    43    36     9    1
    44    40    43    2
    45    40    31    1
    46    42    35    1
    47    42    37    2
    48    43    42    1
