@<TRIPOS>MOLECULE
outputs/IAG933/test6/raw/output_8031_IAG933_linker_design_.xyz
 45 49 0 0 0
SMALL
GASTEIGER

@<TRIPOS>ATOM
      1 C         -24.8550   -1.0120   30.1430 C.3     1  UNL1        0.0439
      2 C         -24.9730   -2.5050   29.7880 C.2     1  UNL1       -0.0208
      3 C         -23.9060   -3.1730   29.1460 C.2     1  UNL1       -0.0042
      4 C         -23.9890   -4.5490   28.8530 C.2     1  UNL1       -0.0003
      5 C         -25.1370   -5.2800   29.2050 C.2     1  UNL1       -0.0000
      6 C         -26.2320   -4.6110   29.7840 C.2     1  UNL1       -0.0003
      7 C         -26.1550   -3.2320   30.0650 C.2     1  UNL1       -0.0042
      8 C         -25.3870   -0.6790   31.5710 C.3     1  UNL1        0.0839
      9 C         -25.1890    0.7730   32.0280 C.3     1  UNL1        0.0965
     10 C         -25.3360    0.6840   33.5440 C.3     1  UNL1        0.0272
     11 C         -24.8290   -0.7150   33.9050 C.3     1  UNL1        0.0889
     12 N         -24.7580   -1.4810   32.6460 N.3     1  UNL1       -0.2189
     13 C         -25.6880    1.6140   26.4610 C.3     1  UNL1        0.1622
     14 C         -26.2500    2.9200   26.3950 C.2     1  UNL1        0.0747
     15 C         -25.6420    4.0930   27.1230 C.2     1  UNL1        0.2641
     16 N         -25.6140    5.2520   26.4490 N.am    1  UNL1       -0.1999
     17 C         -25.0260    6.4790   26.9630 C.3     1  UNL1        0.1388
     18 O         -25.1430    3.9660   28.2430 O.2     1  UNL1       -0.2686
     19 C         -27.4380    3.0910   25.6450 C.2     1  UNL1        0.1038
     20 N         -28.0750    2.0890   25.0030 N.2     1  UNL1       -0.2118
     21 C         -27.5430    0.8490   25.0790 C.2     1  UNL1        0.2359
     22 O         -28.1930   -0.2080   24.4770 O.2     1  UNL1       -0.4585
     23 C         -29.4600    0.0050   23.8660 C.3     1  UNL1        0.2423
     24 C         -30.0650   -1.3770   23.5730 C.3     1  UNL1        0.2292
     25 O         -30.7290   -1.8780   24.7210 O.3     1  UNL1       -0.2162
     26 C         -26.3540    0.5760   25.7770 C.3     1  UNL1        0.2598
     27 F         -25.8600   -0.6810   25.7950 F       1  UNL1       -0.2250
     28 N         -24.8846    1.1542   27.3710 N.pl3   1  UNL1       -0.2301
     29 C         -21.5915    2.1395   26.2779 C.2     1  UNL1        0.0014
     30 C         -25.6776    7.1701   32.6739 C.2     1  UNL1        0.0032
     31 O         -25.8925    3.4859   32.4184 O.2     1  UNL1       -0.3296
     32 C         -20.9375    1.9553   27.5144 C.2     1  UNL1        0.0014
     33 C         -27.8032    6.5088   31.7097 C.2     1  UNL1        0.0032
     34 C         -26.2147    4.8675   32.4035 C.2     1  UNL1        0.1829
     35 C         -26.8967    7.4966   32.0972 C.2     1  UNL1        0.0002
     36 C         -23.6706    1.6629   27.4707 C.2     1  UNL1        0.0807
     37 O         -25.7916    2.9897   31.1240 O.3     1  UNL1       -0.1249
     38 C         -25.3651    5.8505   32.8918 C.2     1  UNL1        0.0409
     39 C         -27.4638    5.1852   31.8589 C.2     1  UNL1        0.0409
     40 C         -22.9825    2.0310   26.2841 C.2     1  UNL1        0.0174
     41 C         -23.0685    1.7828   28.5934 C.2     1  UNL1        0.0849
     42 N         -24.1055    1.9063   29.8260 N.pl3   1  UNL1       -0.1839
     43 C         -21.6730    1.7727   28.6872 C.2     1  UNL1        0.0176
     44 C         -24.7903    2.1105   31.2610 C.3     1  UNL1        0.3398
     45 O         -23.7814    2.9047   31.9541 O.3     1  UNL1       -0.1685
@<TRIPOS>BOND
     1     2     7    1
     2     2     1    1
     3     3     2    2
     4     4     3    1
     5     4     5    2
     6     5     6    1
     7     6     7    2
     8     8     1    1
     9     8     9    1
    10     8    12    1
    11     9    44    1
    12     9    10    1
    13    10    11    1
    14    12    11    1
    15    13    28    1
    16    14    13    1
    17    14    15    1
    18    15    18    2
    19    16    17    1
    20    16    15    1
    21    19    14    2
    22    20    21    2
    23    20    19    1
    24    21    26    1
    25    22    21    1
    26    23    22    1
    27    24    23    1
    28    24    25    1
    29    26    27    1
    30    26    13    1
    31    28    36    1
    32    29    40    2
    33    29    32    1
    34    30    38    1
    35    32    43    2
    36    33    39    2
    37    33    35    1
    38    34    31    1
    39    34    38    2
    40    35    30    2
    41    36    41    2
    42    37    44    1
    43    37    31    1
    44    39    34    1
    45    40    36    1
    46    41    43    1
    47    41    42    1
    48    42    44    1
    49    44    45    1
