@<TRIPOS>MOLECULE
outputs/IAG933/test6/raw/output_8033_IAG933_linker_design_.xyz
 41 44 0 0 0
SMALL
GASTEIGER

@<TRIPOS>ATOM
      1 C         -24.8550   -1.0120   30.1430 C.3     1  UNL1        0.0969
      2 C         -24.9730   -2.5050   29.7880 C.2     1  UNL1       -0.0064
      3 C         -23.9060   -3.1730   29.1460 C.2     1  UNL1       -0.0029
      4 C         -23.9890   -4.5490   28.8530 C.2     1  UNL1       -0.0003
      5 C         -25.1370   -5.2800   29.2050 C.2     1  UNL1       -0.0000
      6 C         -26.2320   -4.6110   29.7840 C.2     1  UNL1       -0.0003
      7 C         -26.1550   -3.2320   30.0650 C.2     1  UNL1       -0.0029
      8 C         -25.3870   -0.6790   31.5710 C.3     1  UNL1        0.0916
      9 C         -25.1890    0.7730   32.0280 C.3     1  UNL1        0.0206
     10 C         -25.3360    0.6840   33.5440 C.3     1  UNL1        0.0203
     11 C         -24.8290   -0.7150   33.9050 C.3     1  UNL1        0.0888
     12 N         -24.7580   -1.4810   32.6460 N.3     1  UNL1       -0.2178
     13 C         -25.6880    1.6140   26.4610 C.3     1  UNL1        0.1271
     14 C         -26.2500    2.9200   26.3950 C.2     1  UNL1        0.0620
     15 C         -25.6420    4.0930   27.1230 C.2     1  UNL1        0.2629
     16 N         -25.6140    5.2520   26.4490 N.am    1  UNL1       -0.2000
     17 C         -25.0260    6.4790   26.9630 C.3     1  UNL1        0.1388
     18 O         -25.1430    3.9660   28.2430 O.2     1  UNL1       -0.2686
     19 C         -27.4380    3.0910   25.6450 C.2     1  UNL1        0.1026
     20 N         -28.0750    2.0890   25.0030 N.2     1  UNL1       -0.2118
     21 C         -27.5430    0.8490   25.0790 C.2     1  UNL1        0.2345
     22 O         -28.1930   -0.2080   24.4770 O.2     1  UNL1       -0.4585
     23 C         -29.4600    0.0050   23.8660 C.3     1  UNL1        0.2423
     24 C         -30.0650   -1.3770   23.5730 C.3     1  UNL1        0.2292
     25 O         -30.7290   -1.8780   24.7210 O.3     1  UNL1       -0.2162
     26 C         -26.3540    0.5760   25.7770 C.3     1  UNL1        0.2471
     27 F         -25.8600   -0.6810   25.7950 F       1  UNL1       -0.2264
     28 C         -21.3999    1.9097   26.3910 C.2     1  UNL1        0.0439
     29 C         -23.8781    0.9140   27.7653 C.2     1  UNL1        0.0635
     30 C         -22.3568    2.1437   25.3764 C.2     1  UNL1        0.1791
     31 O         -28.5982   -0.3719   30.3985 O.co2   1  UNL1       -0.2441
     32 C         -24.2922    1.3244   26.5529 C.2     1  UNL1        0.1303
     33 C         -21.4488    1.1099   27.5540 C.2     1  UNL1        0.0451
     34 C         -26.7570    0.5530   29.4291 C.3     1  UNL1        0.1883
     35 O         -23.6486    1.6618   25.4121 O.2     1  UNL1       -0.4544
     36 C         -24.7391    1.2064   28.9683 C.3     1  UNL1        0.1058
     37 O         -22.3772   -0.6364   28.8175 O.2     1  UNL1       -0.2868
     38 C         -22.5783    0.4357   28.0832 C.2     1  UNL1        0.1957
     39 C         -27.9048   -0.3883   29.3654 C.2     1  UNL1        0.3809
     40 N         -25.4505   -0.0648   29.1461 N.3     1  UNL1       -0.2556
     41 O         -28.0857   -1.1228   28.3998 O.co2   1  UNL1       -0.2441
@<TRIPOS>BOND
     1     1    40    1
     2     2     7    1
     3     2     1    1
     4     3     2    2
     5     4     3    1
     6     4     5    2
     7     5     6    1
     8     6     7    2
     9     8     1    1
    10     8     9    1
    11     8    12    1
    12     9    10    1
    13    10    11    1
    14    12    11    1
    15    13    32    1
    16    14    13    1
    17    14    15    1
    18    15    18    2
    19    16    17    1
    20    16    15    1
    21    19    14    2
    22    20    21    2
    23    20    19    1
    24    21    26    1
    25    22    21    1
    26    23    22    1
    27    24    23    1
    28    24    25    1
    29    26    27    1
    30    26    13    1
    31    28    33    1
    32    29    38    1
    33    29    36    1
    34    30    35    1
    35    30    28    2
    36    32    29    2
    37    33    38    2
    38    35    32    1
    39    36    40    1
    40    38    37    1
    41    39    34    1
    42    39    31   ar
    43    40    34    1
    44    41    39   ar
