@<TRIPOS>MOLECULE
outputs/IAG933/test6/raw/output_8036_IAG933_linker_design_.xyz
 41 44 0 0 0
SMALL
GASTEIGER

@<TRIPOS>ATOM
      1 C         -24.8550   -1.0120   30.1430 C.3     1  UNL1        0.1126
      2 C         -24.9730   -2.5050   29.7880 C.2     1  UNL1       -0.0051
      3 C         -23.9060   -3.1730   29.1460 C.2     1  UNL1       -0.0029
      4 C         -23.9890   -4.5490   28.8530 C.2     1  UNL1       -0.0003
      5 C         -25.1370   -5.2800   29.2050 C.2     1  UNL1       -0.0000
      6 C         -26.2320   -4.6110   29.7840 C.2     1  UNL1       -0.0003
      7 C         -26.1550   -3.2320   30.0650 C.2     1  UNL1       -0.0029
      8 C         -25.3870   -0.6790   31.5710 C.3     1  UNL1        0.0929
      9 C         -25.1890    0.7730   32.0280 C.3     1  UNL1        0.0206
     10 C         -25.3360    0.6840   33.5440 C.3     1  UNL1        0.0203
     11 C         -24.8290   -0.7150   33.9050 C.3     1  UNL1        0.0888
     12 N         -24.7580   -1.4810   32.6460 N.3     1  UNL1       -0.2177
     13 C         -25.6880    1.6140   26.4610 C.3     1  UNL1        0.0918
     14 C         -26.2500    2.9200   26.3950 C.2     1  UNL1        0.0589
     15 C         -25.6420    4.0930   27.1230 C.2     1  UNL1        0.2628
     16 N         -25.6140    5.2520   26.4490 N.am    1  UNL1       -0.2000
     17 C         -25.0260    6.4790   26.9630 C.3     1  UNL1        0.1388
     18 O         -25.1430    3.9660   28.2430 O.2     1  UNL1       -0.2686
     19 C         -27.4380    3.0910   25.6450 C.2     1  UNL1        0.1025
     20 N         -28.0750    2.0890   25.0030 N.2     1  UNL1       -0.2118
     21 C         -27.5430    0.8490   25.0790 C.2     1  UNL1        0.2344
     22 O         -28.1930   -0.2080   24.4770 O.2     1  UNL1       -0.4585
     23 C         -29.4600    0.0050   23.8660 C.3     1  UNL1        0.2423
     24 C         -30.0650   -1.3770   23.5730 C.3     1  UNL1        0.2292
     25 O         -30.7290   -1.8780   24.7210 O.3     1  UNL1       -0.2162
     26 C         -26.3540    0.5760   25.7770 C.3     1  UNL1        0.2440
     27 F         -25.8600   -0.6810   25.7950 F       1  UNL1       -0.2265
     28 C         -21.8619    1.6390   26.6675 C.2     1  UNL1       -0.0046
     29 O         -28.8337    0.4066   27.9122 O.3     1  UNL1       -0.2204
     30 C         -23.1710    1.9902   24.6016 C.3     1  UNL1        0.0307
     31 C         -21.7574    1.3461   27.9954 C.2     1  UNL1       -0.0006
     32 C         -28.7386    2.1714   29.3244 C.3     1  UNL1        0.0544
     33 C         -27.3911    2.5746   29.7996 C.3     1  UNL1        0.0932
     34 C         -23.1187    1.7281   26.0833 C.2     1  UNL1       -0.0256
     35 C         -24.2836    1.5414   26.9051 C.2     1  UNL1       -0.0203
     36 C         -24.1417    1.2156   28.2409 C.2     1  UNL1        0.0061
     37 C         -25.3879    1.0003   29.0225 C.3     1  UNL1        0.1685
     38 N         -25.6792   -0.2431   29.2471 N.3     1  UNL1       -0.1939
     39 N         -26.2328    1.9075   29.4021 N.3     1  UNL1       -0.1983
     40 C         -22.8477    1.0981   28.7600 C.2     1  UNL1       -0.0019
     41 C         -28.8001    0.6368   29.2902 C.3     1  UNL1        0.1836
@<TRIPOS>BOND
     1     1    38    1
     2     2     7    1
     3     2     1    1
     4     3     2    2
     5     4     3    1
     6     4     5    2
     7     5     6    1
     8     6     7    2
     9     8     1    1
    10     8     9    1
    11     8    12    1
    12     9    10    1
    13    10    11    1
    14    12    11    1
    15    13    35    1
    16    14    13    1
    17    14    15    1
    18    15    18    2
    19    16    17    1
    20    16    15    1
    21    19    14    2
    22    20    21    2
    23    20    19    1
    24    21    26    1
    25    22    21    1
    26    23    22    1
    27    24    23    1
    28    24    25    1
    29    26    27    1
    30    26    13    1
    31    28    31    1
    32    29    41    1
    33    30    34    1
    34    31    40    2
    35    32    33    1
    36    34    28    2
    37    34    35    1
    38    35    36    2
    39    36    40    1
    40    36    37    1
    41    37    38    1
    42    37    39    1
    43    39    33    1
    44    41    32    1
