@<TRIPOS>MOLECULE
outputs/IAG933/test6/raw/output_8040_IAG933_linker_design_.xyz
 45 49 0 0 0
SMALL
GASTEIGER

@<TRIPOS>ATOM
      1 C         -24.8550   -1.0120   30.1430 C.3     1  UNL1        0.0966
      2 C         -24.9730   -2.5050   29.7880 C.2     1  UNL1       -0.0064
      3 C         -23.9060   -3.1730   29.1460 C.2     1  UNL1       -0.0029
      4 C         -23.9890   -4.5490   28.8530 C.2     1  UNL1       -0.0003
      5 C         -25.1370   -5.2800   29.2050 C.2     1  UNL1       -0.0000
      6 C         -26.2320   -4.6110   29.7840 C.2     1  UNL1       -0.0003
      7 C         -26.1550   -3.2320   30.0650 C.2     1  UNL1       -0.0029
      8 C         -25.3870   -0.6790   31.5710 C.3     1  UNL1        0.0916
      9 C         -25.1890    0.7730   32.0280 C.3     1  UNL1        0.0206
     10 C         -25.3360    0.6840   33.5440 C.3     1  UNL1        0.0203
     11 C         -24.8290   -0.7150   33.9050 C.3     1  UNL1        0.0888
     12 N         -24.7580   -1.4810   32.6460 N.3     1  UNL1       -0.2178
     13 C         -25.6880    1.6140   26.4610 C.2     1  UNL1        0.0169
     14 C         -26.2500    2.9200   26.3950 C.2     1  UNL1        0.0726
     15 C         -25.6420    4.0930   27.1230 C.2     1  UNL1        0.2661
     16 N         -25.6140    5.2520   26.4490 N.am    1  UNL1       -0.1997
     17 C         -25.0260    6.4790   26.9630 C.3     1  UNL1        0.1388
     18 O         -25.1430    3.9660   28.2430 O.2     1  UNL1       -0.2683
     19 C         -27.4380    3.0910   25.6450 C.2     1  UNL1        0.1064
     20 N         -28.0750    2.0890   25.0030 N.2     1  UNL1       -0.2081
     21 C         -27.5430    0.8490   25.0790 C.2     1  UNL1        0.2530
     22 O         -28.1930   -0.2080   24.4770 O.2     1  UNL1       -0.4558
     23 C         -29.4600    0.0050   23.8660 C.3     1  UNL1        0.2426
     24 C         -30.0650   -1.3770   23.5730 C.3     1  UNL1        0.2292
     25 O         -30.7290   -1.8780   24.7210 O.3     1  UNL1       -0.2162
     26 C         -26.3540    0.5760   25.7770 C.2     1  UNL1        0.1891
     27 F         -25.8600   -0.6810   25.7950 F       1  UNL1       -0.1996
     28 C         -29.2895   -1.2686   29.7277 C.2     1  UNL1        0.0383
     29 C         -24.3885    0.8613   28.4808 C.3     1  UNL1        0.0927
     30 C         -23.0310    0.2159   28.8455 C.3     1  UNL1        0.1668
     31 C         -29.0216   -3.0020   31.4226 C.2     1  UNL1        0.0024
     32 O         -29.1182    0.7655   28.9306 O.2     1  UNL1       -0.2899
     33 C         -30.5362   -1.7090   29.4225 C.2     1  UNL1        0.0325
     34 C         -31.0233   -2.8315   30.1078 C.2     1  UNL1        0.1402
     35 C         -28.4918   -0.1085   29.0497 C.2     1  UNL1        0.1892
     36 C         -21.8728    0.6545   27.9027 C.3     1  UNL1        0.0343
     37 C         -26.8586   -0.1942   28.4862 C.3     1  UNL1        0.1426
     38 C         -22.0246    1.9903   27.0698 C.3     1  UNL1        0.0030
     39 F         -32.2254   -3.2754   29.8785 F       1  UNL1       -0.2042
     40 C         -30.2676   -3.5016   31.0687 C.2     1  UNL1        0.0296
     41 C         -28.5225   -1.9020   30.7353 C.2     1  UNL1        0.0030
     42 N         -25.3704   -0.0844   29.0730 N.3     1  UNL1       -0.2613
     43 C         -23.3411    1.9248   26.2126 C.3     1  UNL1        0.0059
     44 C         -24.3404    1.2347   27.0503 C.3     1  UNL1        0.0421
     45 O         -22.8384    0.6188   30.2115 O.3     1  UNL1       -0.2217
@<TRIPOS>BOND
     1     1    42    1
     2     2     7    1
     3     2     1    1
     4     3     2    2
     5     4     3    1
     6     4     5    2
     7     5     6    1
     8     6     7    2
     9     8     1    1
    10     8     9    1
    11     8    12    1
    12     9    10    1
    13    10    11    1
    14    12    11    1
    15    14    13    1
    16    14    15    1
    17    15    18    2
    18    16    17    1
    19    16    15    1
    20    19    14    2
    21    20    21    2
    22    20    19    1
    23    21    26    1
    24    22    21    1
    25    23    22    1
    26    24    23    1
    27    24    25    1
    28    26    27    1
    29    26    13    2
    30    28    41    1
    31    29    30    1
    32    29    42    1
    33    30    45    1
    34    32    35    2
    35    33    28    2
    36    33    34    1
    37    34    40    2
    38    35    28    1
    39    36    30    1
    40    37    35    1
    41    37    42    1
    42    38    36    1
    43    39    34    1
    44    40    31    1
    45    41    31    2
    46    43    44    1
    47    43    38    1
    48    44    13    1
    49    44    29    1
