@<TRIPOS>MOLECULE
outputs/IAG933/test6/raw/output_8042_IAG933_linker_design_.xyz
 45 48 0 0 0
SMALL
GASTEIGER

@<TRIPOS>ATOM
      1 C         -24.8550   -1.0120   30.1430 C.3     1  UNL1        0.0724
      2 C         -24.9730   -2.5050   29.7880 C.2     1  UNL1       -0.0161
      3 C         -23.9060   -3.1730   29.1460 C.2     1  UNL1       -0.0039
      4 C         -23.9890   -4.5490   28.8530 C.2     1  UNL1       -0.0003
      5 C         -25.1370   -5.2800   29.2050 C.2     1  UNL1       -0.0000
      6 C         -26.2320   -4.6110   29.7840 C.2     1  UNL1       -0.0003
      7 C         -26.1550   -3.2320   30.0650 C.2     1  UNL1       -0.0039
      8 C         -25.3870   -0.6790   31.5710 C.3     1  UNL1        0.0818
      9 C         -25.1890    0.7730   32.0280 C.3     1  UNL1        0.0196
     10 C         -25.3360    0.6840   33.5440 C.3     1  UNL1        0.0203
     11 C         -24.8290   -0.7150   33.9050 C.3     1  UNL1        0.0887
     12 N         -24.7580   -1.4810   32.6460 N.3     1  UNL1       -0.2188
     13 C         -25.6880    1.6140   26.4610 C.2     1  UNL1        0.0169
     14 C         -26.2500    2.9200   26.3950 C.2     1  UNL1        0.0726
     15 C         -25.6420    4.0930   27.1230 C.2     1  UNL1        0.2661
     16 N         -25.6140    5.2520   26.4490 N.am    1  UNL1       -0.1997
     17 C         -25.0260    6.4790   26.9630 C.3     1  UNL1        0.1388
     18 O         -25.1430    3.9660   28.2430 O.2     1  UNL1       -0.2683
     19 C         -27.4380    3.0910   25.6450 C.2     1  UNL1        0.1064
     20 N         -28.0750    2.0890   25.0030 N.2     1  UNL1       -0.2081
     21 C         -27.5430    0.8490   25.0790 C.2     1  UNL1        0.2530
     22 O         -28.1930   -0.2080   24.4770 O.2     1  UNL1       -0.4558
     23 C         -29.4600    0.0050   23.8660 C.3     1  UNL1        0.2426
     24 C         -30.0650   -1.3770   23.5730 C.3     1  UNL1        0.2292
     25 O         -30.7290   -1.8780   24.7210 O.3     1  UNL1       -0.2162
     26 C         -26.3540    0.5760   25.7770 C.2     1  UNL1        0.1891
     27 F         -25.8600   -0.6810   25.7950 F       1  UNL1       -0.1996
     28 C         -25.2585    0.7230   28.4943 C.3     1  UNL1        0.1167
     29 C         -28.2890    2.6255   30.2916 C.3     1  UNL1        0.2059
     30 N         -27.1959    2.1788   29.2590 N.am    1  UNL1       -0.1786
     31 C         -26.7056    0.8578   28.8332 C.2     1  UNL1        0.2483
     32 C         -26.9875    4.6678   30.9632 C.3     1  UNL1        0.0068
     33 O         -27.4857   -0.0944   28.6140 O.2     1  UNL1       -0.2729
     34 O         -28.6977    5.1408   33.0471 O.3     1  UNL1       -0.2203
     35 C         -28.3886    4.0310   30.8496 C.3     1  UNL1        0.0741
     36 C         -29.2856    5.0490   30.1696 C.3     1  UNL1        0.0068
     37 C         -28.9418    3.9723   32.2982 C.3     1  UNL1        0.1860
     38 C         -24.7177    1.2207   27.3207 C.3     1  UNL1        0.0478
     39 O         -28.0036    1.8657   31.2727 O.3     1  UNL1       -0.2034
     40 C         -23.4324    1.4620   26.9933 C.3     1  UNL1        0.0924
     41 N         -22.9952    0.1675   28.9536 N.am    1  UNL1       -0.1871
     42 C         -29.6802    2.3415   29.5427 C.3     1  UNL1        0.0558
     43 C         -22.5635    0.9649   27.9387 C.2     1  UNL1        0.2454
     44 O         -21.2852    1.3321   27.8181 O.2     1  UNL1       -0.2730
     45 C         -24.3644   -0.0273   29.1807 C.2     1  UNL1        0.0426
@<TRIPOS>BOND
     1     1    45    1
     2     2     7    1
     3     2     1    1
     4     3     2    2
     5     4     3    1
     6     4     5    2
     7     5     6    1
     8     6     7    2
     9     8     1    1
    10     8     9    1
    11     8    12    1
    12     9    10    1
    13    10    11    1
    14    12    11    1
    15    14    13    1
    16    14    15    1
    17    15    18    2
    18    16    17    1
    19    16    15    1
    20    19    14    2
    21    20    21    2
    22    20    19    1
    23    21    26    1
    24    22    21    1
    25    23    22    1
    26    24    23    1
    27    24    25    1
    28    26    27    1
    29    26    13    2
    30    28    31    1
    31    28    45    1
    32    29    42    1
    33    29    35    1
    34    29    39    1
    35    30    29    1
    36    31    30    1
    37    33    31    2
    38    35    32    1
    39    35    37    1
    40    36    35    1
    41    37    34    1
    42    38    13    1
    43    38    28    1
    44    40    38    1
    45    40    43    1
    46    41    45    2
    47    43    41    1
    48    44    43    2
