@<TRIPOS>MOLECULE
outputs/IAG933/test6/raw/output_8047_IAG933_linker_design_.xyz
 42 46 0 0 0
SMALL
GASTEIGER

@<TRIPOS>ATOM
      1 C         -24.8550   -1.0120   30.1430 C.3     1  UNL1        0.0946
      2 C         -24.9730   -2.5050   29.7880 C.2     1  UNL1       -0.0162
      3 C         -23.9060   -3.1730   29.1460 C.2     1  UNL1       -0.0041
      4 C         -23.9890   -4.5490   28.8530 C.2     1  UNL1       -0.0003
      5 C         -25.1370   -5.2800   29.2050 C.2     1  UNL1       -0.0000
      6 C         -26.2320   -4.6110   29.7840 C.2     1  UNL1       -0.0003
      7 C         -26.1550   -3.2320   30.0650 C.2     1  UNL1       -0.0041
      8 C         -25.3870   -0.6790   31.5710 C.3     1  UNL1        0.0818
      9 C         -25.1890    0.7730   32.0280 C.3     1  UNL1        0.0194
     10 C         -25.3360    0.6840   33.5440 C.3     1  UNL1        0.0202
     11 C         -24.8290   -0.7150   33.9050 C.3     1  UNL1        0.0887
     12 N         -24.7580   -1.4810   32.6460 N.3     1  UNL1       -0.2190
     13 C         -25.6880    1.6140   26.4610 C.2     1  UNL1        0.0304
     14 C         -26.2500    2.9200   26.3950 C.2     1  UNL1        0.0738
     15 C         -25.6420    4.0930   27.1230 C.2     1  UNL1        0.2662
     16 N         -25.6140    5.2520   26.4490 N.am    1  UNL1       -0.1997
     17 C         -25.0260    6.4790   26.9630 C.3     1  UNL1        0.1388
     18 O         -25.1430    3.9660   28.2430 O.2     1  UNL1       -0.2683
     19 C         -27.4380    3.0910   25.6450 C.2     1  UNL1        0.1065
     20 N         -28.0750    2.0890   25.0030 N.2     1  UNL1       -0.2081
     21 C         -27.5430    0.8490   25.0790 C.2     1  UNL1        0.2530
     22 O         -28.1930   -0.2080   24.4770 O.2     1  UNL1       -0.4558
     23 C         -29.4600    0.0050   23.8660 C.3     1  UNL1        0.2426
     24 C         -30.0650   -1.3770   23.5730 C.3     1  UNL1        0.2292
     25 O         -30.7290   -1.8780   24.7210 O.3     1  UNL1       -0.2162
     26 C         -26.3540    0.5760   25.7770 C.2     1  UNL1        0.1904
     27 F         -25.8600   -0.6810   25.7950 F       1  UNL1       -0.1995
     28 C         -22.3973    1.3455   27.7977 C.3     1  UNL1        0.0178
     29 C         -29.2275   -0.4499   28.6539 C.2     1  UNL1        0.1229
     30 C         -28.0420    0.3406   28.6682 C.2     1  UNL1        0.1568
     31 C         -23.2606    1.2470   26.5515 C.3     1  UNL1        0.0220
     32 C         -29.5460    2.1982   28.0640 C.2     1  UNL1        0.0032
     33 C         -30.4173   -0.0664   27.9491 C.2     1  UNL1        0.0211
     34 C         -23.1224    0.3704   28.6591 C.3     1  UNL1        0.0756
     35 C         -30.5862    1.3061   27.6649 C.2     1  UNL1        0.0016
     36 N         -24.4965    0.2204   28.1018 N.3     1  UNL1       -0.2374
     37 C         -25.4604    0.0440   29.1823 C.3     1  UNL1        0.2337
     38 N         -29.2710   -1.4970   29.5308 N.pl3   1  UNL1       -0.1249
     39 C         -24.6526    1.3257   27.3308 C.3     1  UNL1        0.0856
     40 C         -28.2770    1.7483   28.5879 C.2     1  UNL1        0.0384
     41 C         -20.9325    1.5049   27.4781 C.3     1  UNL1        0.0015
     42 O         -26.8069   -0.3326   28.7737 O.2     1  UNL1       -0.4618
@<TRIPOS>BOND
     1     1    37    1
     2     2     7    1
     3     2     1    1
     4     3     2    2
     5     4     3    1
     6     4     5    2
     7     5     6    1
     8     6     7    2
     9     8     1    1
    10     8     9    1
    11     8    12    1
    12     9    10    1
    13    10    11    1
    14    12    11    1
    15    14    13    1
    16    14    15    1
    17    15    18    2
    18    16    17    1
    19    16    15    1
    20    19    14    2
    21    20    21    2
    22    20    19    1
    23    21    26    1
    24    22    21    1
    25    23    22    1
    26    24    23    1
    27    24    25    1
    28    26    27    1
    29    26    13    2
    30    28    41    1
    31    28    34    1
    32    29    30    1
    33    29    38    1
    34    30    42    1
    35    31    39    1
    36    31    28    1
    37    32    40    1
    38    33    29    2
    39    35    33    1
    40    35    32    2
    41    36    34    1
    42    36    37    1
    43    37    42    1
    44    39    13    1
    45    39    36    1
    46    40    30    2
