@<TRIPOS>MOLECULE
outputs/IAG933/test6/raw/output_8052_IAG933_linker_design_.xyz
 45 49 0 0 0
SMALL
GASTEIGER

@<TRIPOS>ATOM
      1 C         -24.8550   -1.0120   30.1430 C.3     1  UNL1        0.0676
      2 C         -24.9730   -2.5050   29.7880 C.2     1  UNL1       -0.0187
      3 C         -23.9060   -3.1730   29.1460 C.2     1  UNL1       -0.0042
      4 C         -23.9890   -4.5490   28.8530 C.2     1  UNL1       -0.0003
      5 C         -25.1370   -5.2800   29.2050 C.2     1  UNL1       -0.0000
      6 C         -26.2320   -4.6110   29.7840 C.2     1  UNL1       -0.0003
      7 C         -26.1550   -3.2320   30.0650 C.2     1  UNL1       -0.0042
      8 C         -25.3870   -0.6790   31.5710 C.3     1  UNL1        0.0792
      9 C         -25.1890    0.7730   32.0280 C.3     1  UNL1        0.0193
     10 C         -25.3360    0.6840   33.5440 C.3     1  UNL1        0.0202
     11 C         -24.8290   -0.7150   33.9050 C.3     1  UNL1        0.0887
     12 N         -24.7580   -1.4810   32.6460 N.3     1  UNL1       -0.2190
     13 C         -25.6880    1.6140   26.4610 C.3     1  UNL1        0.1437
     14 C         -26.2500    2.9200   26.3950 C.2     1  UNL1        0.0730
     15 C         -25.6420    4.0930   27.1230 C.2     1  UNL1        0.2640
     16 N         -25.6140    5.2520   26.4490 N.am    1  UNL1       -0.1999
     17 C         -25.0260    6.4790   26.9630 C.3     1  UNL1        0.1388
     18 O         -25.1430    3.9660   28.2430 O.2     1  UNL1       -0.2686
     19 C         -27.4380    3.0910   25.6450 C.2     1  UNL1        0.1038
     20 N         -28.0750    2.0890   25.0030 N.2     1  UNL1       -0.2118
     21 C         -27.5430    0.8490   25.0790 C.2     1  UNL1        0.2358
     22 O         -28.1930   -0.2080   24.4770 O.2     1  UNL1       -0.4585
     23 C         -29.4600    0.0050   23.8660 C.3     1  UNL1        0.2423
     24 C         -30.0650   -1.3770   23.5730 C.3     1  UNL1        0.2292
     25 O         -30.7290   -1.8780   24.7210 O.3     1  UNL1       -0.2162
     26 C         -26.3540    0.5760   25.7770 C.3     1  UNL1        0.2580
     27 F         -25.8600   -0.6810   25.7950 F       1  UNL1       -0.2251
     28 C         -31.3245    2.6968   28.4114 C.2     1  UNL1       -0.0012
     29 N         -22.4965   -0.1765   29.6102 N.pl3   1  UNL1       -0.1309
     30 O         -26.6350    1.0011   29.3827 O.3     1  UNL1       -0.3343
     31 C         -21.9481    1.6408   26.5168 C.2     1  UNL1        0.0169
     32 C         -24.1955    0.6469   28.0658 C.3     1  UNL1        0.1403
     33 C         -25.5458   -0.0999   29.0656 C.3     1  UNL1        0.1460
     34 C         -30.5456    2.8449   29.5645 C.3     1  UNL1        0.1337
     35 C         -23.2657    1.7920   26.0672 C.2     1  UNL1        0.0619
     36 C         -29.2644    2.3451   29.5176 C.3     1  UNL1        0.1194
     37 N         -24.3888    1.3465   26.8430 N.pl3   1  UNL1       -0.2960
     38 C         -29.9500    0.7904   27.9448 C.2     1  UNL1        0.2507
     39 C         -31.0160    1.6181   27.5718 C.2     1  UNL1        0.0549
     40 N         -29.0724    1.1870   28.8895 N.am    1  UNL1       -0.2488
     41 C         -28.0075    0.5510   29.5843 C.3     1  UNL1        0.2427
     42 N         -31.0470    3.3084   30.8034 N.3     1  UNL1       -0.1263
     43 C         -22.8969    0.4989   28.4871 C.2     1  UNL1        0.0872
     44 O         -29.8350   -0.4791   27.4452 O.2     1  UNL1       -0.2699
     45 C         -21.7470    0.9805   27.7297 C.2     1  UNL1        0.0167
@<TRIPOS>BOND
     1     1    33    1
     2     2     7    1
     3     2     1    1
     4     3     2    2
     5     4     3    1
     6     4     5    2
     7     5     6    1
     8     6     7    2
     9     8     1    1
    10     8     9    1
    11     8    12    1
    12     9    10    1
    13    10    11    1
    14    12    11    1
    15    13    37    1
    16    14    13    1
    17    14    15    1
    18    15    18    2
    19    16    17    1
    20    16    15    1
    21    19    14    2
    22    20    21    2
    23    20    19    1
    24    21    26    1
    25    22    21    1
    26    23    22    1
    27    24    23    1
    28    24    25    1
    29    26    27    1
    30    26    13    1
    31    28    34    1
    32    30    41    1
    33    31    45    1
    34    32    43    1
    35    32    33    1
    36    33    30    1
    37    34    42    1
    38    35    31    2
    39    35    37    1
    40    36    34    1
    41    37    32    1
    42    38    40   am
    43    39    38    1
    44    39    28    2
    45    40    36    1
    46    40    41    1
    47    43    29    1
    48    44    38    2
    49    45    43    2
