@<TRIPOS>MOLECULE
outputs/IAG933/test6/raw/output_8057_IAG933_linker_design_.xyz
 48 53 0 0 0
SMALL
GASTEIGER

@<TRIPOS>ATOM
      1 C         -24.8550   -1.0120   30.1430 C.3     1  UNL1        0.0411
      2 C         -24.9730   -2.5050   29.7880 C.2     1  UNL1       -0.0211
      3 C         -23.9060   -3.1730   29.1460 C.2     1  UNL1       -0.0042
      4 C         -23.9890   -4.5490   28.8530 C.2     1  UNL1       -0.0003
      5 C         -25.1370   -5.2800   29.2050 C.2     1  UNL1       -0.0000
      6 C         -26.2320   -4.6110   29.7840 C.2     1  UNL1       -0.0003
      7 C         -26.1550   -3.2320   30.0650 C.2     1  UNL1       -0.0042
      8 C         -25.3870   -0.6790   31.5710 C.3     1  UNL1        0.0769
      9 C         -25.1890    0.7730   32.0280 C.3     1  UNL1        0.0192
     10 C         -25.3360    0.6840   33.5440 C.3     1  UNL1        0.0202
     11 C         -24.8290   -0.7150   33.9050 C.3     1  UNL1        0.0887
     12 N         -24.7580   -1.4810   32.6460 N.3     1  UNL1       -0.2191
     13 C         -25.6880    1.6140   26.4610 C.3     1  UNL1        0.0705
     14 C         -26.2500    2.9200   26.3950 C.2     1  UNL1        0.0548
     15 C         -25.6420    4.0930   27.1230 C.2     1  UNL1        0.2624
     16 N         -25.6140    5.2520   26.4490 N.am    1  UNL1       -0.2000
     17 C         -25.0260    6.4790   26.9630 C.3     1  UNL1        0.1388
     18 O         -25.1430    3.9660   28.2430 O.2     1  UNL1       -0.2687
     19 C         -27.4380    3.0910   25.6450 C.2     1  UNL1        0.1021
     20 N         -28.0750    2.0890   25.0030 N.2     1  UNL1       -0.2119
     21 C         -27.5430    0.8490   25.0790 C.2     1  UNL1        0.2341
     22 O         -28.1930   -0.2080   24.4770 O.2     1  UNL1       -0.4585
     23 C         -29.4600    0.0050   23.8660 C.3     1  UNL1        0.2423
     24 C         -30.0650   -1.3770   23.5730 C.3     1  UNL1        0.2292
     25 O         -30.7290   -1.8780   24.7210 O.3     1  UNL1       -0.2162
     26 C         -26.3540    0.5760   25.7770 C.3     1  UNL1        0.2400
     27 F         -25.8600   -0.6810   25.7950 F       1  UNL1       -0.2269
     28 O         -22.3375   -0.6231   29.8906 O.3     1  UNL1       -0.2231
     29 C         -28.2422    2.6771   30.1585 C.2     1  UNL1       -0.0003
     30 C         -27.9134   -0.7542   29.0854 C.2     1  UNL1       -0.0041
     31 C         -21.1481    1.3346   27.7809 C.3     1  UNL1        0.0026
     32 C         -22.6474    1.3267   28.0348 C.3     1  UNL1        0.0305
     33 C         -29.2850   -1.1946   29.2078 C.2     1  UNL1        0.0063
     34 C         -31.3808   -0.7408   28.2492 C.2     1  UNL1        0.3878
     35 C         -30.2101    2.6687   31.6446 C.2     1  UNL1        0.0000
     36 C         -27.5475    0.4768   29.2860 C.2     1  UNL1       -0.0224
     37 C         -28.6042    1.3895   29.7146 C.2     1  UNL1       -0.0038
     38 O         -31.8225   -1.8838   28.5043 O.co2   1  UNL1       -0.2406
     39 C         -25.9774    0.7947   28.5935 C.3     1  UNL1        0.0255
     40 C         -24.7188    0.0291   29.1422 C.3     1  UNL1        0.0399
     41 C         -29.9120    0.9053   29.9616 C.2     1  UNL1        0.0061
     42 C         -24.9979    1.3278   27.4503 C.3     1  UNL1        0.0116
     43 C         -30.6685    1.4862   31.0282 C.2     1  UNL1        0.0002
     44 O         -31.8735   -0.1103   27.2709 O.co2   1  UNL1       -0.2406
     45 C         -23.1782    0.3206   29.1144 C.3     1  UNL1        0.1525
     46 C         -30.2979   -0.2555   29.1183 C.2     1  UNL1        0.0798
     47 C         -29.0340    3.3010   31.1480 C.2     1  UNL1       -0.0000
     48 C         -23.6047    1.0746   26.9011 C.3     1  UNL1        0.0033
@<TRIPOS>BOND
     1     1     2    1
     2     2     7    1
     3     3     2    2
     4     4     3    1
     5     4     5    2
     6     5     6    1
     7     6     7    2
     8     8     1    1
     9     8     9    1
    10     8    12    1
    11     9    10    1
    12    10    11    1
    13    12    11    1
    14    13    14    1
    15    13    42    1
    16    14    15    1
    17    15    18    2
    18    16    17    1
    19    16    15    1
    20    19    14    2
    21    20    21    2
    22    20    19    1
    23    21    26    1
    24    22    21    1
    25    23    22    1
    26    24    23    1
    27    24    25    1
    28    26    27    1
    29    26    13    1
    30    29    47    1
    31    30    33    1
    32    30    36    2
    33    32    31    1
    34    32    45    1
    35    34    38   ar
    36    34    46    1
    37    36    37    1
    38    37    41    1
    39    37    29    2
    40    39    40    1
    41    39    36    1
    42    40     1    1
    43    41    43    2
    44    42    48    1
    45    42    39    1
    46    43    35    1
    47    44    34   ar
    48    45    40    1
    49    45    28    1
    50    46    33    2
    51    46    41    1
    52    47    35    2
    53    48    32    1
