@<TRIPOS>MOLECULE
outputs/IAG933/test6/raw/output_8058_IAG933_linker_design_.xyz
 42 45 0 0 0
SMALL
GASTEIGER

@<TRIPOS>ATOM
      1 C         -24.8550   -1.0120   30.1430 C.3     1  UNL1        0.0860
      2 C         -24.9730   -2.5050   29.7880 C.2     1  UNL1       -0.0170
      3 C         -23.9060   -3.1730   29.1460 C.2     1  UNL1       -0.0041
      4 C         -23.9890   -4.5490   28.8530 C.2     1  UNL1       -0.0003
      5 C         -25.1370   -5.2800   29.2050 C.2     1  UNL1       -0.0000
      6 C         -26.2320   -4.6110   29.7840 C.2     1  UNL1       -0.0003
      7 C         -26.1550   -3.2320   30.0650 C.2     1  UNL1       -0.0041
      8 C         -25.3870   -0.6790   31.5710 C.3     1  UNL1        0.0809
      9 C         -25.1890    0.7730   32.0280 C.3     1  UNL1        0.0193
     10 C         -25.3360    0.6840   33.5440 C.3     1  UNL1        0.0202
     11 C         -24.8290   -0.7150   33.9050 C.3     1  UNL1        0.0887
     12 N         -24.7580   -1.4810   32.6460 N.3     1  UNL1       -0.2190
     13 C         -25.6880    1.6140   26.4610 C.2     1  UNL1        0.0556
     14 C         -26.2500    2.9200   26.3950 C.2     1  UNL1        0.0780
     15 C         -25.6420    4.0930   27.1230 C.2     1  UNL1        0.2665
     16 N         -25.6140    5.2520   26.4490 N.am    1  UNL1       -0.1997
     17 C         -25.0260    6.4790   26.9630 C.3     1  UNL1        0.1388
     18 O         -25.1430    3.9660   28.2430 O.2     1  UNL1       -0.2683
     19 C         -27.4380    3.0910   25.6450 C.2     1  UNL1        0.1068
     20 N         -28.0750    2.0890   25.0030 N.2     1  UNL1       -0.2081
     21 C         -27.5430    0.8490   25.0790 C.2     1  UNL1        0.2533
     22 O         -28.1930   -0.2080   24.4770 O.2     1  UNL1       -0.4558
     23 C         -29.4600    0.0050   23.8660 C.3     1  UNL1        0.2426
     24 C         -30.0650   -1.3770   23.5730 C.3     1  UNL1        0.2292
     25 O         -30.7290   -1.8780   24.7210 O.3     1  UNL1       -0.2162
     26 C         -26.3540    0.5760   25.7770 C.2     1  UNL1        0.1945
     27 F         -25.8600   -0.6810   25.7950 F       1  UNL1       -0.1992
     28 N         -20.7882    1.4239   27.8466 N.pl3   1  UNL1       -0.1226
     29 C         -22.9193    0.5343   28.5417 C.ar    1  UNL1        0.1106
     30 C         -27.9466    2.0992   31.3015 C.3     1  UNL1        0.0189
     31 N         -26.1632    1.7368   29.5910 N.3     1  UNL1       -0.1900
     32 F         -21.5939    2.2479   25.5605 F       1  UNL1       -0.1817
     33 C         -22.4354    1.6385   26.4293 C.ar    1  UNL1        0.2404
     34 C         -22.0541    1.1852   27.6577 C.ar    1  UNL1        0.1513
     35 C         -24.3680    0.6261   28.3233 C.ar    1  UNL1        0.0567
     36 C         -27.5824    4.2503   30.1847 C.3     1  UNL1        0.0189
     37 C         -25.6311    0.3024   29.1332 C.3     1  UNL1        0.2126
     38 C         -24.5551    1.1311   27.1253 C.ar    1  UNL1        0.0872
     39 N         -22.3952   -0.2614   29.5604 N.pl3   1  UNL1       -0.1267
     40 N         -23.5913    1.4398   26.0748 N.ar    1  UNL1       -0.2169
     41 C         -27.2369    2.7422   30.1030 C.3     1  UNL1        0.0756
     42 O         -26.6183   -0.4679   28.6739 O.3     1  UNL1       -0.2026
@<TRIPOS>BOND
     1     1    37    1
     2     2     7    1
     3     2     1    1
     4     3     2    2
     5     4     3    1
     6     4     5    2
     7     5     6    1
     8     6     7    2
     9     8     1    1
    10     8     9    1
    11     8    12    1
    12     9    10    1
    13    10    11    1
    14    12    11    1
    15    13    38    1
    16    14    13    1
    17    14    15    1
    18    15    18    2
    19    16    17    1
    20    16    15    1
    21    19    14    2
    22    20    21    2
    23    20    19    1
    24    21    26    1
    25    22    21    1
    26    23    22    1
    27    24    23    1
    28    24    25    1
    29    26    27    1
    30    26    13    2
    31    29    39    1
    32    31    41    1
    33    32    33    1
    34    33    34   ar
    35    34    28    1
    36    34    29   ar
    37    35    29   ar
    38    35    37    1
    39    37    42    1
    40    37    31    1
    41    38    35   ar
    42    40    33   ar
    43    40    38   ar
    44    41    36    1
    45    41    30    1
