@<TRIPOS>MOLECULE
outputs/IAG933/test6/raw/output_8065_IAG933_linker_design_.xyz
 45 48 0 0 0
SMALL
GASTEIGER

@<TRIPOS>ATOM
      1 C         -24.8550   -1.0120   30.1430 C.3     1  UNL1        0.0826
      2 C         -24.9730   -2.5050   29.7880 C.2     1  UNL1       -0.0175
      3 C         -23.9060   -3.1730   29.1460 C.2     1  UNL1       -0.0041
      4 C         -23.9890   -4.5490   28.8530 C.2     1  UNL1       -0.0003
      5 C         -25.1370   -5.2800   29.2050 C.2     1  UNL1       -0.0000
      6 C         -26.2320   -4.6110   29.7840 C.2     1  UNL1       -0.0003
      7 C         -26.1550   -3.2320   30.0650 C.2     1  UNL1       -0.0041
      8 C         -25.3870   -0.6790   31.5710 C.3     1  UNL1        0.0804
      9 C         -25.1890    0.7730   32.0280 C.3     1  UNL1        0.0193
     10 C         -25.3360    0.6840   33.5440 C.3     1  UNL1        0.0202
     11 C         -24.8290   -0.7150   33.9050 C.3     1  UNL1        0.0887
     12 N         -24.7580   -1.4810   32.6460 N.3     1  UNL1       -0.2190
     13 C         -25.6880    1.6140   26.4610 C.3     1  UNL1        0.2839
     14 C         -26.2500    2.9200   26.3950 C.2     1  UNL1        0.1035
     15 C         -25.6420    4.0930   27.1230 C.2     1  UNL1        0.2665
     16 N         -25.6140    5.2520   26.4490 N.am    1  UNL1       -0.1999
     17 C         -25.0260    6.4790   26.9630 C.3     1  UNL1        0.1388
     18 O         -25.1430    3.9660   28.2430 O.2     1  UNL1       -0.2685
     19 C         -27.4380    3.0910   25.6450 C.2     1  UNL1        0.1064
     20 N         -28.0750    2.0890   25.0030 N.2     1  UNL1       -0.2116
     21 C         -27.5430    0.8490   25.0790 C.2     1  UNL1        0.2387
     22 O         -28.1930   -0.2080   24.4770 O.2     1  UNL1       -0.4584
     23 C         -29.4600    0.0050   23.8660 C.3     1  UNL1        0.2423
     24 C         -30.0650   -1.3770   23.5730 C.3     1  UNL1        0.2292
     25 O         -30.7290   -1.8780   24.7210 O.3     1  UNL1       -0.2162
     26 C         -26.3540    0.5760   25.7770 C.3     1  UNL1        0.2887
     27 F         -25.8600   -0.6810   25.7950 F       1  UNL1       -0.2221
     28 C         -23.0690    0.1760   28.7826 C.3     1  UNL1        0.2463
     29 C         -23.3609    1.7065   26.7587 C.2     1  UNL1        0.2956
     30 C         -22.9226    2.6536   25.6748 C.3     1  UNL1        0.1294
     31 C         -29.2053    1.6526   30.0867 C.3     1  UNL1        0.0841
     32 C         -29.1822    0.4617   32.2755 C.3     1  UNL1        0.0771
     33 N         -24.5075    1.4638   26.8162 N.2     1  UNL1       -0.0659
     34 C         -27.0471    0.5093   29.4100 C.2     1  UNL1        0.3184
     35 N         -29.8472    1.3147   31.3395 N.3     1  UNL1       -0.2681
     36 C         -31.5067    1.8556   32.6529 C.2     1  UNL1       -0.0133
     37 O         -25.8227    0.7766   28.7291 O.3     1  UNL1       -0.4475
     38 C         -31.2611    0.7126   33.3991 C.2     1  UNL1       -0.0279
     39 C         -27.6562    1.6382   30.2533 C.3     1  UNL1        0.1268
     40 C         -29.9371    0.1802   33.4568 C.3     1  UNL1        0.0431
     41 N         -22.5003    1.0898   27.8215 N.pl3   1  UNL1       -0.1874
     42 C         -21.1001    1.4036   27.7722 C.3     1  UNL1        0.2533
     43 C         -24.6440   -0.1239   28.8733 C.3     1  UNL1        0.2204
     44 C         -30.4782    2.4727   31.9518 C.3     1  UNL1        0.0986
     45 O         -27.6931   -0.5681   29.0933 O.2     1  UNL1       -0.2501
@<TRIPOS>BOND
     1     1    43    1
     2     2     7    1
     3     2     1    1
     4     3     2    2
     5     4     3    1
     6     4     5    2
     7     5     6    1
     8     6     7    2
     9     8     1    1
    10     8     9    1
    11     8    12    1
    12     9    10    1
    13    10    11    1
    14    12    11    1
    15    13    33    1
    16    14    13    1
    17    14    15    1
    18    15    18    2
    19    16    17    1
    20    16    15    1
    21    19    14    2
    22    20    21    2
    23    20    19    1
    24    21    26    1
    25    22    21    1
    26    23    22    1
    27    24    23    1
    28    24    25    1
    29    26    27    1
    30    26    13    1
    31    29    33    2
    32    29    41    1
    33    30    29    1
    34    31    39    1
    35    31    35    1
    36    32    40    1
    37    34    39    1
    38    35    44    1
    39    35    32    1
    40    36    38    2
    41    37    43    1
    42    37    34    1
    43    38    40    1
    44    41    28    1
    45    42    41    1
    46    43    28    1
    47    44    36    1
    48    45    34    2
