@<TRIPOS>MOLECULE
outputs/IAG933/test6/raw/output_8069_IAG933_linker_design_.xyz
 43 47 0 0 0
SMALL
GASTEIGER

@<TRIPOS>ATOM
      1 C         -24.8550   -1.0120   30.1430 C.3     1  UNL1        0.1140
      2 C         -24.9730   -2.5050   29.7880 C.2     1  UNL1       -0.0049
      3 C         -23.9060   -3.1730   29.1460 C.2     1  UNL1       -0.0029
      4 C         -23.9890   -4.5490   28.8530 C.2     1  UNL1       -0.0003
      5 C         -25.1370   -5.2800   29.2050 C.2     1  UNL1       -0.0000
      6 C         -26.2320   -4.6110   29.7840 C.2     1  UNL1       -0.0003
      7 C         -26.1550   -3.2320   30.0650 C.2     1  UNL1       -0.0029
      8 C         -25.3870   -0.6790   31.5710 C.3     1  UNL1        0.0932
      9 C         -25.1890    0.7730   32.0280 C.3     1  UNL1        0.0206
     10 C         -25.3360    0.6840   33.5440 C.3     1  UNL1        0.0203
     11 C         -24.8290   -0.7150   33.9050 C.3     1  UNL1        0.0888
     12 N         -24.7580   -1.4810   32.6460 N.3     1  UNL1       -0.2177
     13 C         -25.6880    1.6140   26.4610 C.2     1  UNL1        0.0212
     14 C         -26.2500    2.9200   26.3950 C.2     1  UNL1        0.0729
     15 C         -25.6420    4.0930   27.1230 C.2     1  UNL1        0.2661
     16 N         -25.6140    5.2520   26.4490 N.am    1  UNL1       -0.1997
     17 C         -25.0260    6.4790   26.9630 C.3     1  UNL1        0.1388
     18 O         -25.1430    3.9660   28.2430 O.2     1  UNL1       -0.2683
     19 C         -27.4380    3.0910   25.6450 C.2     1  UNL1        0.1064
     20 N         -28.0750    2.0890   25.0030 N.2     1  UNL1       -0.2081
     21 C         -27.5430    0.8490   25.0790 C.2     1  UNL1        0.2530
     22 O         -28.1930   -0.2080   24.4770 O.2     1  UNL1       -0.4558
     23 C         -29.4600    0.0050   23.8660 C.3     1  UNL1        0.2426
     24 C         -30.0650   -1.3770   23.5730 C.3     1  UNL1        0.2292
     25 O         -30.7290   -1.8780   24.7210 O.3     1  UNL1       -0.2162
     26 C         -26.3540    0.5760   25.7770 C.2     1  UNL1        0.1895
     27 F         -25.8600   -0.6810   25.7950 F       1  UNL1       -0.1996
     28 C         -26.1475    2.3354   29.7325 C.2     1  UNL1        0.2391
     29 C         -23.4451    1.5317   26.9588 C.2     1  UNL1        0.0439
     30 O         -21.6827    2.1676   25.3223 O.2     1  UNL1       -0.4488
     31 C         -24.8676   -0.1956   27.9196 C.3     1  UNL1        0.1014
     32 C         -22.6106    1.8002   28.1163 C.2     1  UNL1        0.0001
     33 N         -25.1902    0.1612   29.2966 N.3     1  UNL1       -0.1975
     34 C         -24.6532    1.0907   27.1950 C.3     1  UNL1        0.0699
     35 C         -20.8320    2.3483   26.4563 C.3     1  UNL1        0.2339
     36 C         -22.9479    1.6537   25.5562 C.2     1  UNL1        0.2795
     37 O         -27.2222    1.6991   29.6122 O.2     1  UNL1       -0.2736
     38 C         -25.7505    3.8827   31.7559 C.3     1  UNL1        0.0101
     39 N         -24.8284    1.5952   29.6409 N.am    1  UNL1       -0.2165
     40 C         -26.1177    3.7317   30.2422 C.3     1  UNL1        0.0866
     41 C         -23.2221    1.5958   29.4792 C.3     1  UNL1        0.1375
     42 C         -21.2425    2.2125   27.8037 C.2     1  UNL1        0.0181
     43 F         -23.5942    1.2776   24.5171 F       1  UNL1       -0.1636
@<TRIPOS>BOND
     1     1     2    1
     2     2     7    1
     3     3     2    2
     4     4     3    1
     5     4     5    2
     6     5     6    1
     7     6     7    2
     8     8     1    1
     9     8     9    1
    10     8    12    1
    11     9    10    1
    12    10    11    1
    13    12    11    1
    14    14    13    1
    15    14    15    1
    16    15    18    2
    17    16    17    1
    18    16    15    1
    19    19    14    2
    20    20    21    2
    21    20    19    1
    22    21    26    1
    23    22    21    1
    24    23    22    1
    25    24    23    1
    26    24    25    1
    27    26    27    1
    28    26    13    2
    29    28    40    1
    30    29    34    1
    31    29    32    1
    32    30    36    1
    33    30    35    1
    34    31    33    1
    35    32    41    1
    36    33    39    1
    37    33     1    1
    38    34    13    1
    39    34    31    1
    40    35    42    1
    41    36    29    2
    42    37    28    2
    43    39    28   am
    44    40    38    1
    45    41    39    1
    46    42    32    2
    47    43    36    1
