@<TRIPOS>MOLECULE
outputs/IAG933/test6/raw/output_807_IAG933_linker_design_.xyz
 45 50 0 0 0
SMALL
GASTEIGER

@<TRIPOS>ATOM
      1 C         -24.8550   -1.0120   30.1430 C.3     1  UNL1        0.1113
      2 C         -24.9730   -2.5050   29.7880 C.2     1  UNL1       -0.0030
      3 C         -23.9060   -3.1730   29.1460 C.2     1  UNL1       -0.0026
      4 C         -23.9890   -4.5490   28.8530 C.2     1  UNL1       -0.0003
      5 C         -25.1370   -5.2800   29.2050 C.2     1  UNL1       -0.0000
      6 C         -26.2320   -4.6110   29.7840 C.2     1  UNL1       -0.0003
      7 C         -26.1550   -3.2320   30.0650 C.2     1  UNL1       -0.0026
      8 C         -25.3870   -0.6790   31.5710 C.3     1  UNL1        0.0950
      9 C         -25.1890    0.7730   32.0280 C.3     1  UNL1        0.0209
     10 C         -25.3360    0.6840   33.5440 C.3     1  UNL1        0.0203
     11 C         -24.8290   -0.7150   33.9050 C.3     1  UNL1        0.0888
     12 N         -24.7580   -1.4810   32.6460 N.3     1  UNL1       -0.2174
     13 C         -25.6880    1.6140   26.4610 C.3     1  UNL1        0.0935
     14 C         -26.2500    2.9200   26.3950 C.2     1  UNL1        0.0589
     15 C         -25.6420    4.0930   27.1230 C.2     1  UNL1        0.2628
     16 N         -25.6140    5.2520   26.4490 N.am    1  UNL1       -0.2000
     17 C         -25.0260    6.4790   26.9630 C.3     1  UNL1        0.1388
     18 O         -25.1430    3.9660   28.2430 O.2     1  UNL1       -0.2686
     19 C         -27.4380    3.0910   25.6450 C.2     1  UNL1        0.1025
     20 N         -28.0750    2.0890   25.0030 N.2     1  UNL1       -0.2118
     21 C         -27.5430    0.8490   25.0790 C.2     1  UNL1        0.2344
     22 O         -28.1930   -0.2080   24.4770 O.2     1  UNL1       -0.4585
     23 C         -29.4600    0.0050   23.8660 C.3     1  UNL1        0.2423
     24 C         -30.0650   -1.3770   23.5730 C.3     1  UNL1        0.2292
     25 O         -30.7290   -1.8780   24.7210 O.3     1  UNL1       -0.2162
     26 C         -26.3540    0.5760   25.7770 C.3     1  UNL1        0.2440
     27 F         -25.8600   -0.6810   25.7950 F       1  UNL1       -0.2265
     28 O         -28.2354    0.5286   29.3388 O.3     1  UNL1       -0.2830
     29 N         -24.4120    0.0275   29.0100 N.pl3   1  UNL1       -0.3019
     30 C         -25.8322    0.7016   28.7342 C.3     1  UNL1        0.1228
     31 C         -22.1157    2.4721   25.7821 C.2     1  UNL1       -0.0002
     32 C         -32.2024    0.8399   27.0364 C.3     1  UNL1        0.1438
     33 C         -24.2215    1.5452   26.6742 C.2     1  UNL1       -0.0017
     34 C         -23.4667    2.1811   25.6694 C.2     1  UNL1       -0.0026
     35 C         -23.4582    1.0133   27.7417 C.2     1  UNL1        0.0445
     36 C         -30.2828    0.6594   28.7339 C.3     1  UNL1        0.1161
     37 O         -30.9422    0.6859   26.3696 O.3     1  UNL1       -0.3522
     38 C         -29.8684    0.2697   27.2050 C.3     1  UNL1        0.1604
     39 C         -31.8532    0.4538   28.5660 C.3     1  UNL1        0.0530
     40 C         -21.4171    1.9187   26.8822 C.2     1  UNL1        0.0012
     41 C         -22.0467    1.2990   27.8623 C.2     1  UNL1        0.0142
     42 C         -26.7821    1.3241   29.0435 C.3     1  UNL1        0.1587
     43 N         -29.0961    1.4578   29.1860 N.3     1  UNL1       -0.1647
     44 C         -28.6924    2.8305   29.2820 C.3     1  UNL1        0.1036
     45 C         -27.2470    2.5207   29.7446 C.3     1  UNL1        0.0532
@<TRIPOS>BOND
     1     1    29    1
     2     2     7    1
     3     2     1    1
     4     3     2    2
     5     4     3    1
     6     4     5    2
     7     5     6    1
     8     6     7    2
     9     8     1    1
    10     8     9    1
    11     8    12    1
    12     9    10    1
    13    10    11    1
    14    12    11    1
    15    13    33    1
    16    14    13    1
    17    14    15    1
    18    15    18    2
    19    16    17    1
    20    16    15    1
    21    19    14    2
    22    20    21    2
    23    20    19    1
    24    21    26    1
    25    22    21    1
    26    23    22    1
    27    24    23    1
    28    24    25    1
    29    26    27    1
    30    26    13    1
    31    30    29    1
    32    31    40    1
    33    32    39    1
    34    33    35    2
    35    34    31    2
    36    34    33    1
    37    35    41    1
    38    35    29    1
    39    36    38    1
    40    36    43    1
    41    37    32    1
    42    37    38    1
    43    39    36    1
    44    40    41    2
    45    42    30    1
    46    42    28    1
    47    42    45    1
    48    43    44    1
    49    43    28    1
    50    44    45    1
