@<TRIPOS>MOLECULE
outputs/IAG933/test6/raw/output_8071_IAG933_linker_design_.xyz
 46 51 0 0 0
SMALL
GASTEIGER

@<TRIPOS>ATOM
      1 C         -24.8550   -1.0120   30.1430 C.3     1  UNL1        0.0971
      2 C         -24.9730   -2.5050   29.7880 C.2     1  UNL1       -0.0064
      3 C         -23.9060   -3.1730   29.1460 C.2     1  UNL1       -0.0029
      4 C         -23.9890   -4.5490   28.8530 C.2     1  UNL1       -0.0003
      5 C         -25.1370   -5.2800   29.2050 C.2     1  UNL1       -0.0000
      6 C         -26.2320   -4.6110   29.7840 C.2     1  UNL1       -0.0003
      7 C         -26.1550   -3.2320   30.0650 C.2     1  UNL1       -0.0029
      8 C         -25.3870   -0.6790   31.5710 C.3     1  UNL1        0.0916
      9 C         -25.1890    0.7730   32.0280 C.3     1  UNL1        0.0206
     10 C         -25.3360    0.6840   33.5440 C.3     1  UNL1        0.0203
     11 C         -24.8290   -0.7150   33.9050 C.3     1  UNL1        0.0888
     12 N         -24.7580   -1.4810   32.6460 N.3     1  UNL1       -0.2178
     13 C         -25.6880    1.6140   26.4610 C.2     1  UNL1        0.0367
     14 C         -26.2500    2.9200   26.3950 C.2     1  UNL1        0.0763
     15 C         -25.6420    4.0930   27.1230 C.2     1  UNL1        0.2664
     16 N         -25.6140    5.2520   26.4490 N.am    1  UNL1       -0.1997
     17 C         -25.0260    6.4790   26.9630 C.3     1  UNL1        0.1388
     18 O         -25.1430    3.9660   28.2430 O.2     1  UNL1       -0.2683
     19 C         -27.4380    3.0910   25.6450 C.2     1  UNL1        0.1067
     20 N         -28.0750    2.0890   25.0030 N.2     1  UNL1       -0.2081
     21 C         -27.5430    0.8490   25.0790 C.2     1  UNL1        0.2533
     22 O         -28.1930   -0.2080   24.4770 O.2     1  UNL1       -0.4558
     23 C         -29.4600    0.0050   23.8660 C.3     1  UNL1        0.2426
     24 C         -30.0650   -1.3770   23.5730 C.3     1  UNL1        0.2292
     25 O         -30.7290   -1.8780   24.7210 O.3     1  UNL1       -0.2162
     26 C         -26.3540    0.5760   25.7770 C.2     1  UNL1        0.1928
     27 F         -25.8600   -0.6810   25.7950 F       1  UNL1       -0.1992
     28 C         -29.0357    2.9115   31.8694 C.2     1  UNL1       -0.0000
     29 C         -26.9842   -0.2609   29.3300 C.3     1  UNL1        0.0395
     30 O         -30.0104    0.4052   27.8980 O.3     1  UNL1       -0.0116
     31 C         -26.2300   -0.1255   28.2705 C.3     1  UNL1        0.0235
     32 C         -28.3351    1.8462   31.1976 C.2     1  UNL1        0.0013
     33 C         -24.9544    0.3046   28.2303 C.3     1  UNL1        0.0825
     34 C         -31.0755    2.1565   30.7671 C.2     1  UNL1        0.0408
     35 C         -30.3991    3.0517   31.6204 C.2     1  UNL1        0.0032
     36 S         -22.0089    1.2587   27.8401 S.3     1  UNL1       -0.0847
     37 N         -24.1304   -0.1097   29.1917 N.3     1  UNL1       -0.2571
     38 C         -28.6021   -0.0575   29.6704 C.3     1  UNL1        0.1813
     39 O         -30.8283    0.4919   28.9894 O.2     1  UNL1       -0.3059
     40 C         -24.6232    1.3305   27.1660 C.2     1  UNL1        0.0112
     41 CL        -22.7758    2.2283   25.2420 Cl      1  UNL1       -0.0757
     42 C         -28.9969    1.0369   30.2463 C.2     1  UNL1        0.0458
     43 C         -30.3265    1.3076   30.0460 C.2     1  UNL1        0.1841
     44 C         -22.7695    0.3192   29.0654 C.3     1  UNL1        0.1370
     45 C         -23.2807    1.8344   26.8222 C.2     1  UNL1        0.0815
     46 O         -29.1032   -0.4932   28.3195 O.3     1  UNL1       -0.1797
@<TRIPOS>BOND
     1     1     2    1
     2     2     7    1
     3     3     2    2
     4     4     3    1
     5     4     5    2
     6     5     6    1
     7     6     7    2
     8     8     1    1
     9     8     9    1
    10     8    12    1
    11     9    10    1
    12    10    11    1
    13    12    11    1
    14    13    40    1
    15    14    13    1
    16    14    15    1
    17    15    18    2
    18    16    17    1
    19    16    15    1
    20    19    14    2
    21    20    21    2
    22    20    19    1
    23    21    26    1
    24    22    21    1
    25    23    22    1
    26    24    23    1
    27    24    25    1
    28    26    27    1
    29    26    13    2
    30    30    46    1
    31    30    39    1
    32    31    29    1
    33    32    28    2
    34    33    31    1
    35    33    37    1
    36    34    35    2
    37    35    28    1
    38    36    44    1
    39    37     1    1
    40    38    29    1
    41    38    42    1
    42    39    43    1
    43    40    33    1
    44    41    45    1
    45    42    32    1
    46    43    42    2
    47    43    34    1
    48    44    37    1
    49    45    40    2
    50    45    36    1
    51    46    38    1
