@<TRIPOS>MOLECULE
outputs/IAG933/test6/raw/output_8074_IAG933_linker_design_.xyz
 41 44 0 0 0
SMALL
GASTEIGER

@<TRIPOS>ATOM
      1 C         -24.8550   -1.0120   30.1430 C.3     1  UNL1        0.0652
      2 C         -24.9730   -2.5050   29.7880 C.2     1  UNL1       -0.0192
      3 C         -23.9060   -3.1730   29.1460 C.2     1  UNL1       -0.0042
      4 C         -23.9890   -4.5490   28.8530 C.2     1  UNL1       -0.0003
      5 C         -25.1370   -5.2800   29.2050 C.2     1  UNL1       -0.0000
      6 C         -26.2320   -4.6110   29.7840 C.2     1  UNL1       -0.0003
      7 C         -26.1550   -3.2320   30.0650 C.2     1  UNL1       -0.0042
      8 C         -25.3870   -0.6790   31.5710 C.3     1  UNL1        0.0787
      9 C         -25.1890    0.7730   32.0280 C.3     1  UNL1        0.0193
     10 C         -25.3360    0.6840   33.5440 C.3     1  UNL1        0.0202
     11 C         -24.8290   -0.7150   33.9050 C.3     1  UNL1        0.0887
     12 N         -24.7580   -1.4810   32.6460 N.3     1  UNL1       -0.2191
     13 C         -25.6880    1.6140   26.4610 C.3     1  UNL1        0.0871
     14 C         -26.2500    2.9200   26.3950 C.2     1  UNL1        0.0562
     15 C         -25.6420    4.0930   27.1230 C.2     1  UNL1        0.2625
     16 N         -25.6140    5.2520   26.4490 N.am    1  UNL1       -0.2000
     17 C         -25.0260    6.4790   26.9630 C.3     1  UNL1        0.1388
     18 O         -25.1430    3.9660   28.2430 O.2     1  UNL1       -0.2687
     19 C         -27.4380    3.0910   25.6450 C.2     1  UNL1        0.1022
     20 N         -28.0750    2.0890   25.0030 N.2     1  UNL1       -0.2119
     21 C         -27.5430    0.8490   25.0790 C.2     1  UNL1        0.2341
     22 O         -28.1930   -0.2080   24.4770 O.2     1  UNL1       -0.4585
     23 C         -29.4600    0.0050   23.8660 C.3     1  UNL1        0.2423
     24 C         -30.0650   -1.3770   23.5730 C.3     1  UNL1        0.2292
     25 O         -30.7290   -1.8780   24.7210 O.3     1  UNL1       -0.2162
     26 C         -26.3540    0.5760   25.7770 C.3     1  UNL1        0.2414
     27 F         -25.8600   -0.6810   25.7950 F       1  UNL1       -0.2268
     28 O         -21.5460    2.0007   26.6080 O.3     1  UNL1       -0.4176
     29 C         -23.5536    1.5176   27.4784 C.3     1  UNL1        0.1804
     30 O         -23.4010    2.7869   25.3443 O.2     1  UNL1       -0.2492
     31 C         -28.6801    1.4894   30.4058 C.3     1  UNL1        0.2556
     32 N         -25.2686    0.0894   28.2778 N.3     1  UNL1       -0.2081
     33 C         -24.8616    1.0429   27.5728 C.3     1  UNL1        0.0988
     34 C         -26.0866   -0.5123   29.2727 C.3     1  UNL1        0.1767
     35 O         -22.8081    0.6231   29.5847 O.2     1  UNL1       -0.2874
     36 O         -28.3074   -0.4894   28.3160 O.2     1  UNL1       -0.2485
     37 C         -21.3199    1.4527   27.8909 C.2     1  UNL1        0.2206
     38 O         -27.6842    1.3201   29.3975 O.3     1  UNL1       -0.4434
     39 C         -22.5626    1.1738   28.4467 C.2     1  UNL1        0.2221
     40 C         -27.4250    0.1128   28.9047 C.2     1  UNL1        0.3334
     41 C         -22.8646    2.1167   26.3718 C.2     1  UNL1        0.3301
@<TRIPOS>BOND
     1     1    34    1
     2     2     7    1
     3     2     1    1
     4     3     2    2
     5     4     3    1
     6     4     5    2
     7     5     6    1
     8     6     7    2
     9     8     1    1
    10     8     9    1
    11     8    12    1
    12     9    10    1
    13    10    11    1
    14    12    11    1
    15    13    33    1
    16    14    13    1
    17    14    15    1
    18    15    18    2
    19    16    17    1
    20    16    15    1
    21    19    14    2
    22    20    21    2
    23    20    19    1
    24    21    26    1
    25    22    21    1
    26    23    22    1
    27    24    23    1
    28    24    25    1
    29    26    27    1
    30    26    13    1
    31    28    37    1
    32    29    33    1
    33    29    39    1
    34    30    41    2
    35    33    32    1
    36    34    32    1
    37    36    40    2
    38    37    39    2
    39    38    31    1
    40    39    35    1
    41    40    34    1
    42    40    38    1
    43    41    28    1
    44    41    29    1
