@<TRIPOS>MOLECULE
outputs/IAG933/test6/raw/output_808_IAG933_linker_design_.xyz
 45 49 0 0 0
SMALL
GASTEIGER

@<TRIPOS>ATOM
      1 C         -24.8550   -1.0120   30.1430 C.3     1  UNL1        0.0414
      2 C         -24.9730   -2.5050   29.7880 C.2     1  UNL1       -0.0211
      3 C         -23.9060   -3.1730   29.1460 C.2     1  UNL1       -0.0042
      4 C         -23.9890   -4.5490   28.8530 C.2     1  UNL1       -0.0003
      5 C         -25.1370   -5.2800   29.2050 C.2     1  UNL1       -0.0000
      6 C         -26.2320   -4.6110   29.7840 C.2     1  UNL1       -0.0003
      7 C         -26.1550   -3.2320   30.0650 C.2     1  UNL1       -0.0042
      8 C         -25.3870   -0.6790   31.5710 C.3     1  UNL1        0.0769
      9 C         -25.1890    0.7730   32.0280 C.3     1  UNL1        0.0192
     10 C         -25.3360    0.6840   33.5440 C.3     1  UNL1        0.0202
     11 C         -24.8290   -0.7150   33.9050 C.3     1  UNL1        0.0887
     12 N         -24.7580   -1.4810   32.6460 N.3     1  UNL1       -0.2191
     13 C         -25.6880    1.6140   26.4610 C.3     1  UNL1        0.0873
     14 C         -26.2500    2.9200   26.3950 C.2     1  UNL1        0.0562
     15 C         -25.6420    4.0930   27.1230 C.2     1  UNL1        0.2625
     16 N         -25.6140    5.2520   26.4490 N.am    1  UNL1       -0.2000
     17 C         -25.0260    6.4790   26.9630 C.3     1  UNL1        0.1388
     18 O         -25.1430    3.9660   28.2430 O.2     1  UNL1       -0.2687
     19 C         -27.4380    3.0910   25.6450 C.2     1  UNL1        0.1022
     20 N         -28.0750    2.0890   25.0030 N.2     1  UNL1       -0.2119
     21 C         -27.5430    0.8490   25.0790 C.2     1  UNL1        0.2341
     22 O         -28.1930   -0.2080   24.4770 O.2     1  UNL1       -0.4585
     23 C         -29.4600    0.0050   23.8660 C.3     1  UNL1        0.2423
     24 C         -30.0650   -1.3770   23.5730 C.3     1  UNL1        0.2292
     25 O         -30.7290   -1.8780   24.7210 O.3     1  UNL1       -0.2162
     26 C         -26.3540    0.5760   25.7770 C.3     1  UNL1        0.2414
     27 F         -25.8600   -0.6810   25.7950 F       1  UNL1       -0.2268
     28 C         -26.4378    0.3043   28.5075 C.3     1  UNL1        0.1168
     29 C         -29.3744    2.4859   28.2701 C.3     1  UNL1        0.1606
     30 N         -27.7242   -0.0327   28.2897 N.am    1  UNL1       -0.2053
     31 O         -30.5435    2.2282   27.4281 O.3     1  UNL1       -0.2226
     32 C         -28.2918    1.9130   30.4256 C.3     1  UNL1        0.0118
     33 C         -28.9108    0.2103   28.5524 C.2     1  UNL1        0.2434
     34 N         -24.5610    1.7662   28.2268 N.3     1  UNL1       -0.2191
     35 C         -24.1822    1.4310   26.8829 C.3     1  UNL1        0.0950
     36 C         -29.2875    1.4023   29.3982 C.3     1  UNL1        0.1085
     37 CL        -22.3864    2.2937   25.2222 Cl      1  UNL1       -0.1135
     38 C         -29.2454    3.7630   29.1181 C.3     1  UNL1        0.0334
     39 C         -23.8844    0.7494   28.8347 C.3     1  UNL1        0.0749
     40 C         -28.1717    3.4167   30.1538 C.3     1  UNL1        0.0032
     41 C         -21.8224    1.1270   27.5951 C.3     1  UNL1        0.0191
     42 C         -25.3233    0.0176   29.2947 C.3     1  UNL1        0.0431
     43 C         -22.3299    0.5226   28.7431 C.3     1  UNL1        0.0188
     44 C         -22.8249    1.5442   26.6486 C.3     1  UNL1        0.0963
     45 O         -29.7684   -0.4837   28.0217 O.2     1  UNL1       -0.2733
@<TRIPOS>BOND
     1     1    42    1
     2     2     7    1
     3     2     1    1
     4     3     2    2
     5     4     3    1
     6     4     5    2
     7     5     6    1
     8     6     7    2
     9     8     1    1
    10     8     9    1
    11     8    12    1
    12     9    10    1
    13    10    11    1
    14    12    11    1
    15    13    14    1
    16    13    35    1
    17    14    15    1
    18    15    18    2
    19    16    17    1
    20    16    15    1
    21    19    14    2
    22    20    21    2
    23    20    19    1
    24    21    26    1
    25    22    21    1
    26    23    22    1
    27    24    23    1
    28    24    25    1
    29    26    27    1
    30    26    13    1
    31    29    31    1
    32    29    38    1
    33    29    36    1
    34    30    28    1
    35    30    33    1
    36    34    39    1
    37    35    34    1
    38    36    33    1
    39    36    32    1
    40    38    40    1
    41    39    42    1
    42    40    32    1
    43    41    43    1
    44    42    28    1
    45    43    39    1
    46    44    37    1
    47    44    35    1
    48    44    41    1
    49    45    33    2
