@<TRIPOS>MOLECULE
outputs/IAG933/test6/raw/output_8085_IAG933_linker_design_.xyz
 44 48 0 0 0
SMALL
GASTEIGER

@<TRIPOS>ATOM
      1 C         -24.8550   -1.0120   30.1430 C.3     1  UNL1        0.0689
      2 C         -24.9730   -2.5050   29.7880 C.2     1  UNL1       -0.0187
      3 C         -23.9060   -3.1730   29.1460 C.2     1  UNL1       -0.0042
      4 C         -23.9890   -4.5490   28.8530 C.2     1  UNL1       -0.0003
      5 C         -25.1370   -5.2800   29.2050 C.2     1  UNL1       -0.0000
      6 C         -26.2320   -4.6110   29.7840 C.2     1  UNL1       -0.0003
      7 C         -26.1550   -3.2320   30.0650 C.2     1  UNL1       -0.0042
      8 C         -25.3870   -0.6790   31.5710 C.3     1  UNL1        0.0793
      9 C         -25.1890    0.7730   32.0280 C.3     1  UNL1        0.0193
     10 C         -25.3360    0.6840   33.5440 C.3     1  UNL1        0.0202
     11 C         -24.8290   -0.7150   33.9050 C.3     1  UNL1        0.0887
     12 N         -24.7580   -1.4810   32.6460 N.3     1  UNL1       -0.2190
     13 C         -25.6880    1.6140   26.4610 C.2     1  UNL1        0.0160
     14 C         -26.2500    2.9200   26.3950 C.2     1  UNL1        0.0726
     15 C         -25.6420    4.0930   27.1230 C.2     1  UNL1        0.2661
     16 N         -25.6140    5.2520   26.4490 N.am    1  UNL1       -0.1997
     17 C         -25.0260    6.4790   26.9630 C.3     1  UNL1        0.1388
     18 O         -25.1430    3.9660   28.2430 O.2     1  UNL1       -0.2683
     19 C         -27.4380    3.0910   25.6450 C.2     1  UNL1        0.1064
     20 N         -28.0750    2.0890   25.0030 N.2     1  UNL1       -0.2081
     21 C         -27.5430    0.8490   25.0790 C.2     1  UNL1        0.2530
     22 O         -28.1930   -0.2080   24.4770 O.2     1  UNL1       -0.4558
     23 C         -29.4600    0.0050   23.8660 C.3     1  UNL1        0.2426
     24 C         -30.0650   -1.3770   23.5730 C.3     1  UNL1        0.2292
     25 O         -30.7290   -1.8780   24.7210 O.3     1  UNL1       -0.2162
     26 C         -26.3540    0.5760   25.7770 C.2     1  UNL1        0.1891
     27 F         -25.8600   -0.6810   25.7950 F       1  UNL1       -0.1996
     28 C         -25.6242    3.9879   31.7293 C.2     1  UNL1        0.3227
     29 O         -26.1350   -0.4910   28.2222 O.3     1  UNL1       -0.1913
     30 C         -23.8772    5.2641   32.8902 C.3     1  UNL1        0.2557
     31 C         -24.8778   -0.1202   28.8425 C.3     1  UNL1        0.1623
     32 O         -27.2240    0.0119   28.7850 O.3     1  UNL1       -0.0347
     33 F         -21.8029    1.8448   24.8757 F       1  UNL1       -0.2070
     34 C         -24.1359    2.2980   29.8073 C.3     1  UNL1        0.1198
     35 N         -26.8372    4.3092   31.5787 N.2     1  UNL1       -0.0901
     36 C         -21.7730   -0.0372   28.6988 C.3     1  UNL1        0.0352
     37 O         -21.0831    1.9314   26.9940 O.3     1  UNL1       -0.3283
     38 N         -24.8353    3.1971   30.7617 N.pl3   1  UNL1       -0.1869
     39 C         -21.9649    1.5735   26.0628 C.3     1  UNL1        0.2519
     40 O         -25.0145    4.4366   32.9668 O.2     1  UNL1       -0.4436
     41 C         -24.8784    1.4390   28.7410 C.3     1  UNL1        0.0570
     42 C         -22.0729    1.3679   27.7858 C.3     1  UNL1        0.1519
     43 C         -24.4894    1.5823   27.2570 C.3     1  UNL1        0.0366
     44 C         -23.1781    1.1799   26.7393 C.3     1  UNL1        0.0930
@<TRIPOS>BOND
     1     1    31    1
     2     2     7    1
     3     2     1    1
     4     3     2    2
     5     4     3    1
     6     4     5    2
     7     5     6    1
     8     6     7    2
     9     8     1    1
    10     8     9    1
    11     8    12    1
    12     9    10    1
    13    10    11    1
    14    12    11    1
    15    13    43    1
    16    14    13    1
    17    14    15    1
    18    15    18    2
    19    16    17    1
    20    16    15    1
    21    19    14    2
    22    20    21    2
    23    20    19    1
    24    21    26    1
    25    22    21    1
    26    23    22    1
    27    24    23    1
    28    24    25    1
    29    26    27    1
    30    26    13    2
    31    28    40    1
    32    29    32    1
    33    30    40    1
    34    31    29    1
    35    34    38    1
    36    35    28    2
    37    37    42    1
    38    38    28    1
    39    39    33    1
    40    39    44    1
    41    39    37    1
    42    39    42    1
    43    41    31    1
    44    41    34    1
    45    42    36    1
    46    43    41    1
    47    44    43    1
    48    44    42    1
