@<TRIPOS>MOLECULE
No_809-gen_results/8p0m/2024-11-27-11-27-31/
 17 19 0 0 0
SMALL
GASTEIGER

@<TRIPOS>ATOM
      1 C         -28.0162   -0.8135   28.8779 C.ar    1  UNL1        0.0114
      2 C         -27.0636   -0.1189   28.6079 C.ar    1  UNL1        0.0009
      3 C         -25.7923   -0.4302   29.0761 C.ar    1  UNL1        0.0015
      4 C         -24.5456    0.3494   28.8225 C.ar    1  UNL1        0.0177
      5 C         -23.2409    0.0217   29.3323 C.ar    1  UNL1        0.0015
      6 C         -23.1926   -1.2816   29.8967 C.ar    1  UNL1        0.0000
      7 C         -27.8703   -1.9138   29.8642 C.ar    1  UNL1        0.0577
      8 C         -26.6310   -2.3256   30.2990 C.ar    1  UNL1        0.0114
      9 C         -25.5115   -1.5728   29.9655 C.ar    1  UNL1        0.0009
     10 C         -24.2167   -1.9673   30.3246 C.ar    1  UNL1        0.0000
     11 C         -24.5912    1.5912   27.9920 C.ar    1  UNL1        0.0813
     12 C         -24.7855    2.7097   28.6079 C.ar    1  UNL1        0.0191
     13 C         -25.7760    3.5207   28.1119 C.ar    1  UNL1        0.0031
     14 C         -25.9821    3.5050   26.7129 C.ar    1  UNL1        0.0207
     15 N         -24.5953    1.4964   26.6737 N.ar    1  UNL1       -0.2438
     16 C         -25.3914    2.3858   26.0193 C.ar    1  UNL1        0.0988
     17 CL        -29.2497   -2.9253   30.2917 Cl      1  UNL1       -0.0822
@<TRIPOS>BOND
     1     4    11    1
     2     7    17    1
     3    11    12   ar
     4    12    13   ar
     5    13    14   ar
     6    14    16   ar
     7    16    15   ar
     8    15    11   ar
     9     1     2   ar
    10     2     3   ar
    11     9     8   ar
    12     8     7   ar
    13     7     1   ar
    14     3     4   ar
    15     4     5   ar
    16     5     6   ar
    17     6    10   ar
    18    10     9   ar
    19     9     3   ar
