@<TRIPOS>MOLECULE
outputs/IAG933/test6/raw/output_8098_IAG933_linker_design_.xyz
 46 50 0 0 0
SMALL
GASTEIGER

@<TRIPOS>ATOM
      1 C         -24.8550   -1.0120   30.1430 C.3     1  UNL1        0.1113
      2 C         -24.9730   -2.5050   29.7880 C.2     1  UNL1       -0.0030
      3 C         -23.9060   -3.1730   29.1460 C.2     1  UNL1       -0.0026
      4 C         -23.9890   -4.5490   28.8530 C.2     1  UNL1       -0.0003
      5 C         -25.1370   -5.2800   29.2050 C.2     1  UNL1       -0.0000
      6 C         -26.2320   -4.6110   29.7840 C.2     1  UNL1       -0.0003
      7 C         -26.1550   -3.2320   30.0650 C.2     1  UNL1       -0.0026
      8 C         -25.3870   -0.6790   31.5710 C.3     1  UNL1        0.0950
      9 C         -25.1890    0.7730   32.0280 C.3     1  UNL1        0.0209
     10 C         -25.3360    0.6840   33.5440 C.3     1  UNL1        0.0203
     11 C         -24.8290   -0.7150   33.9050 C.3     1  UNL1        0.0888
     12 N         -24.7580   -1.4810   32.6460 N.3     1  UNL1       -0.2174
     13 C         -25.6880    1.6140   26.4610 C.2     1  UNL1        0.0398
     14 C         -26.2500    2.9200   26.3950 C.2     1  UNL1        0.0766
     15 C         -25.6420    4.0930   27.1230 C.2     1  UNL1        0.2664
     16 N         -25.6140    5.2520   26.4490 N.am    1  UNL1       -0.1997
     17 C         -25.0260    6.4790   26.9630 C.3     1  UNL1        0.1388
     18 O         -25.1430    3.9660   28.2430 O.2     1  UNL1       -0.2683
     19 C         -27.4380    3.0910   25.6450 C.2     1  UNL1        0.1067
     20 N         -28.0750    2.0890   25.0030 N.2     1  UNL1       -0.2081
     21 C         -27.5430    0.8490   25.0790 C.2     1  UNL1        0.2533
     22 O         -28.1930   -0.2080   24.4770 O.2     1  UNL1       -0.4558
     23 C         -29.4600    0.0050   23.8660 C.3     1  UNL1        0.2426
     24 C         -30.0650   -1.3770   23.5730 C.3     1  UNL1        0.2292
     25 O         -30.7290   -1.8780   24.7210 O.3     1  UNL1       -0.2162
     26 C         -26.3540    0.5760   25.7770 C.2     1  UNL1        0.1931
     27 F         -25.8600   -0.6810   25.7950 F       1  UNL1       -0.1992
     28 CL        -22.8651    2.1001   25.4884 Cl      1  UNL1       -0.0811
     29 C         -28.5190    0.9999   30.4274 C.3     1  UNL1        0.1884
     30 O         -29.0277   -0.2154   30.8513 O.3     1  UNL1       -0.2200
     31 C         -29.8542    1.3823   27.2709 C.2     1  UNL1        0.0564
     32 C         -26.7775    0.0575   28.6644 C.3     1  UNL1        0.0498
     33 C         -32.1643    1.9919   26.2963 C.3     1  UNL1        0.2486
     34 C         -23.0066    0.2568   29.0567 C.3     1  UNL1        0.1370
     35 C         -25.2733    0.3454   28.3227 C.2     1  UNL1        0.0267
     36 C         -23.4875    1.3927   27.0271 C.2     1  UNL1        0.0729
     37 C         -28.0791    0.4522   28.9585 C.3     1  UNL1        0.0822
     38 C         -22.5292    1.0486   27.9777 C.2     1  UNL1        0.0972
     39 C         -31.2573    1.3984   27.2896 C.2     1  UNL1        0.1873
     40 C         -24.8054    1.1197   27.2350 C.2     1  UNL1        0.0234
     41 O         -31.8223    0.7981   28.3616 O.2     1  UNL1       -0.3554
     42 N         -24.2815   -0.1291   29.1686 N.pl3   1  UNL1       -0.3022
     43 N         -30.6292    0.5022   29.1734 N.2     1  UNL1       -0.0816
     44 N         -21.1660    1.4785   27.8472 N.pl3   1  UNL1       -0.1301
     45 C         -29.4517    0.7659   28.4468 C.2     1  UNL1        0.1030
     46 O         -31.3654    2.3471   25.1432 O.3     1  UNL1       -0.2116
@<TRIPOS>BOND
     1     1     2    1
     2     2     7    1
     3     3     2    2
     4     4     3    1
     5     4     5    2
     6     5     6    1
     7     6     7    2
     8     8     1    1
     9     8     9    1
    10     8    12    1
    11     9    10    1
    12    10    11    1
    13    12    11    1
    14    13    40    1
    15    14    13    1
    16    14    15    1
    17    15    18    2
    18    16    17    1
    19    16    15    1
    20    19    14    2
    21    20    21    2
    22    20    19    1
    23    21    26    1
    24    22    21    1
    25    23    22    1
    26    24    23    1
    27    24    25    1
    28    26    27    1
    29    26    13    2
    30    28    36    1
    31    29    30    1
    32    31    39    2
    33    31    45    1
    34    33    39    1
    35    34    42    1
    36    35    32    1
    37    35    42    1
    38    36    40    1
    39    36    38    2
    40    37    32    1
    41    37    29    1
    42    38    34    1
    43    39    41    1
    44    40    35    2
    45    41    43    1
    46    42     1    1
    47    44    38    1
    48    45    37    1
    49    45    43    2
    50    46    33    1
