@<TRIPOS>MOLECULE
outputs/IAG933/test6/raw/output_81_IAG933_linker_design_.xyz
 44 48 0 0 0
SMALL
GASTEIGER

@<TRIPOS>ATOM
      1 C         -24.8550   -1.0120   30.1430 C.3     1  UNL1        0.1152
      2 C         -24.9730   -2.5050   29.7880 C.2     1  UNL1       -0.0029
      3 C         -23.9060   -3.1730   29.1460 C.2     1  UNL1       -0.0026
      4 C         -23.9890   -4.5490   28.8530 C.2     1  UNL1       -0.0003
      5 C         -25.1370   -5.2800   29.2050 C.2     1  UNL1       -0.0000
      6 C         -26.2320   -4.6110   29.7840 C.2     1  UNL1       -0.0003
      7 C         -26.1550   -3.2320   30.0650 C.2     1  UNL1       -0.0026
      8 C         -25.3870   -0.6790   31.5710 C.3     1  UNL1        0.0952
      9 C         -25.1890    0.7730   32.0280 C.3     1  UNL1        0.0209
     10 C         -25.3360    0.6840   33.5440 C.3     1  UNL1        0.0203
     11 C         -24.8290   -0.7150   33.9050 C.3     1  UNL1        0.0888
     12 N         -24.7580   -1.4810   32.6460 N.3     1  UNL1       -0.2174
     13 C         -25.6880    1.6140   26.4610 C.2     1  UNL1        0.0175
     14 C         -26.2500    2.9200   26.3950 C.2     1  UNL1        0.0726
     15 C         -25.6420    4.0930   27.1230 C.2     1  UNL1        0.2661
     16 N         -25.6140    5.2520   26.4490 N.am    1  UNL1       -0.1997
     17 C         -25.0260    6.4790   26.9630 C.3     1  UNL1        0.1388
     18 O         -25.1430    3.9660   28.2430 O.2     1  UNL1       -0.2683
     19 C         -27.4380    3.0910   25.6450 C.2     1  UNL1        0.1064
     20 N         -28.0750    2.0890   25.0030 N.2     1  UNL1       -0.2081
     21 C         -27.5430    0.8490   25.0790 C.2     1  UNL1        0.2530
     22 O         -28.1930   -0.2080   24.4770 O.2     1  UNL1       -0.4558
     23 C         -29.4600    0.0050   23.8660 C.3     1  UNL1        0.2426
     24 C         -30.0650   -1.3770   23.5730 C.3     1  UNL1        0.2292
     25 O         -30.7290   -1.8780   24.7210 O.3     1  UNL1       -0.2162
     26 C         -26.3540    0.5760   25.7770 C.2     1  UNL1        0.1892
     27 F         -25.8600   -0.6810   25.7950 F       1  UNL1       -0.1996
     28 C         -21.0655    1.1275   28.3498 C.3     1  UNL1        0.0688
     29 N         -25.4129    0.1682   29.2654 N.am    1  UNL1       -0.2614
     30 C         -22.2393    0.4070   28.7996 C.2     1  UNL1        0.0642
     31 N         -27.2191    2.6180   29.6674 N.am    1  UNL1       -0.2359
     32 C         -26.8197    0.8309   29.2393 C.2     1  UNL1        0.3092
     33 C         -26.5293    3.3047   30.6747 C.3     1  UNL1        0.2815
     34 C         -21.0559    1.9938   27.2271 C.2     1  UNL1       -0.0246
     35 O         -27.2508    3.8397   31.6791 O.3     1  UNL1       -0.1958
     36 C         -28.2924    3.5279   29.2085 C.3     1  UNL1        0.0974
     37 N         -22.1997   -0.5443   29.6741 N.2     1  UNL1       -0.1570
     38 O         -27.6283    0.3123   28.9006 O.2     1  UNL1       -0.2523
     39 C         -22.1466    2.1431   26.2637 C.2     1  UNL1       -0.0299
     40 C         -24.5081    0.1828   28.1646 C.3     1  UNL1        0.0871
     41 C         -24.4191    1.2499   27.0798 C.3     1  UNL1        0.0490
     42 C         -28.7352    4.9011   29.2416 C.3     1  UNL1        0.0234
     43 C         -23.4302    1.6197   26.3406 C.3     1  UNL1        0.0318
     44 C         -23.5429    1.3495   28.3012 C.3     1  UNL1        0.0624
@<TRIPOS>BOND
     1     1    29    1
     2     2     7    1
     3     2     1    1
     4     3     2    2
     5     4     3    1
     6     4     5    2
     7     5     6    1
     8     6     7    2
     9     8     1    1
    10     8     9    1
    11     8    12    1
    12     9    10    1
    13    10    11    1
    14    12    11    1
    15    14    13    1
    16    14    15    1
    17    15    18    2
    18    16    17    1
    19    16    15    1
    20    19    14    2
    21    20    21    2
    22    20    19    1
    23    21    26    1
    24    22    21    1
    25    23    22    1
    26    24    23    1
    27    24    25    1
    28    26    27    1
    29    26    13    2
    30    28    30    1
    31    30    37    2
    32    31    33    1
    33    32    29   am
    34    32    31   am
    35    33    35    1
    36    34    28    1
    37    36    42    1
    38    36    31    1
    39    38    32    2
    40    39    43    1
    41    39    34    2
    42    40    44    1
    43    40    29    1
    44    41    13    1
    45    41    40    1
    46    41    44    1
    47    43    41    1
    48    44    30    1
