@<TRIPOS>MOLECULE
outputs/IAG933/test6/raw/output_810_IAG933_linker_design_.xyz
 44 48 0 0 0
SMALL
GASTEIGER

@<TRIPOS>ATOM
      1 C         -24.8550   -1.0120   30.1430 C.3     1  UNL1        0.0617
      2 C         -24.9730   -2.5050   29.7880 C.2     1  UNL1       -0.0170
      3 C         -23.9060   -3.1730   29.1460 C.2     1  UNL1       -0.0039
      4 C         -23.9890   -4.5490   28.8530 C.2     1  UNL1       -0.0003
      5 C         -25.1370   -5.2800   29.2050 C.2     1  UNL1       -0.0000
      6 C         -26.2320   -4.6110   29.7840 C.2     1  UNL1       -0.0003
      7 C         -26.1550   -3.2320   30.0650 C.2     1  UNL1       -0.0039
      8 C         -25.3870   -0.6790   31.5710 C.3     1  UNL1        0.0809
      9 C         -25.1890    0.7730   32.0280 C.3     1  UNL1        0.0195
     10 C         -25.3360    0.6840   33.5440 C.3     1  UNL1        0.0203
     11 C         -24.8290   -0.7150   33.9050 C.3     1  UNL1        0.0887
     12 N         -24.7580   -1.4810   32.6460 N.3     1  UNL1       -0.2188
     13 C         -25.6880    1.6140   26.4610 C.2     1  UNL1        0.0407
     14 C         -26.2500    2.9200   26.3950 C.2     1  UNL1        0.0745
     15 C         -25.6420    4.0930   27.1230 C.2     1  UNL1        0.2254
     16 N         -25.6140    5.2520   26.4490 N.2     1  UNL1       -0.2356
     17 C         -25.0260    6.4790   26.9630 C.3     1  UNL1        0.1550
     18 O         -25.1430    3.9660   28.2430 O.2     1  UNL1       -0.4231
     19 C         -27.4380    3.0910   25.6450 C.2     1  UNL1        0.1068
     20 N         -28.0750    2.0890   25.0030 N.2     1  UNL1       -0.2081
     21 C         -27.5430    0.8490   25.0790 C.2     1  UNL1        0.2533
     22 O         -28.1930   -0.2080   24.4770 O.2     1  UNL1       -0.4558
     23 C         -29.4600    0.0050   23.8660 C.3     1  UNL1        0.2426
     24 C         -30.0650   -1.3770   23.5730 C.3     1  UNL1        0.2292
     25 O         -30.7290   -1.8780   24.7210 O.3     1  UNL1       -0.2162
     26 C         -26.3540    0.5760   25.7770 C.2     1  UNL1        0.1931
     27 F         -25.8600   -0.6810   25.7950 F       1  UNL1       -0.1992
     28 C         -26.9123    3.1837   30.7362 C.3     1  UNL1        0.2058
     29 C         -26.7638    1.2718   29.3278 C.3     1  UNL1        0.1991
     30 C         -24.4171    1.3634   28.9540 C.2     1  UNL1        0.0530
     31 C         -23.9777   -0.0310   29.4339 C.2     1  UNL1       -0.0034
     32 C         -26.0271    4.1757   32.9065 C.3     1  UNL1        0.1744
     33 N         -25.5718    1.8499   29.2508 N.pl3   1  UNL1       -0.2308
     34 C         -27.7249    2.0143   30.2189 C.3     1  UNL1        0.0890
     35 C         -23.5121    1.9903   27.9670 C.2     1  UNL1        0.0441
     36 C         -28.4180   -0.5165   29.3744 C.3     1  UNL1        0.1761
     37 F         -21.3993    1.9787   26.8835 F       1  UNL1       -0.2041
     38 O         -25.3896    4.7180   30.4216 O.3     1  UNL1       -0.1587
     39 C         -21.7964    0.3188   28.4395 C.2     1  UNL1        0.0294
     40 O         -26.9331    3.4670   32.0459 O.3     1  UNL1       -0.3452
     41 O         -27.0962   -0.0272   28.9965 O.3     1  UNL1       -0.3347
     42 C         -25.8216    3.5997   29.6463 C.3     1  UNL1        0.3558
     43 C         -22.2041    1.4648   27.7574 C.2     1  UNL1        0.1414
     44 C         -22.5854   -0.3562   29.3291 C.2     1  UNL1       -0.0004
@<TRIPOS>BOND
     1     1    31    1
     2     2     7    1
     3     2     1    1
     4     3     2    2
     5     4     3    1
     6     4     5    2
     7     5     6    1
     8     6     7    2
     9     8     1    1
    10     8     9    1
    11     8    12    1
    12     9    10    1
    13    10    11    1
    14    12    11    1
    15    14    13    1
    16    14    15    1
    17    15    18    1
    18    16    17    1
    19    16    15    2
    20    18    42    1
    21    19    14    2
    22    20    21    2
    23    20    19    1
    24    21    26    1
    25    22    21    1
    26    23    22    1
    27    24    23    1
    28    24    25    1
    29    26    27    1
    30    26    13    2
    31    28    40    1
    32    29    41    1
    33    29    34    1
    34    30    33    1
    35    30    31    1
    36    33    29    1
    37    33    42    1
    38    34    28    1
    39    35    30    2
    40    37    43    1
    41    39    44    1
    42    40    32    1
    43    41    36    1
    44    42    38    1
    45    42    28    1
    46    43    35    1
    47    43    39    2
    48    44    31    2
