@<TRIPOS>MOLECULE
outputs/IAG933/test6/raw/output_8102_IAG933_linker_design_.xyz
 43 47 0 0 0
SMALL
GASTEIGER

@<TRIPOS>ATOM
      1 C         -24.8550   -1.0120   30.1430 C.3     1  UNL1        0.0688
      2 C         -24.9730   -2.5050   29.7880 C.2     1  UNL1       -0.0187
      3 C         -23.9060   -3.1730   29.1460 C.2     1  UNL1       -0.0042
      4 C         -23.9890   -4.5490   28.8530 C.2     1  UNL1       -0.0003
      5 C         -25.1370   -5.2800   29.2050 C.2     1  UNL1       -0.0000
      6 C         -26.2320   -4.6110   29.7840 C.2     1  UNL1       -0.0003
      7 C         -26.1550   -3.2320   30.0650 C.2     1  UNL1       -0.0042
      8 C         -25.3870   -0.6790   31.5710 C.3     1  UNL1        0.0793
      9 C         -25.1890    0.7730   32.0280 C.3     1  UNL1        0.0193
     10 C         -25.3360    0.6840   33.5440 C.3     1  UNL1        0.0202
     11 C         -24.8290   -0.7150   33.9050 C.3     1  UNL1        0.0887
     12 N         -24.7580   -1.4810   32.6460 N.3     1  UNL1       -0.2190
     13 C         -25.6880    1.6140   26.4610 C.3     1  UNL1        0.0763
     14 C         -26.2500    2.9200   26.3950 C.2     1  UNL1        0.0550
     15 C         -25.6420    4.0930   27.1230 C.2     1  UNL1        0.2624
     16 N         -25.6140    5.2520   26.4490 N.am    1  UNL1       -0.2000
     17 C         -25.0260    6.4790   26.9630 C.3     1  UNL1        0.1388
     18 O         -25.1430    3.9660   28.2430 O.2     1  UNL1       -0.2687
     19 C         -27.4380    3.0910   25.6450 C.2     1  UNL1        0.1021
     20 N         -28.0750    2.0890   25.0030 N.2     1  UNL1       -0.2119
     21 C         -27.5430    0.8490   25.0790 C.2     1  UNL1        0.2341
     22 O         -28.1930   -0.2080   24.4770 O.2     1  UNL1       -0.4585
     23 C         -29.4600    0.0050   23.8660 C.3     1  UNL1        0.2423
     24 C         -30.0650   -1.3770   23.5730 C.3     1  UNL1        0.2292
     25 O         -30.7290   -1.8780   24.7210 O.3     1  UNL1       -0.2162
     26 C         -26.3540    0.5760   25.7770 C.3     1  UNL1        0.2402
     27 F         -25.8600   -0.6810   25.7950 F       1  UNL1       -0.2269
     28 O         -21.6501    1.5610   26.1828 O.3     1  UNL1       -0.4250
     29 C         -24.1054    0.8870   28.3722 C.3     1  UNL1        0.0683
     30 O         -23.2046    2.9295   25.3331 O.3     1  UNL1       -0.1780
     31 C         -21.5076    0.7476   28.4340 C.3     1  UNL1        0.1622
     32 O         -21.1587   -1.1068   29.4891 O.3     1  UNL1       -0.2198
     33 C         -23.4824    0.7871   24.8694 C.3     1  UNL1        0.2650
     34 O         -26.4838    0.2648   28.7190 O.3     1  UNL1       -0.2227
     35 O         -22.4609   -0.4833   30.2016 O.3     1  UNL1       -0.2223
     36 C         -21.0363    1.5354   27.4369 C.2     1  UNL1        0.3233
     37 F         -24.0613    1.0679   24.0325 F       1  UNL1       -0.2274
     38 O         -20.1230    2.3471   27.8840 O.2     1  UNL1       -0.2499
     39 C         -25.0632   -0.1532   28.8528 C.3     1  UNL1        0.1599
     40 C         -20.5177   -0.0184   28.9575 C.3     1  UNL1        0.1957
     41 C         -22.8523    0.5587   29.1483 C.3     1  UNL1        0.1677
     42 C         -24.2280    1.5329   26.9607 C.3     1  UNL1        0.0818
     43 C         -23.0466    1.6360   25.9767 C.3     1  UNL1        0.2932
@<TRIPOS>BOND
     1     1    39    1
     2     2     7    1
     3     2     1    1
     4     3     2    2
     5     4     3    1
     6     4     5    2
     7     5     6    1
     8     6     7    2
     9     8     1    1
    10     8     9    1
    11     8    12    1
    12     9    10    1
    13    10    11    1
    14    12    11    1
    15    13    14    1
    16    14    15    1
    17    15    18    2
    18    16    17    1
    19    16    15    1
    20    19    14    2
    21    20    21    2
    22    20    19    1
    23    21    26    1
    24    22    21    1
    25    23    22    1
    26    24    23    1
    27    24    25    1
    28    26    27    1
    29    26    13    1
    30    28    36    1
    31    29    39    1
    32    29    41    1
    33    31    40    1
    34    31    41    1
    35    32    35    1
    36    33    43    1
    37    36    38    2
    38    36    31    1
    39    37    33    1
    40    39    34    1
    41    40    32    1
    42    41    35    1
    43    42    13    1
    44    42    29    1
    45    43    30    1
    46    43    28    1
    47    43    42    1
