@<TRIPOS>MOLECULE
outputs/IAG933/test6/raw/output_8104_IAG933_linker_design_.xyz
 46 51 0 0 0
SMALL
GASTEIGER

@<TRIPOS>ATOM
      1 C         -24.8550   -1.0120   30.1430 C.3     1  UNL1        0.0498
      2 C         -24.9730   -2.5050   29.7880 C.2     1  UNL1       -0.0206
      3 C         -23.9060   -3.1730   29.1460 C.2     1  UNL1       -0.0042
      4 C         -23.9890   -4.5490   28.8530 C.2     1  UNL1       -0.0003
      5 C         -25.1370   -5.2800   29.2050 C.2     1  UNL1       -0.0000
      6 C         -26.2320   -4.6110   29.7840 C.2     1  UNL1       -0.0003
      7 C         -26.1550   -3.2320   30.0650 C.2     1  UNL1       -0.0042
      8 C         -25.3870   -0.6790   31.5710 C.3     1  UNL1        0.0774
      9 C         -25.1890    0.7730   32.0280 C.3     1  UNL1        0.0192
     10 C         -25.3360    0.6840   33.5440 C.3     1  UNL1        0.0202
     11 C         -24.8290   -0.7150   33.9050 C.3     1  UNL1        0.0887
     12 N         -24.7580   -1.4810   32.6460 N.3     1  UNL1       -0.2191
     13 C         -25.6880    1.6140   26.4610 C.3     1  UNL1        0.0746
     14 C         -26.2500    2.9200   26.3950 C.2     1  UNL1        0.0551
     15 C         -25.6420    4.0930   27.1230 C.2     1  UNL1        0.2624
     16 N         -25.6140    5.2520   26.4490 N.am    1  UNL1       -0.2000
     17 C         -25.0260    6.4790   26.9630 C.3     1  UNL1        0.1388
     18 O         -25.1430    3.9660   28.2430 O.2     1  UNL1       -0.2687
     19 C         -27.4380    3.0910   25.6450 C.2     1  UNL1        0.1021
     20 N         -28.0750    2.0890   25.0030 N.2     1  UNL1       -0.2119
     21 C         -27.5430    0.8490   25.0790 C.2     1  UNL1        0.2341
     22 O         -28.1930   -0.2080   24.4770 O.2     1  UNL1       -0.4585
     23 C         -29.4600    0.0050   23.8660 C.3     1  UNL1        0.2423
     24 C         -30.0650   -1.3770   23.5730 C.3     1  UNL1        0.2292
     25 O         -30.7290   -1.8780   24.7210 O.3     1  UNL1       -0.2162
     26 C         -26.3540    0.5760   25.7770 C.3     1  UNL1        0.2403
     27 F         -25.8600   -0.6810   25.7950 F       1  UNL1       -0.2269
     28 C         -28.3801    3.1025   30.6584 C.3     1  UNL1        0.0526
     29 C         -23.2179    1.8585   25.8303 C.3     1  UNL1        0.3471
     30 C         -26.6435    0.3201   28.9653 C.2     1  UNL1        0.2460
     31 O         -27.3316   -0.6884   28.9109 O.2     1  UNL1       -0.2732
     32 C         -25.0365    0.2387   28.9990 C.3     1  UNL1        0.1134
     33 F         -23.9710    2.0850   24.7864 F       1  UNL1       -0.1837
     34 C         -24.9115    0.9577   27.5353 C.3     1  UNL1        0.0432
     35 C         -28.5665    1.9335   29.6942 C.3     1  UNL1        0.1714
     36 O         -21.8996    2.1106   25.5786 O.2     1  UNL1       -0.4431
     37 C         -23.5378    0.7427   29.2981 C.3     1  UNL1        0.1916
     38 C         -21.3843    1.4411   27.8429 C.2     1  UNL1        0.0381
     39 N         -27.1772    1.5624   29.0622 N.am    1  UNL1       -0.1819
     40 C         -21.0494    1.9058   26.6033 C.2     1  UNL1        0.1754
     41 O         -29.5990    0.9725   29.1900 O.3     1  UNL1       -0.3375
     42 C         -29.4805    3.2969   29.6578 C.3     1  UNL1        0.0526
     43 F         -22.6754   -0.0328   30.1049 F       1  UNL1       -0.2319
     44 C         -23.6217    1.3228   27.0553 C.2     1  UNL1        0.0291
     45 C         -29.8863    1.0553   27.7699 C.3     1  UNL1        0.1760
     46 C         -22.7388    1.1740   28.0488 C.2     1  UNL1        0.0117
@<TRIPOS>BOND
     1     1     2    1
     2     2     7    1
     3     3     2    2
     4     4     3    1
     5     4     5    2
     6     5     6    1
     7     6     7    2
     8     8     1    1
     9     8     9    1
    10     8    12    1
    11     9    10    1
    12    10    11    1
    13    12    11    1
    14    13    14    1
    15    13    34    1
    16    14    15    1
    17    15    18    2
    18    16    17    1
    19    16    15    1
    20    19    14    2
    21    20    21    2
    22    20    19    1
    23    21    26    1
    24    22    21    1
    25    23    22    1
    26    24    23    1
    27    24    25    1
    28    26    27    1
    29    26    13    1
    30    29    33    1
    31    29    44    1
    32    30    39    1
    33    31    30    2
    34    32    30    1
    35    32    37    1
    36    32     1    1
    37    34    44    1
    38    34    32    1
    39    35    28    1
    40    36    29    1
    41    36    40    1
    42    37    43    1
    43    38    46    1
    44    39    35    1
    45    40    38    2
    46    41    35    1
    47    42    35    1
    48    42    28    1
    49    44    46    2
    50    45    41    1
    51    46    37    1
