@<TRIPOS>MOLECULE
outputs/IAG933/test6/raw/output_8107_IAG933_linker_design_.xyz
 44 48 0 0 0
SMALL
GASTEIGER

@<TRIPOS>ATOM
      1 C         -24.8550   -1.0120   30.1430 C.3     1  UNL1        0.0585
      2 C         -24.9730   -2.5050   29.7880 C.2     1  UNL1       -0.0195
      3 C         -23.9060   -3.1730   29.1460 C.2     1  UNL1       -0.0042
      4 C         -23.9890   -4.5490   28.8530 C.2     1  UNL1       -0.0003
      5 C         -25.1370   -5.2800   29.2050 C.2     1  UNL1       -0.0000
      6 C         -26.2320   -4.6110   29.7840 C.2     1  UNL1       -0.0003
      7 C         -26.1550   -3.2320   30.0650 C.2     1  UNL1       -0.0042
      8 C         -25.3870   -0.6790   31.5710 C.3     1  UNL1        0.0785
      9 C         -25.1890    0.7730   32.0280 C.3     1  UNL1        0.0192
     10 C         -25.3360    0.6840   33.5440 C.3     1  UNL1        0.0202
     11 C         -24.8290   -0.7150   33.9050 C.3     1  UNL1        0.0887
     12 N         -24.7580   -1.4810   32.6460 N.3     1  UNL1       -0.2191
     13 C         -25.6880    1.6140   26.4610 C.3     1  UNL1        0.0938
     14 C         -26.2500    2.9200   26.3950 C.2     1  UNL1        0.0589
     15 C         -25.6420    4.0930   27.1230 C.2     1  UNL1        0.2628
     16 N         -25.6140    5.2520   26.4490 N.am    1  UNL1       -0.2000
     17 C         -25.0260    6.4790   26.9630 C.3     1  UNL1        0.1388
     18 O         -25.1430    3.9660   28.2430 O.2     1  UNL1       -0.2686
     19 C         -27.4380    3.0910   25.6450 C.2     1  UNL1        0.1025
     20 N         -28.0750    2.0890   25.0030 N.2     1  UNL1       -0.2118
     21 C         -27.5430    0.8490   25.0790 C.2     1  UNL1        0.2344
     22 O         -28.1930   -0.2080   24.4770 O.2     1  UNL1       -0.4585
     23 C         -29.4600    0.0050   23.8660 C.3     1  UNL1        0.2423
     24 C         -30.0650   -1.3770   23.5730 C.3     1  UNL1        0.2292
     25 O         -30.7290   -1.8780   24.7210 O.3     1  UNL1       -0.2162
     26 C         -26.3540    0.5760   25.7770 C.3     1  UNL1        0.2440
     27 F         -25.8600   -0.6810   25.7950 F       1  UNL1       -0.2265
     28 C         -23.8580    1.0054   27.8905 C.2     1  UNL1        0.0923
     29 C         -29.4633   -0.0219   28.5500 C.2     1  UNL1       -0.0042
     30 N         -24.8995    0.8153   28.7181 N.pl3   1  UNL1       -0.2366
     31 C         -27.0575   -0.6053   28.6552 C.3     1  UNL1        0.0483
     32 C         -27.9714    1.3868   29.8056 C.2     1  UNL1       -0.0042
     33 C         -30.5202    0.8372   28.8591 C.2     1  UNL1       -0.0003
     34 C         -21.3930    1.2821   27.6180 C.2     1  UNL1        0.2104
     35 C         -23.5646    2.0220   25.8609 C.2     1  UNL1        0.0382
     36 C         -28.1828    0.2786   28.9994 C.2     1  UNL1       -0.0205
     37 C         -24.2623    1.5124   26.7140 C.2     1  UNL1        0.0052
     38 C         -25.8021   -0.1040   29.3512 C.3     1  UNL1        0.1022
     39 C         -29.0380    2.1996   30.1588 C.2     1  UNL1       -0.0003
     40 C         -22.5112    0.8296   28.2848 C.2     1  UNL1        0.1919
     41 O         -21.3338    1.9521   26.4878 O.2     1  UNL1       -0.4449
     42 F         -22.3153    0.1728   29.4730 F       1  UNL1       -0.1995
     43 C         -22.2503    2.2142   25.5485 C.2     1  UNL1        0.1795
     44 C         -30.3157    1.9324   29.6976 C.2     1  UNL1       -0.0000
@<TRIPOS>BOND
     1     1    38    1
     2     2     7    1
     3     2     1    1
     4     3     2    2
     5     4     3    1
     6     4     5    2
     7     5     6    1
     8     6     7    2
     9     8     1    1
    10     8     9    1
    11     8    12    1
    12     9    10    1
    13    10    11    1
    14    12    11    1
    15    13    37    1
    16    14    13    1
    17    14    15    1
    18    15    18    2
    19    16    17    1
    20    16    15    1
    21    19    14    2
    22    20    21    2
    23    20    19    1
    24    21    26    1
    25    22    21    1
    26    23    22    1
    27    24    23    1
    28    24    25    1
    29    26    27    1
    30    26    13    1
    31    28    40    1
    32    28    30    1
    33    29    33    2
    34    29    36    1
    35    30    38    1
    36    31    36    1
    37    32    39    1
    38    33    44    1
    39    34    40    2
    40    35    37    1
    41    36    32    2
    42    37    28    2
    43    38    31    1
    44    40    42    1
    45    41    34    1
    46    43    35    2
    47    43    41    1
    48    44    39    2
