@<TRIPOS>MOLECULE
No_811-gen_results/8p0m/2024-11-27-11-27-31/
 13 13 0 0 0
SMALL
GASTEIGER

@<TRIPOS>ATOM
      1 C         -28.0162   -0.8135   28.8779 C.2     1  UNL1        0.2536
      2 C         -27.0636   -0.1190   28.6079 C.ar    1  UNL1        0.0510
      3 C         -25.7923   -0.4302   29.0761 C.ar    1  UNL1        0.0156
      4 C         -24.5456    0.3494   28.8225 C.ar    1  UNL1        0.0625
      5 C         -24.6586    1.4196   27.8878 C.ar    1  UNL1        0.0699
      6 C         -25.9471    1.6811   27.3792 C.ar    1  UNL1        0.0058
      7 C         -27.0439    0.9739   27.6871 C.ar    1  UNL1        0.0043
      8 CL        -29.5277   -0.2280   28.6625 Cl      1  UNL1       -0.0382
      9 O         -27.9151   -1.9486   29.5875 O.2     1  UNL1       -0.2739
     10 C         -23.6021    2.3247   27.6026 C.2     1  UNL1        0.2976
     11 N         -22.5692    2.0772   27.1927 N.2     1  UNL1       -0.1024
     12 O         -23.9260    3.6163   27.5582 O.2     1  UNL1       -0.2636
     13 CL        -23.0417   -0.0533   29.4804 Cl      1  UNL1       -0.0821
@<TRIPOS>BOND
     1     1     2    1
     2     1     8    1
     3     1     9    2
     4     5    10    1
     5    10    11    2
     6    10    12    1
     7     4    13    1
     8     2     3   ar
     9     3     4   ar
    10     4     5   ar
    11     5     6   ar
    12     6     7   ar
    13     7     2   ar
