@<TRIPOS>MOLECULE
outputs/IAG933/test6/raw/output_8112_IAG933_linker_design_.xyz
 44 47 0 0 0
SMALL
GASTEIGER

@<TRIPOS>ATOM
      1 C         -24.8550   -1.0120   30.1430 C.3     1  UNL1        0.0972
      2 C         -24.9730   -2.5050   29.7880 C.2     1  UNL1       -0.0064
      3 C         -23.9060   -3.1730   29.1460 C.2     1  UNL1       -0.0029
      4 C         -23.9890   -4.5490   28.8530 C.2     1  UNL1       -0.0003
      5 C         -25.1370   -5.2800   29.2050 C.2     1  UNL1       -0.0000
      6 C         -26.2320   -4.6110   29.7840 C.2     1  UNL1       -0.0003
      7 C         -26.1550   -3.2320   30.0650 C.2     1  UNL1       -0.0029
      8 C         -25.3870   -0.6790   31.5710 C.3     1  UNL1        0.0916
      9 C         -25.1890    0.7730   32.0280 C.3     1  UNL1        0.0206
     10 C         -25.3360    0.6840   33.5440 C.3     1  UNL1        0.0203
     11 C         -24.8290   -0.7150   33.9050 C.3     1  UNL1        0.0888
     12 N         -24.7580   -1.4810   32.6460 N.3     1  UNL1       -0.2178
     13 C         -25.6880    1.6140   26.4610 C.2     1  UNL1        0.0207
     14 C         -26.2500    2.9200   26.3950 C.2     1  UNL1        0.0727
     15 C         -25.6420    4.0930   27.1230 C.2     1  UNL1        0.2661
     16 N         -25.6140    5.2520   26.4490 N.am    1  UNL1       -0.1997
     17 C         -25.0260    6.4790   26.9630 C.3     1  UNL1        0.1388
     18 O         -25.1430    3.9660   28.2430 O.2     1  UNL1       -0.2683
     19 C         -27.4380    3.0910   25.6450 C.2     1  UNL1        0.1064
     20 N         -28.0750    2.0890   25.0030 N.2     1  UNL1       -0.2081
     21 C         -27.5430    0.8490   25.0790 C.2     1  UNL1        0.2530
     22 O         -28.1930   -0.2080   24.4770 O.2     1  UNL1       -0.4558
     23 C         -29.4600    0.0050   23.8660 C.3     1  UNL1        0.2426
     24 C         -30.0650   -1.3770   23.5730 C.3     1  UNL1        0.2292
     25 O         -30.7290   -1.8780   24.7210 O.3     1  UNL1       -0.2162
     26 C         -26.3540    0.5760   25.7770 C.2     1  UNL1        0.1893
     27 F         -25.8600   -0.6810   25.7950 F       1  UNL1       -0.1996
     28 C         -27.1142    3.3849   30.8686 C.3     1  UNL1        0.0174
     29 N         -24.2232   -0.0123   29.3587 N.3     1  UNL1       -0.2570
     30 C         -23.5728    1.0324   24.4973 C.3     1  UNL1        0.2175
     31 O         -22.5143    2.2583   26.1446 O.3     1  UNL1       -0.2224
     32 O         -28.3028   -0.1822   29.2230 O.3     1  UNL1       -0.2005
     33 C         -25.1199    1.1241   28.8931 C.3     1  UNL1        0.1272
     34 O         -22.5239    1.8864   24.9821 O.3     1  UNL1       -0.2176
     35 C         -20.9633    1.0168   27.7948 C.3     1  UNL1        0.1971
     36 C         -27.4813    2.3939   30.1687 C.3     1  UNL1        0.0757
     37 C         -23.2763    1.5544   27.2750 C.3     1  UNL1        0.1627
     38 C         -22.8063    0.3777   29.4386 C.3     1  UNL1        0.0789
     39 C         -27.4623    0.4362   29.1890 C.3     1  UNL1        0.2599
     40 F         -20.6068    2.4359   27.7174 F       1  UNL1       -0.2342
     41 C         -24.5758    1.2887   27.5142 C.3     1  UNL1        0.0855
     42 C         -22.4143    0.9639   28.1321 C.3     1  UNL1        0.0822
     43 C         -26.6062    4.5642   31.7334 C.3     1  UNL1        0.0015
     44 N         -26.6354    1.6334   29.1232 N.3     1  UNL1       -0.2327
@<TRIPOS>BOND
     1     1     2    1
     2     2     7    1
     3     3     2    2
     4     4     3    1
     5     4     5    2
     6     5     6    1
     7     6     7    2
     8     8     1    1
     9     8     9    1
    10     8    12    1
    11     9    10    1
    12    10    11    1
    13    12    11    1
    14    14    13    1
    15    14    15    1
    16    15    18    2
    17    16    17    1
    18    16    15    1
    19    19    14    2
    20    20    21    2
    21    20    19    1
    22    21    26    1
    23    22    21    1
    24    23    22    1
    25    24    23    1
    26    24    25    1
    27    26    27    1
    28    26    13    2
    29    28    43    1
    30    29    38    1
    31    29     1    1
    32    30    34    1
    33    33    44    1
    34    33    29    1
    35    34    31    1
    36    36    28    1
    37    37    31    1
    38    37    41    1
    39    37    42    1
    40    39    32    1
    41    40    35    1
    42    41    13    1
    43    41    33    1
    44    42    35    1
    45    42    38    1
    46    44    39    1
    47    44    36    1
