@<TRIPOS>MOLECULE
outputs/IAG933/test6/raw/output_8116_IAG933_linker_design_.xyz
 42 45 0 0 0
SMALL
GASTEIGER

@<TRIPOS>ATOM
      1 C         -24.8550   -1.0120   30.1430 C.3     1  UNL1        0.0398
      2 C         -24.9730   -2.5050   29.7880 C.2     1  UNL1       -0.0211
      3 C         -23.9060   -3.1730   29.1460 C.2     1  UNL1       -0.0042
      4 C         -23.9890   -4.5490   28.8530 C.2     1  UNL1       -0.0003
      5 C         -25.1370   -5.2800   29.2050 C.2     1  UNL1       -0.0000
      6 C         -26.2320   -4.6110   29.7840 C.2     1  UNL1       -0.0003
      7 C         -26.1550   -3.2320   30.0650 C.2     1  UNL1       -0.0042
      8 C         -25.3870   -0.6790   31.5710 C.3     1  UNL1        0.0768
      9 C         -25.1890    0.7730   32.0280 C.3     1  UNL1        0.0192
     10 C         -25.3360    0.6840   33.5440 C.3     1  UNL1        0.0202
     11 C         -24.8290   -0.7150   33.9050 C.3     1  UNL1        0.0887
     12 N         -24.7580   -1.4810   32.6460 N.3     1  UNL1       -0.2191
     13 C         -25.6880    1.6140   26.4610 C.2     1  UNL1        0.0243
     14 C         -26.2500    2.9200   26.3950 C.2     1  UNL1        0.0730
     15 C         -25.6420    4.0930   27.1230 C.2     1  UNL1        0.2661
     16 N         -25.6140    5.2520   26.4490 N.am    1  UNL1       -0.1997
     17 C         -25.0260    6.4790   26.9630 C.3     1  UNL1        0.1388
     18 O         -25.1430    3.9660   28.2430 O.2     1  UNL1       -0.2683
     19 C         -27.4380    3.0910   25.6450 C.2     1  UNL1        0.1064
     20 N         -28.0750    2.0890   25.0030 N.2     1  UNL1       -0.2081
     21 C         -27.5430    0.8490   25.0790 C.2     1  UNL1        0.2530
     22 O         -28.1930   -0.2080   24.4770 O.2     1  UNL1       -0.4558
     23 C         -29.4600    0.0050   23.8660 C.3     1  UNL1        0.2426
     24 C         -30.0650   -1.3770   23.5730 C.3     1  UNL1        0.2292
     25 O         -30.7290   -1.8780   24.7210 O.3     1  UNL1       -0.2162
     26 C         -26.3540    0.5760   25.7770 C.2     1  UNL1        0.1896
     27 F         -25.8600   -0.6810   25.7950 F       1  UNL1       -0.1996
     28 C         -27.7467    4.0860   30.7524 C.3     1  UNL1        0.0543
     29 C         -24.1381    1.4550   28.7196 C.3     1  UNL1        0.1211
     30 N         -25.6048    2.6648   30.1467 N.3     1  UNL1       -0.2176
     31 C         -24.3294    1.3751   27.1721 C.3     1  UNL1        0.1056
     32 C         -25.8448   -0.1824   29.1652 C.3     1  UNL1        0.0249
     33 C         -23.0731    1.8997   26.4551 C.2     1  UNL1        0.1806
     34 N         -23.0556    0.6074   29.3745 N.pl3   1  UNL1       -0.2178
     35 O         -23.1956    2.6749   25.5926 O.2     1  UNL1       -0.2936
     36 O         -30.0420    3.3516   30.2256 O.3     1  UNL1       -0.2204
     37 C         -21.8085    0.2083   28.9777 C.2     1  UNL1        0.1767
     38 C         -28.6517    3.1132   29.9165 C.3     1  UNL1        0.1836
     39 C         -21.7911    1.4688   26.8535 C.3     1  UNL1        0.1913
     40 C         -25.5863    1.3534   29.3289 C.3     1  UNL1        0.0937
     41 C         -26.1814    3.9530   30.6598 C.3     1  UNL1        0.0914
     42 N         -21.3176    0.5504   27.8412 N.2     1  UNL1       -0.2446
@<TRIPOS>BOND
     1     1    32    1
     2     2     7    1
     3     2     1    1
     4     3     2    2
     5     4     3    1
     6     4     5    2
     7     5     6    1
     8     6     7    2
     9     8     1    1
    10     8     9    1
    11     8    12    1
    12     9    10    1
    13    10    11    1
    14    12    11    1
    15    14    13    1
    16    14    15    1
    17    15    18    2
    18    16    17    1
    19    16    15    1
    20    19    14    2
    21    20    21    2
    22    20    19    1
    23    21    26    1
    24    22    21    1
    25    23    22    1
    26    24    23    1
    27    24    25    1
    28    26    27    1
    29    26    13    2
    30    29    40    1
    31    29    34    1
    32    30    41    1
    33    31    13    1
    34    31    29    1
    35    33    39    1
    36    33    31    1
    37    35    33    2
    38    37    34    1
    39    38    36    1
    40    38    28    1
    41    39    42    1
    42    40    32    1
    43    40    30    1
    44    41    28    1
    45    42    37    2
