@<TRIPOS>MOLECULE
outputs/IAG933/test6/raw/output_8121_IAG933_linker_design_.xyz
 44 46 0 0 0
SMALL
GASTEIGER

@<TRIPOS>ATOM
      1 C         -24.8550   -1.0120   30.1430 C.3     1  UNL1        0.0651
      2 C         -24.9730   -2.5050   29.7880 C.2     1  UNL1       -0.0169
      3 C         -23.9060   -3.1730   29.1460 C.2     1  UNL1       -0.0039
      4 C         -23.9890   -4.5490   28.8530 C.2     1  UNL1       -0.0003
      5 C         -25.1370   -5.2800   29.2050 C.2     1  UNL1       -0.0000
      6 C         -26.2320   -4.6110   29.7840 C.2     1  UNL1       -0.0003
      7 C         -26.1550   -3.2320   30.0650 C.2     1  UNL1       -0.0039
      8 C         -25.3870   -0.6790   31.5710 C.3     1  UNL1        0.0810
      9 C         -25.1890    0.7730   32.0280 C.3     1  UNL1        0.0195
     10 C         -25.3360    0.6840   33.5440 C.3     1  UNL1        0.0203
     11 C         -24.8290   -0.7150   33.9050 C.3     1  UNL1        0.0887
     12 N         -24.7580   -1.4810   32.6460 N.3     1  UNL1       -0.2188
     13 C         -25.6880    1.6140   26.4610 C.2     1  UNL1        0.0590
     14 C         -26.2500    2.9200   26.3950 C.2     1  UNL1        0.0803
     15 C         -25.6420    4.0930   27.1230 C.2     1  UNL1        0.2667
     16 N         -25.6140    5.2520   26.4490 N.am    1  UNL1       -0.1997
     17 C         -25.0260    6.4790   26.9630 C.3     1  UNL1        0.1388
     18 O         -25.1430    3.9660   28.2430 O.2     1  UNL1       -0.2683
     19 C         -27.4380    3.0910   25.6450 C.2     1  UNL1        0.1067
     20 N         -28.0750    2.0890   25.0030 N.2     1  UNL1       -0.2112
     21 C         -27.5430    0.8490   25.0790 C.2     1  UNL1        0.2389
     22 O         -28.1930   -0.2080   24.4770 O.2     1  UNL1       -0.4583
     23 C         -29.4600    0.0050   23.8660 C.3     1  UNL1        0.2423
     24 C         -30.0650   -1.3770   23.5730 C.3     1  UNL1        0.2292
     25 O         -30.7290   -1.8780   24.7210 O.3     1  UNL1       -0.2162
     26 C         -26.3540    0.5760   25.7770 C.3     1  UNL1        0.2653
     27 F         -25.8600   -0.6810   25.7950 F       1  UNL1       -0.2217
     28 O         -27.2880    4.1635   30.6314 O.2     1  UNL1       -0.2728
     29 C         -25.2509    0.1135   29.0879 C.2     1  UNL1        0.0387
     30 C         -23.8211    0.4939   28.5244 C.2     1  UNL1        0.0078
     31 C         -22.2127    1.5570   27.1797 C.3     1  UNL1        0.2370
     32 N         -26.8318    1.9592   29.2377 N.am    1  UNL1       -0.1412
     33 O         -22.0220    1.7911   25.9442 O.3     1  UNL1       -0.3319
     34 C         -24.7638    1.3986   27.2546 C.1     1  UNL1       -0.1032
     35 C         -23.1221    2.0166   25.0559 C.3     1  UNL1        0.1762
     36 C         -27.6004    3.0702   29.9253 C.2     1  UNL1        0.2502
     37 C         -26.6695    0.6009   28.9687 C.2     1  UNL1        0.2677
     38 N         -21.0575    1.5665   27.8926 N.3     1  UNL1       -0.0946
     39 O         -29.3748    5.4012   28.7811 O.3     1  UNL1       -0.2199
     40 C         -29.5075    1.6862   29.1669 C.3     1  UNL1        0.0124
     41 C         -29.4336    4.0111   28.8064 C.3     1  UNL1        0.1912
     42 C         -29.0144    3.0787   29.4962 C.3     1  UNL1        0.1115
     43 O         -27.5601   -0.2004   28.7059 O.2     1  UNL1       -0.2683
     44 C         -23.5363    1.1965   27.7374 C.2     1  UNL1        0.0569
@<TRIPOS>BOND
     1     1    29    1
     2     2     7    1
     3     2     1    1
     4     3     2    2
     5     4     3    1
     6     4     5    2
     7     5     6    1
     8     6     7    2
     9     8     1    1
    10     8     9    1
    11     8    12    1
    12     9    10    1
    13    10    11    1
    14    12    11    1
    15    13    34    2
    16    14    13    1
    17    14    15    1
    18    15    18    2
    19    16    17    1
    20    16    15    1
    21    19    14    2
    22    20    21    2
    23    20    19    1
    24    21    26    1
    25    22    21    1
    26    23    22    1
    27    24    23    1
    28    24    25    1
    29    26    27    1
    30    26    13    1
    31    30    29    2
    32    31    44    1
    33    31    38    1
    34    32    36    1
    35    33    31    1
    36    34    44    2
    37    35    33    1
    38    36    28    2
    39    37    29    1
    40    37    32    1
    41    39    41    1
    42    41    42    1
    43    42    40    1
    44    42    36    1
    45    43    37    2
    46    44    30    1
