@<TRIPOS>MOLECULE
outputs/IAG933/test6/raw/output_8129_IAG933_linker_design_.xyz
 43 47 0 0 0
SMALL
GASTEIGER

@<TRIPOS>ATOM
      1 C         -24.8550   -1.0120   30.1430 C.3     1  UNL1        0.2032
      2 C         -24.9730   -2.5050   29.7880 C.2     1  UNL1        0.0217
      3 C         -23.9060   -3.1730   29.1460 C.2     1  UNL1       -0.0004
      4 C         -23.9890   -4.5490   28.8530 C.2     1  UNL1       -0.0002
      5 C         -25.1370   -5.2800   29.2050 C.2     1  UNL1       -0.0000
      6 C         -26.2320   -4.6110   29.7840 C.2     1  UNL1       -0.0002
      7 C         -26.1550   -3.2320   30.0650 C.2     1  UNL1       -0.0004
      8 C         -25.3870   -0.6790   31.5710 C.3     1  UNL1        0.1201
      9 C         -25.1890    0.7730   32.0280 C.3     1  UNL1        0.0233
     10 C         -25.3360    0.6840   33.5440 C.3     1  UNL1        0.0204
     11 C         -24.8290   -0.7150   33.9050 C.3     1  UNL1        0.0889
     12 N         -24.7580   -1.4810   32.6460 N.3     1  UNL1       -0.2150
     13 C         -25.6880    1.6140   26.4610 C.2     1  UNL1        0.0442
     14 C         -26.2500    2.9200   26.3950 C.2     1  UNL1        0.0767
     15 C         -25.6420    4.0930   27.1230 C.2     1  UNL1        0.2664
     16 N         -25.6140    5.2520   26.4490 N.am    1  UNL1       -0.1997
     17 C         -25.0260    6.4790   26.9630 C.3     1  UNL1        0.1388
     18 O         -25.1430    3.9660   28.2430 O.2     1  UNL1       -0.2683
     19 C         -27.4380    3.0910   25.6450 C.2     1  UNL1        0.1067
     20 N         -28.0750    2.0890   25.0030 N.2     1  UNL1       -0.2081
     21 C         -27.5430    0.8490   25.0790 C.2     1  UNL1        0.2533
     22 O         -28.1930   -0.2080   24.4770 O.2     1  UNL1       -0.4558
     23 C         -29.4600    0.0050   23.8660 C.3     1  UNL1        0.2426
     24 C         -30.0650   -1.3770   23.5730 C.3     1  UNL1        0.2292
     25 O         -30.7290   -1.8780   24.7210 O.3     1  UNL1       -0.2162
     26 C         -26.3540    0.5760   25.7770 C.2     1  UNL1        0.1932
     27 F         -25.8600   -0.6810   25.7950 F       1  UNL1       -0.1992
     28 N         -25.4833   -0.0588   29.1821 N.pl3   1  UNL1       -0.1687
     29 C         -23.1850    1.5745   26.9214 C.2     1  UNL1        0.2063
     30 C         -24.5620    0.5928   28.4373 C.2     1  UNL1        0.1406
     31 O         -22.5325    1.9960   25.8670 O.2     1  UNL1       -0.2931
     32 F         -21.1488    1.5090   28.0649 F       1  UNL1       -0.2239
     33 N         -28.0965    2.8583   31.0615 N.pl3   1  UNL1        0.2164
     34 C         -23.2049    0.5894   28.9347 C.2     1  UNL1        0.0567
     35 C         -22.4105    1.2434   27.9143 C.3     1  UNL1        0.2466
     36 C         -27.9289   -0.5598   28.9118 C.2     1  UNL1        0.0902
     37 N         -26.9849    1.5687   29.3217 N.2     1  UNL1        0.0084
     38 C         -28.1791    1.9375   29.8234 C.2     1  UNL1        0.4187
     39 C         -29.2360   -0.0225   28.9280 C.2     1  UNL1        0.0155
     40 C         -29.3564    1.3297   29.3374 C.2     1  UNL1        0.0984
     41 C         -24.4981    1.3066   27.2274 C.2     1  UNL1        0.0763
     42 C         -26.7890    0.2665   29.1336 C.2     1  UNL1        0.3327
     43 F         -23.3547    2.7108   25.2511 F       1  UNL1        0.0136
@<TRIPOS>BOND
     1     1    28    1
     2     2     7    1
     3     2     1    1
     4     3     2    2
     5     4     3    1
     6     4     5    2
     7     5     6    1
     8     6     7    2
     9     8     1    1
    10     8     9    1
    11     8    12    1
    12     9    10    1
    13    10    11    1
    14    12    11    1
    15    13    41    1
    16    14    13    1
    17    14    15    1
    18    15    18    2
    19    16    17    1
    20    16    15    1
    21    19    14    2
    22    20    21    2
    23    20    19    1
    24    21    26    1
    25    22    21    1
    26    23    22    1
    27    24    23    1
    28    24    25    1
    29    26    27    1
    30    26    13    2
    31    29    41    2
    32    29    35    1
    33    30    34    2
    34    30    28    1
    35    31    29    1
    36    35    32    1
    37    35    34    1
    38    36    39    2
    39    36    42    1
    40    37    38    1
    41    38    33    1
    42    39    40    1
    43    40    38    2
    44    41    30    1
    45    42    28    1
    46    42    37    2
    47    43    31    1
