@<TRIPOS>MOLECULE
outputs/IAG933/test6/raw/output_813_IAG933_linker_design_.xyz
 42 46 0 0 0
SMALL
GASTEIGER

@<TRIPOS>ATOM
      1 C         -24.8550   -1.0120   30.1430 C.3     1  UNL1        0.0813
      2 C         -24.9730   -2.5050   29.7880 C.2     1  UNL1       -0.0174
      3 C         -23.9060   -3.1730   29.1460 C.2     1  UNL1       -0.0041
      4 C         -23.9890   -4.5490   28.8530 C.2     1  UNL1       -0.0003
      5 C         -25.1370   -5.2800   29.2050 C.2     1  UNL1       -0.0000
      6 C         -26.2320   -4.6110   29.7840 C.2     1  UNL1       -0.0003
      7 C         -26.1550   -3.2320   30.0650 C.2     1  UNL1       -0.0041
      8 C         -25.3870   -0.6790   31.5710 C.3     1  UNL1        0.0806
      9 C         -25.1890    0.7730   32.0280 C.3     1  UNL1        0.0193
     10 C         -25.3360    0.6840   33.5440 C.3     1  UNL1        0.0202
     11 C         -24.8290   -0.7150   33.9050 C.3     1  UNL1        0.0887
     12 N         -24.7580   -1.4810   32.6460 N.3     1  UNL1       -0.2190
     13 C         -25.6880    1.6140   26.4610 C.3     1  UNL1        0.0756
     14 C         -26.2500    2.9200   26.3950 C.2     1  UNL1        0.0552
     15 C         -25.6420    4.0930   27.1230 C.2     1  UNL1        0.2625
     16 N         -25.6140    5.2520   26.4490 N.am    1  UNL1       -0.2000
     17 C         -25.0260    6.4790   26.9630 C.3     1  UNL1        0.1388
     18 O         -25.1430    3.9660   28.2430 O.2     1  UNL1       -0.2687
     19 C         -27.4380    3.0910   25.6450 C.2     1  UNL1        0.1021
     20 N         -28.0750    2.0890   25.0030 N.2     1  UNL1       -0.2119
     21 C         -27.5430    0.8490   25.0790 C.2     1  UNL1        0.2341
     22 O         -28.1930   -0.2080   24.4770 O.2     1  UNL1       -0.4585
     23 C         -29.4600    0.0050   23.8660 C.3     1  UNL1        0.2423
     24 C         -30.0650   -1.3770   23.5730 C.3     1  UNL1        0.2292
     25 O         -30.7290   -1.8780   24.7210 O.3     1  UNL1       -0.2162
     26 C         -26.3540    0.5760   25.7770 C.3     1  UNL1        0.2404
     27 F         -25.8600   -0.6810   25.7950 F       1  UNL1       -0.2269
     28 C         -23.4425    1.9751   26.0437 C.2     1  UNL1        0.0080
     29 N         -25.2151    0.8779   28.8971 N.3     1  UNL1       -0.1930
     30 C         -22.7900    0.7701   28.5286 C.3     1  UNL1        0.1058
     31 C         -20.9826   -0.7791   29.0375 C.2     1  UNL1        0.2302
     32 C         -27.3889   -0.2547   29.3640 C.3     1  UNL1        0.1879
     33 C         -24.3842    1.5430   26.8644 C.3     1  UNL1        0.0486
     34 C         -21.8244    1.3783   27.6212 C.2     1  UNL1        0.2050
     35 F         -21.3570    2.1869   25.5720 F       1  UNL1       -0.2015
     36 C         -25.8673   -0.3220   29.1318 C.3     1  UNL1        0.1848
     37 O         -20.6711    1.4489   27.6155 O.2     1  UNL1       -0.2886
     38 C         -24.1552    1.0710   28.2152 C.3     1  UNL1        0.0911
     39 C         -22.1638    1.9250   26.4757 C.2     1  UNL1        0.1707
     40 O         -26.6262   -0.8123   28.3988 O.3     1  UNL1       -0.3365
     41 C         -22.2213   -0.1546   29.4093 C.2     1  UNL1        0.0281
     42 O         -20.3454   -0.2831   27.9010 O.2     1  UNL1       -0.2835
@<TRIPOS>BOND
     1     1     2    1
     2     2     7    1
     3     3     2    2
     4     4     3    1
     5     4     5    2
     6     5     6    1
     7     6     7    2
     8     8     1    1
     9     8     9    1
    10     8    12    1
    11     9    10    1
    12    10    11    1
    13    12    11    1
    14    13    14    1
    15    13    33    1
    16    14    15    1
    17    15    18    2
    18    16    17    1
    19    16    15    1
    20    19    14    2
    21    20    21    2
    22    20    19    1
    23    21    26    1
    24    22    21    1
    25    23    22    1
    26    24    23    1
    27    24    25    1
    28    26    27    1
    29    26    13    1
    30    28    39    2
    31    30    41    1
    32    31    41    2
    33    33    28    1
    34    33    38    1
    35    34    30    1
    36    35    39    1
    37    36    29    1
    38    36    32    1
    39    36     1    1
    40    37    34    2
    41    38    30    1
    42    38    29    1
    43    39    34    1
    44    40    36    1
    45    40    32    1
    46    42    31    1
