@<TRIPOS>MOLECULE
outputs/IAG933/test6/raw/output_8134_IAG933_linker_design_.xyz
 43 46 0 0 0
SMALL
GASTEIGER

@<TRIPOS>ATOM
      1 C         -24.8550   -1.0120   30.1430 C.3     1  UNL1        0.1164
      2 C         -24.9730   -2.5050   29.7880 C.2     1  UNL1       -0.0125
      3 C         -23.9060   -3.1730   29.1460 C.2     1  UNL1       -0.0038
      4 C         -23.9890   -4.5490   28.8530 C.2     1  UNL1       -0.0003
      5 C         -25.1370   -5.2800   29.2050 C.2     1  UNL1       -0.0000
      6 C         -26.2320   -4.6110   29.7840 C.2     1  UNL1       -0.0003
      7 C         -26.1550   -3.2320   30.0650 C.2     1  UNL1       -0.0038
      8 C         -25.3870   -0.6790   31.5710 C.3     1  UNL1        0.0855
      9 C         -25.1890    0.7730   32.0280 C.3     1  UNL1        0.0197
     10 C         -25.3360    0.6840   33.5440 C.3     1  UNL1        0.0203
     11 C         -24.8290   -0.7150   33.9050 C.3     1  UNL1        0.0887
     12 N         -24.7580   -1.4810   32.6460 N.3     1  UNL1       -0.2186
     13 C         -25.6880    1.6140   26.4610 C.2     1  UNL1        0.0396
     14 C         -26.2500    2.9200   26.3950 C.2     1  UNL1        0.0745
     15 C         -25.6420    4.0930   27.1230 C.2     1  UNL1        0.2662
     16 N         -25.6140    5.2520   26.4490 N.am    1  UNL1       -0.1997
     17 C         -25.0260    6.4790   26.9630 C.3     1  UNL1        0.1388
     18 O         -25.1430    3.9660   28.2430 O.2     1  UNL1       -0.2683
     19 C         -27.4380    3.0910   25.6450 C.2     1  UNL1        0.1065
     20 N         -28.0750    2.0890   25.0030 N.2     1  UNL1       -0.2081
     21 C         -27.5430    0.8490   25.0790 C.2     1  UNL1        0.2530
     22 O         -28.1930   -0.2080   24.4770 O.2     1  UNL1       -0.4558
     23 C         -29.4600    0.0050   23.8660 C.3     1  UNL1        0.2426
     24 C         -30.0650   -1.3770   23.5730 C.3     1  UNL1        0.2292
     25 O         -30.7290   -1.8780   24.7210 O.3     1  UNL1       -0.2162
     26 C         -26.3540    0.5760   25.7770 C.2     1  UNL1        0.1910
     27 F         -25.8600   -0.6810   25.7950 F       1  UNL1       -0.1995
     28 C         -24.5956    1.2197   27.4413 C.3     1  UNL1        0.1463
     29 C         -22.5538    1.8198   26.2840 C.2     1  UNL1        0.2232
     30 C         -23.3542    2.2398   25.1249 C.3     1  UNL1        0.3715
     31 O         -24.5756    0.8957   23.5095 O.3     1  UNL1       -0.0315
     32 F         -22.3764   -0.2344   29.4052 F       1  UNL1       -0.1969
     33 O         -21.3690    2.0354   26.0903 O.2     1  UNL1       -0.3326
     34 C         -22.3267    0.9063   28.6877 C.3     1  UNL1        0.3148
     35 C         -20.9552    1.2250   28.2225 C.3     1  UNL1        0.2657
     36 F         -22.6355    3.0856   24.3096 F       1  UNL1       -0.1922
     37 O         -26.4242   -0.7879   28.3599 O.2     1  UNL1       -0.2729
     38 N         -25.0795    0.9495   28.8025 N.am    1  UNL1       -0.1978
     39 O         -20.6273    1.8357   27.0920 O.3     1  UNL1       -0.1665
     40 F         -22.7570    1.5016   29.7830 F       1  UNL1       -0.1969
     41 C         -23.0840    1.2932   27.4658 C.2     1  UNL1        0.0810
     42 O         -23.7385    1.0569   24.4797 O.3     1  UNL1       -0.1471
     43 C         -25.5663   -0.2385   29.0480 C.2     1  UNL1        0.2469
@<TRIPOS>BOND
     1     1    43    1
     2     2     7    1
     3     2     1    1
     4     3     2    2
     5     4     3    1
     6     4     5    2
     7     5     6    1
     8     6     7    2
     9     8     1    1
    10     8     9    1
    11     8    12    1
    12     9    10    1
    13    10    11    1
    14    12    11    1
    15    13    28    1
    16    14    13    1
    17    14    15    1
    18    15    18    2
    19    16    17    1
    20    16    15    1
    21    19    14    2
    22    20    21    2
    23    20    19    1
    24    21    26    1
    25    22    21    1
    26    23    22    1
    27    24    23    1
    28    24    25    1
    29    26    27    1
    30    26    13    2
    31    28    41    1
    32    28    38    1
    33    29    41    2
    34    30    36    1
    35    30    29    1
    36    31    42    1
    37    33    29    1
    38    33    39    1
    39    34    32    1
    40    34    40    1
    41    35    34    1
    42    37    43    2
    43    38    43    1
    44    39    35    1
    45    41    34    1
    46    42    30    1
