@<TRIPOS>MOLECULE
No_814-gen_results/8p0m/2024-11-27-11-27-31/
 24 25 0 0 0
SMALL
GASTEIGER

@<TRIPOS>ATOM
      1 C         -28.0162   -0.8135   28.8779 C.ar    1  UNL1       -0.0029
      2 C         -27.0636   -0.1189   28.6079 C.ar    1  UNL1       -0.0151
      3 C         -26.9716    0.7139   27.5060 C.ar    1  UNL1        0.0338
      4 C         -28.1053    0.7744   26.6421 C.ar    1  UNL1        0.1489
      5 C         -29.2008    0.1044   27.0527 C.ar    1  UNL1        0.0915
      6 C         -29.2096   -0.6029   28.1853 C.ar    1  UNL1        0.0141
      7 CL        -30.5651    0.2430   26.0493 Cl      1  UNL1       -0.0791
      8 C         -25.8645   -0.3137   29.5882 C.3     1  UNL1        0.0514
      9 C         -24.8698    0.6151   29.6912 C.2     1  UNL1        0.0594
     10 C         -23.8967    0.7741   29.4543 C.2     1  UNL1        0.0317
     11 C         -23.0565   -0.3957   28.9576 C.2     1  UNL1        0.1358
     12 C         -23.7612   -1.6269   29.0371 C.2     1  UNL1        0.0035
     13 C         -25.9985   -1.1796   30.7092 C.3     1  UNL1        0.0137
     14 C         -24.6900   -2.0970   29.9176 C.3     1  UNL1        0.0291
     15 F         -21.8233   -0.2985   28.6670 F       1  UNL1       -0.2045
     16 O         -28.0487    1.6156   25.5822 O.3     1  UNL1       -0.4706
     17 C         -25.6185    2.1548   29.7468 C.2     1  UNL1        0.3381
     18 O         -25.6959    2.6194   30.8686 O.2     1  UNL1       -0.2452
     19 O         -25.6568    2.9121   28.7347 O.3     1  UNL1       -0.4331
     20 C         -25.6715    4.2456   28.8686 C.3     1  UNL1        0.3215
     21 C         -25.4286    4.9034   27.5093 C.2     1  UNL1        0.4086
     22 O         -25.1098    4.2025   26.6374 O.co2   1  UNL1       -0.2415
     23 O         -25.4943    6.1647   27.3935 O.co2   1  UNL1       -0.2415
     24 C         -27.0530    1.3917   24.7351 C.3     1  UNL1        0.2525
@<TRIPOS>BOND
     1     5     7    1
     2     2     8    1
     3     8     9    1
     4     9    10    2
     5    10    11    1
     6    11    12    2
     7     8    13    1
     8    12    14    1
     9    13    14    1
    10    11    15    1
    11     4    16    1
    12     9    17    1
    13    17    18    2
    14    17    19    1
    15    19    20    1
    16    20    21    1
    17    21    22   ar
    18    21    23   ar
    19    16    24    1
    20     1     2   ar
    21     2     3   ar
    22     3     4   ar
    23     4     5   ar
    24     5     6   ar
    25     6     1   ar
