@<TRIPOS>MOLECULE
outputs/IAG933/test6/raw/output_8140_IAG933_linker_design_.xyz
 48 53 0 0 0
SMALL
GASTEIGER

@<TRIPOS>ATOM
      1 C         -24.8550   -1.0120   30.1430 C.3     1  UNL1        0.1983
      2 C         -24.9730   -2.5050   29.7880 C.2     1  UNL1        0.0213
      3 C         -23.9060   -3.1730   29.1460 C.2     1  UNL1       -0.0004
      4 C         -23.9890   -4.5490   28.8530 C.2     1  UNL1       -0.0002
      5 C         -25.1370   -5.2800   29.2050 C.2     1  UNL1       -0.0000
      6 C         -26.2320   -4.6110   29.7840 C.2     1  UNL1       -0.0002
      7 C         -26.1550   -3.2320   30.0650 C.2     1  UNL1       -0.0004
      8 C         -25.3870   -0.6790   31.5710 C.3     1  UNL1        0.1197
      9 C         -25.1890    0.7730   32.0280 C.3     1  UNL1        0.0233
     10 C         -25.3360    0.6840   33.5440 C.3     1  UNL1        0.0204
     11 C         -24.8290   -0.7150   33.9050 C.3     1  UNL1        0.0889
     12 N         -24.7580   -1.4810   32.6460 N.3     1  UNL1       -0.2150
     13 C         -25.6880    1.6140   26.4610 C.2     1  UNL1        0.0196
     14 C         -26.2500    2.9200   26.3950 C.2     1  UNL1        0.0705
     15 C         -25.6420    4.0930   27.1230 C.2     1  UNL1        0.2219
     16 N         -25.6140    5.2520   26.4490 N.2     1  UNL1       -0.2357
     17 C         -25.0260    6.4790   26.9630 C.3     1  UNL1        0.1550
     18 O         -25.1430    3.9660   28.2430 O.2     1  UNL1       -0.4557
     19 C         -27.4380    3.0910   25.6450 C.2     1  UNL1        0.1065
     20 N         -28.0750    2.0890   25.0030 N.2     1  UNL1       -0.2081
     21 C         -27.5430    0.8490   25.0790 C.2     1  UNL1        0.2530
     22 O         -28.1930   -0.2080   24.4770 O.2     1  UNL1       -0.4558
     23 C         -29.4600    0.0050   23.8660 C.3     1  UNL1        0.2426
     24 C         -30.0650   -1.3770   23.5730 C.3     1  UNL1        0.2292
     25 O         -30.7290   -1.8780   24.7210 O.3     1  UNL1       -0.2162
     26 C         -26.3540    0.5760   25.7770 C.2     1  UNL1        0.1892
     27 F         -25.8600   -0.6810   25.7950 F       1  UNL1       -0.1996
     28 C         -25.1638    2.7850   29.1343 C.3     1  UNL1        0.2287
     29 C         -27.2603    5.5902   29.6576 C.2     1  UNL1       -0.0216
     30 N         -28.9207    1.0567   29.6207 N.am    1  UNL1       -0.1402
     31 C         -23.3453    2.0083   26.7376 C.3     1  UNL1        0.0208
     32 O         -27.5924   -0.2914   28.2948 O.2     1  UNL1       -0.2212
     33 C         -23.1245    0.4228   29.1009 C.2     1  UNL1        0.3521
     34 C         -28.4284    2.4303   29.5952 C.2     1  UNL1        0.0763
     35 N         -24.4779    0.1575   29.2722 N.pl3   1  UNL1       -0.1889
     36 C         -25.3265    1.2378   28.7575 C.3     1  UNL1        0.2078
     37 C         -26.2227    3.2702   29.9270 C.2     1  UNL1        0.0047
     38 C         -21.1306    1.5339   27.7554 C.3     1  UNL1        0.0128
     39 C         -27.2481    2.4687   30.2881 C.2     1  UNL1        0.0121
     40 C         -28.7072    0.2395   28.5309 C.2     1  UNL1        0.4583
     41 C         -24.6523    1.2448   27.2052 C.3     1  UNL1        0.0722
     42 O         -31.0803    0.2957   28.5838 O.3     1  UNL1        0.0328
     43 C         -26.2573    4.7222   30.1662 C.3     1  UNL1        0.0517
     44 N         -22.3437   -0.0317   30.0654 N.2     1  UNL1        0.1879
     45 C         -28.4542    5.0892   29.0898 C.2     1  UNL1       -0.0029
     46 C         -28.8808    3.6957   28.8486 C.2     1  UNL1        0.0164
     47 C         -22.5833    1.3567   28.0902 C.3     1  UNL1        0.1109
     48 O         -29.8783    0.0839   27.8246 O.3     1  UNL1       -0.2427
@<TRIPOS>BOND
     1     1     2    1
     2     2     7    1
     3     3     2    2
     4     4     3    1
     5     4     5    2
     6     5     6    1
     7     6     7    2
     8     8     1    1
     9     8     9    1
    10     8    12    1
    11     9    10    1
    12    10    11    1
    13    12    11    1
    14    13    41    1
    15    14    13    1
    16    14    15    1
    17    15    18    1
    18    16    17    1
    19    16    15    2
    20    18    28    1
    21    19    14    2
    22    20    21    2
    23    20    19    1
    24    21    26    1
    25    22    21    1
    26    23    22    1
    27    24    23    1
    28    24    25    1
    29    26    27    1
    30    26    13    2
    31    28    37    1
    32    29    43    1
    33    31    47    1
    34    32    40    2
    35    33    35    1
    36    33    44    2
    37    34    30    1
    38    34    39    1
    39    35     1    1
    40    36    28    1
    41    36    35    1
    42    37    43    1
    43    37    39    2
    44    40    30    1
    45    41    31    1
    46    41    36    1
    47    45    29    2
    48    46    45    1
    49    46    34    2
    50    47    38    1
    51    47    33    1
    52    48    40    1
    53    48    42    1
