@<TRIPOS>MOLECULE
outputs/IAG933/test6/raw/output_8142_IAG933_linker_design_.xyz
 45 48 0 0 0
SMALL
GASTEIGER

@<TRIPOS>ATOM
      1 C         -24.8550   -1.0120   30.1430 C.3     1  UNL1        0.1372
      2 C         -24.9730   -2.5050   29.7880 C.2     1  UNL1       -0.0106
      3 C         -23.9060   -3.1730   29.1460 C.2     1  UNL1       -0.0037
      4 C         -23.9890   -4.5490   28.8530 C.2     1  UNL1       -0.0003
      5 C         -25.1370   -5.2800   29.2050 C.2     1  UNL1       -0.0000
      6 C         -26.2320   -4.6110   29.7840 C.2     1  UNL1       -0.0003
      7 C         -26.1550   -3.2320   30.0650 C.2     1  UNL1       -0.0037
      8 C         -25.3870   -0.6790   31.5710 C.3     1  UNL1        0.0874
      9 C         -25.1890    0.7730   32.0280 C.3     1  UNL1        0.0198
     10 C         -25.3360    0.6840   33.5440 C.3     1  UNL1        0.0203
     11 C         -24.8290   -0.7150   33.9050 C.3     1  UNL1        0.0887
     12 N         -24.7580   -1.4810   32.6460 N.3     1  UNL1       -0.2186
     13 C         -25.6880    1.6140   26.4610 C.2     1  UNL1        0.0322
     14 C         -26.2500    2.9200   26.3950 C.2     1  UNL1        0.0721
     15 C         -25.6420    4.0930   27.1230 C.2     1  UNL1        0.2266
     16 N         -25.6140    5.2520   26.4490 N.2     1  UNL1       -0.2353
     17 C         -25.0260    6.4790   26.9630 C.3     1  UNL1        0.1550
     18 O         -25.1430    3.9660   28.2430 O.2     1  UNL1       -0.4364
     19 C         -27.4380    3.0910   25.6450 C.2     1  UNL1        0.1065
     20 N         -28.0750    2.0890   25.0030 N.2     1  UNL1       -0.2081
     21 C         -27.5430    0.8490   25.0790 C.2     1  UNL1        0.2530
     22 O         -28.1930   -0.2080   24.4770 O.2     1  UNL1       -0.4558
     23 C         -29.4600    0.0050   23.8660 C.3     1  UNL1        0.2426
     24 C         -30.0650   -1.3770   23.5730 C.3     1  UNL1        0.2292
     25 O         -30.7290   -1.8780   24.7210 O.3     1  UNL1       -0.2162
     26 C         -26.3540    0.5760   25.7770 C.2     1  UNL1        0.1904
     27 F         -25.8600   -0.6810   25.7950 F       1  UNL1       -0.1995
     28 F         -20.6470    1.5337   28.0711 F       1  UNL1       -0.2286
     29 C         -26.4341    6.0459   30.6189 C.2     1  UNL1       -0.0188
     30 C         -25.7140    4.2126   29.4786 C.2     1  UNL1        0.1469
     31 C         -22.8304    1.3654   28.8942 C.3     1  UNL1        0.2799
     32 O         -23.4975    0.3922   29.3895 O.3     1  UNL1       -0.4314
     33 C         -23.3238    0.9283   26.4655 C.3     1  UNL1        0.0942
     34 C         -26.3006    5.4113   29.5058 C.2     1  UNL1        0.0333
     35 C         -21.7672    0.6995   27.8841 C.3     1  UNL1        0.2554
     36 N         -24.0761    1.9444   28.3552 N.3     1  UNL1       -0.1741
     37 C         -26.9844    7.4956   30.5278 C.3     1  UNL1        0.0311
     38 C         -22.6454    2.0219   26.3873 C.2     1  UNL1        0.2092
     39 O         -25.8964    0.2391   28.6371 O.2     1  UNL1       -0.2497
     40 C         -26.0738    5.4952   31.8981 C.2     1  UNL1       -0.0041
     41 C         -24.6147    1.1564   27.2665 C.3     1  UNL1        0.1088
     42 C         -25.4963    3.5312   30.7338 C.2     1  UNL1        0.0375
     43 C         -24.7886   -0.2322   29.1854 C.2     1  UNL1        0.3232
     44 C         -25.6275    4.2447   31.9179 C.2     1  UNL1        0.0028
     45 O         -23.1971    2.9556   25.8822 O.2     1  UNL1       -0.2882
@<TRIPOS>BOND
     1     1    43    1
     2     2     7    1
     3     2     1    1
     4     3     2    2
     5     4     3    1
     6     4     5    2
     7     5     6    1
     8     6     7    2
     9     8     1    1
    10     8     9    1
    11     8    12    1
    12     9    10    1
    13    10    11    1
    14    12    11    1
    15    13    41    1
    16    14    13    1
    17    14    15    1
    18    15    18    1
    19    16    17    1
    20    16    15    2
    21    18    30    1
    22    19    14    2
    23    20    21    2
    24    20    19    1
    25    21    26    1
    26    22    21    1
    27    23    22    1
    28    24    23    1
    29    24    25    1
    30    26    27    1
    31    26    13    2
    32    29    40    1
    33    30    34    1
    34    30    42    2
    35    31    35    1
    36    31    32    1
    37    34    29    2
    38    35    28    1
    39    36    31    1
    40    37    29    1
    41    38    33    1
    42    39    43    2
    43    40    44    2
    44    41    33    1
    45    41    36    1
    46    42    44    1
    47    43    32    1
    48    45    38    2
