@<TRIPOS>MOLECULE
outputs/IAG933/test6/raw/output_8143_IAG933_linker_design_.xyz
 39 42 0 0 0
SMALL
GASTEIGER

@<TRIPOS>ATOM
      1 C         -24.8550   -1.0120   30.1430 C.3     1  UNL1        0.1195
      2 C         -24.9730   -2.5050   29.7880 C.2     1  UNL1       -0.0026
      3 C         -23.9060   -3.1730   29.1460 C.2     1  UNL1       -0.0026
      4 C         -23.9890   -4.5490   28.8530 C.2     1  UNL1       -0.0003
      5 C         -25.1370   -5.2800   29.2050 C.2     1  UNL1       -0.0000
      6 C         -26.2320   -4.6110   29.7840 C.2     1  UNL1       -0.0003
      7 C         -26.1550   -3.2320   30.0650 C.2     1  UNL1       -0.0026
      8 C         -25.3870   -0.6790   31.5710 C.3     1  UNL1        0.0955
      9 C         -25.1890    0.7730   32.0280 C.3     1  UNL1        0.0209
     10 C         -25.3360    0.6840   33.5440 C.3     1  UNL1        0.0203
     11 C         -24.8290   -0.7150   33.9050 C.3     1  UNL1        0.0888
     12 N         -24.7580   -1.4810   32.6460 N.3     1  UNL1       -0.2174
     13 C         -25.6880    1.6140   26.4610 C.2     1  UNL1        0.0410
     14 C         -26.2500    2.9200   26.3950 C.2     1  UNL1        0.0766
     15 C         -25.6420    4.0930   27.1230 C.2     1  UNL1        0.2664
     16 N         -25.6140    5.2520   26.4490 N.am    1  UNL1       -0.1997
     17 C         -25.0260    6.4790   26.9630 C.3     1  UNL1        0.1388
     18 O         -25.1430    3.9660   28.2430 O.2     1  UNL1       -0.2683
     19 C         -27.4380    3.0910   25.6450 C.2     1  UNL1        0.1067
     20 N         -28.0750    2.0890   25.0030 N.2     1  UNL1       -0.2081
     21 C         -27.5430    0.8490   25.0790 C.2     1  UNL1        0.2533
     22 O         -28.1930   -0.2080   24.4770 O.2     1  UNL1       -0.4558
     23 C         -29.4600    0.0050   23.8660 C.3     1  UNL1        0.2426
     24 C         -30.0650   -1.3770   23.5730 C.3     1  UNL1        0.2292
     25 O         -30.7290   -1.8780   24.7210 O.3     1  UNL1       -0.2162
     26 C         -26.3540    0.5760   25.7770 C.2     1  UNL1        0.1931
     27 F         -25.8600   -0.6810   25.7950 F       1  UNL1       -0.1992
     28 C         -27.6646    1.3118   29.1989 C.3     1  UNL1        0.2276
     29 C         -24.1132    0.5884   28.3523 C.ar    1  UNL1        0.1457
     30 O         -27.2482   -0.6791   28.2532 O.2     1  UNL1       -0.2718
     31 C         -23.2116    1.8979   26.5194 C.ar    1  UNL1        0.0284
     32 N         -25.2320    0.0259   29.1339 N.am    1  UNL1       -0.2376
     33 N         -22.7025    0.5280   28.6323 N.ar    1  UNL1       -0.1942
     34 S         -21.8241    1.4886   27.5492 S.2     1  UNL1        0.0101
     35 C         -26.6368    0.3318   28.6669 C.2     1  UNL1        0.2609
     36 C         -29.8869    1.5854   28.4168 C.3     1  UNL1        0.1748
     37 C         -24.3840    1.3633   27.1320 C.ar    1  UNL1        0.0385
     38 C         -23.0733    2.7483   25.2778 C.3     1  UNL1        0.0398
     39 O         -29.0035    0.7509   29.1780 O.3     1  UNL1       -0.3417
@<TRIPOS>BOND
     1     1    32    1
     2     2     7    1
     3     2     1    1
     4     3     2    2
     5     4     3    1
     6     4     5    2
     7     5     6    1
     8     6     7    2
     9     8     1    1
    10     8     9    1
    11     8    12    1
    12     9    10    1
    13    10    11    1
    14    12    11    1
    15    13    37    1
    16    14    13    1
    17    14    15    1
    18    15    18    2
    19    16    17    1
    20    16    15    1
    21    19    14    2
    22    20    21    2
    23    20    19    1
    24    21    26    1
    25    22    21    1
    26    23    22    1
    27    24    23    1
    28    24    25    1
    29    26    27    1
    30    26    13    2
    31    29    33   ar
    32    29    32    1
    33    30    35    2
    34    31    37   ar
    35    31    34   ar
    36    34    33   ar
    37    35    32   am
    38    35    28    1
    39    36    39    1
    40    37    29   ar
    41    38    31    1
    42    39    28    1
