@<TRIPOS>MOLECULE
outputs/IAG933/test6/raw/output_8145_IAG933_linker_design_.xyz
 42 46 0 0 0
SMALL
GASTEIGER

@<TRIPOS>ATOM
      1 C         -24.8550   -1.0120   30.1430 C.3     1  UNL1        0.0611
      2 C         -24.9730   -2.5050   29.7880 C.2     1  UNL1       -0.0194
      3 C         -23.9060   -3.1730   29.1460 C.2     1  UNL1       -0.0042
      4 C         -23.9890   -4.5490   28.8530 C.2     1  UNL1       -0.0003
      5 C         -25.1370   -5.2800   29.2050 C.2     1  UNL1       -0.0000
      6 C         -26.2320   -4.6110   29.7840 C.2     1  UNL1       -0.0003
      7 C         -26.1550   -3.2320   30.0650 C.2     1  UNL1       -0.0042
      8 C         -25.3870   -0.6790   31.5710 C.3     1  UNL1        0.0786
      9 C         -25.1890    0.7730   32.0280 C.3     1  UNL1        0.0193
     10 C         -25.3360    0.6840   33.5440 C.3     1  UNL1        0.0202
     11 C         -24.8290   -0.7150   33.9050 C.3     1  UNL1        0.0887
     12 N         -24.7580   -1.4810   32.6460 N.3     1  UNL1       -0.2191
     13 C         -25.6880    1.6140   26.4610 C.3     1  UNL1        0.1455
     14 C         -26.2500    2.9200   26.3950 C.2     1  UNL1        0.0731
     15 C         -25.6420    4.0930   27.1230 C.2     1  UNL1        0.2640
     16 N         -25.6140    5.2520   26.4490 N.am    1  UNL1       -0.1999
     17 C         -25.0260    6.4790   26.9630 C.3     1  UNL1        0.1388
     18 O         -25.1430    3.9660   28.2430 O.2     1  UNL1       -0.2686
     19 C         -27.4380    3.0910   25.6450 C.2     1  UNL1        0.1038
     20 N         -28.0750    2.0890   25.0030 N.2     1  UNL1       -0.2118
     21 C         -27.5430    0.8490   25.0790 C.2     1  UNL1        0.2358
     22 O         -28.1930   -0.2080   24.4770 O.2     1  UNL1       -0.4585
     23 C         -29.4600    0.0050   23.8660 C.3     1  UNL1        0.2423
     24 C         -30.0650   -1.3770   23.5730 C.3     1  UNL1        0.2292
     25 O         -30.7290   -1.8780   24.7210 O.3     1  UNL1       -0.2162
     26 C         -26.3540    0.5760   25.7770 C.3     1  UNL1        0.2581
     27 F         -25.8600   -0.6810   25.7950 F       1  UNL1       -0.2251
     28 C         -27.1048   -0.0288   28.9371 C.2     1  UNL1        0.2419
     29 C         -24.6651    0.0179   29.1165 C.3     1  UNL1        0.1333
     30 O         -21.0709    1.4579   26.8051 O.2     1  UNL1       -0.3299
     31 C         -23.0479    2.3533   25.9009 C.3     1  UNL1        0.2994
     32 N         -24.4161    1.4669   26.8094 N.pl3   1  UNL1       -0.2692
     33 O         -22.3021   -0.2792   29.1346 O.3     1  UNL1       -0.3187
     34 C         -23.4134    0.2485   28.4421 C.3     1  UNL1        0.1764
     35 O         -20.6608    1.0113   28.0659 O.3     1  UNL1       -0.1389
     36 C         -21.1345   -0.2437   28.2836 C.3     1  UNL1        0.3428
     37 O         -27.2338   -1.0540   28.2407 O.2     1  UNL1       -0.2733
     38 F         -22.9974    1.7863   24.6176 F       1  UNL1       -0.2061
     39 C         -22.4745    1.7572   26.6782 C.2     1  UNL1        0.2237
     40 C         -23.4204    1.1183   27.5027 C.2     1  UNL1        0.0950
     41 C         -28.2451    0.2912   29.8899 C.3     1  UNL1        0.0964
     42 N         -25.9418    0.7137   28.9366 N.am    1  UNL1       -0.2039
@<TRIPOS>BOND
     1     1    29    1
     2     2     7    1
     3     2     1    1
     4     3     2    2
     5     4     3    1
     6     4     5    2
     7     5     6    1
     8     6     7    2
     9     8     1    1
    10     8     9    1
    11     8    12    1
    12     9    10    1
    13    10    11    1
    14    12    11    1
    15    13    32    1
    16    14    13    1
    17    14    15    1
    18    15    18    2
    19    16    17    1
    20    16    15    1
    21    19    14    2
    22    20    21    2
    23    20    19    1
    24    21    26    1
    25    22    21    1
    26    23    22    1
    27    24    23    1
    28    24    25    1
    29    26    27    1
    30    26    13    1
    31    28    41    1
    32    29    42    1
    33    30    35    1
    34    31    38    1
    35    31    39    1
    36    31    32    1
    37    32    40    1
    38    34    29    1
    39    34    33    1
    40    35    36    1
    41    36    33    1
    42    37    28    2
    43    39    30    1
    44    39    40    2
    45    40    34    1
    46    42    28    1
