@<TRIPOS>MOLECULE
outputs/IAG933/test6/raw/output_8146_IAG933_linker_design_.xyz
 40 44 0 0 0
SMALL
GASTEIGER

@<TRIPOS>ATOM
      1 C         -24.8550   -1.0120   30.1430 C.3     1  UNL1        0.2041
      2 C         -24.9730   -2.5050   29.7880 C.2     1  UNL1        0.0186
      3 C         -23.9060   -3.1730   29.1460 C.2     1  UNL1       -0.0008
      4 C         -23.9890   -4.5490   28.8530 C.2     1  UNL1       -0.0002
      5 C         -25.1370   -5.2800   29.2050 C.2     1  UNL1       -0.0000
      6 C         -26.2320   -4.6110   29.7840 C.2     1  UNL1       -0.0002
      7 C         -26.1550   -3.2320   30.0650 C.2     1  UNL1       -0.0008
      8 C         -25.3870   -0.6790   31.5710 C.3     1  UNL1        0.1170
      9 C         -25.1890    0.7730   32.0280 C.3     1  UNL1        0.0229
     10 C         -25.3360    0.6840   33.5440 C.3     1  UNL1        0.0204
     11 C         -24.8290   -0.7150   33.9050 C.3     1  UNL1        0.0888
     12 N         -24.7580   -1.4810   32.6460 N.3     1  UNL1       -0.2154
     13 C         -25.6880    1.6140   26.4610 C.2     1  UNL1        0.0442
     14 C         -26.2500    2.9200   26.3950 C.2     1  UNL1        0.0767
     15 C         -25.6420    4.0930   27.1230 C.2     1  UNL1        0.2664
     16 N         -25.6140    5.2520   26.4490 N.am    1  UNL1       -0.1997
     17 C         -25.0260    6.4790   26.9630 C.3     1  UNL1        0.1388
     18 O         -25.1430    3.9660   28.2430 O.2     1  UNL1       -0.2683
     19 C         -27.4380    3.0910   25.6450 C.2     1  UNL1        0.1067
     20 N         -28.0750    2.0890   25.0030 N.2     1  UNL1       -0.2081
     21 C         -27.5430    0.8490   25.0790 C.2     1  UNL1        0.2533
     22 O         -28.1930   -0.2080   24.4770 O.2     1  UNL1       -0.4558
     23 C         -29.4600    0.0050   23.8660 C.3     1  UNL1        0.2426
     24 C         -30.0650   -1.3770   23.5730 C.3     1  UNL1        0.2292
     25 O         -30.7290   -1.8780   24.7210 O.3     1  UNL1       -0.2162
     26 C         -26.3540    0.5760   25.7770 C.2     1  UNL1        0.1932
     27 F         -25.8600   -0.6810   25.7950 F       1  UNL1       -0.1992
     28 O         -21.2803    2.1730   26.0907 O.3     1  UNL1       -0.4416
     29 C         -22.7272    1.9846   24.1238 C.2     1  UNL1        0.2202
     30 C         -21.5299    2.2922   24.7153 C.2     1  UNL1        0.2203
     31 C         -24.5516    1.2351   27.0980 C.ar    1  UNL1        0.0774
     32 O         -23.6611    1.6259   24.9217 O.3     1  UNL1       -0.4438
     33 O         -25.3535   -0.1923   29.0669 O.3     1  UNL1       -0.4699
     34 C         -23.4735    1.3961   26.2720 C.ar    1  UNL1        0.1852
     35 C         -23.1765    0.7610   29.0215 C.ar    1  UNL1        0.2596
     36 C         -22.0527    1.0584   28.1937 C.ar    1  UNL1        0.2191
     37 C         -22.2139    1.5105   26.8934 C.ar    1  UNL1        0.2104
     38 O         -23.0339    0.6791   30.3058 O.3     1  UNL1       -0.2808
     39 F         -20.8188    0.8723   28.7458 F       1  UNL1       -0.1973
     40 C         -24.4217    0.6298   28.4150 C.ar    1  UNL1        0.1830
@<TRIPOS>BOND
     1     1    33    1
     2     2     7    1
     3     2     1    1
     4     3     2    2
     5     4     3    1
     6     4     5    2
     7     5     6    1
     8     6     7    2
     9     8     1    1
    10     8     9    1
    11     8    12    1
    12     9    10    1
    13    10    11    1
    14    12    11    1
    15    13    31    1
    16    14    13    1
    17    14    15    1
    18    15    18    2
    19    16    17    1
    20    16    15    1
    21    19    14    2
    22    20    21    2
    23    20    19    1
    24    21    26    1
    25    22    21    1
    26    23    22    1
    27    24    23    1
    28    24    25    1
    29    26    27    1
    30    26    13    2
    31    28    37    1
    32    29    30    2
    33    29    32    1
    34    30    28    1
    35    31    40   ar
    36    32    34    1
    37    34    37   ar
    38    34    31   ar
    39    35    38    1
    40    36    39    1
    41    36    35   ar
    42    37    36   ar
    43    40    35   ar
    44    40    33    1
