@<TRIPOS>MOLECULE
outputs/IAG933/test6/raw/output_8152_IAG933_linker_design_.xyz
 44 47 0 0 0
SMALL
GASTEIGER

@<TRIPOS>ATOM
      1 C         -24.8550   -1.0120   30.1430 C.3     1  UNL1        0.0437
      2 C         -24.9730   -2.5050   29.7880 C.2     1  UNL1       -0.0208
      3 C         -23.9060   -3.1730   29.1460 C.2     1  UNL1       -0.0042
      4 C         -23.9890   -4.5490   28.8530 C.2     1  UNL1       -0.0003
      5 C         -25.1370   -5.2800   29.2050 C.2     1  UNL1       -0.0000
      6 C         -26.2320   -4.6110   29.7840 C.2     1  UNL1       -0.0003
      7 C         -26.1550   -3.2320   30.0650 C.2     1  UNL1       -0.0042
      8 C         -25.3870   -0.6790   31.5710 C.3     1  UNL1        0.0772
      9 C         -25.1890    0.7730   32.0280 C.3     1  UNL1        0.0214
     10 C         -25.3360    0.6840   33.5440 C.3     1  UNL1        0.0203
     11 C         -24.8290   -0.7150   33.9050 C.3     1  UNL1        0.0887
     12 N         -24.7580   -1.4810   32.6460 N.3     1  UNL1       -0.2191
     13 C         -25.6880    1.6140   26.4610 C.2     1  UNL1        0.0406
     14 C         -26.2500    2.9200   26.3950 C.2     1  UNL1        0.0745
     15 C         -25.6420    4.0930   27.1230 C.2     1  UNL1        0.2662
     16 N         -25.6140    5.2520   26.4490 N.am    1  UNL1       -0.1997
     17 C         -25.0260    6.4790   26.9630 C.3     1  UNL1        0.1388
     18 O         -25.1430    3.9660   28.2430 O.2     1  UNL1       -0.2683
     19 C         -27.4380    3.0910   25.6450 C.2     1  UNL1        0.1065
     20 N         -28.0750    2.0890   25.0030 N.2     1  UNL1       -0.2081
     21 C         -27.5430    0.8490   25.0790 C.2     1  UNL1        0.2530
     22 O         -28.1930   -0.2080   24.4770 O.2     1  UNL1       -0.4558
     23 C         -29.4600    0.0050   23.8660 C.3     1  UNL1        0.2426
     24 C         -30.0650   -1.3770   23.5730 C.3     1  UNL1        0.2292
     25 O         -30.7290   -1.8780   24.7210 O.3     1  UNL1       -0.2162
     26 C         -26.3540    0.5760   25.7770 C.2     1  UNL1        0.1910
     27 F         -25.8600   -0.6810   25.7950 F       1  UNL1       -0.1995
     28 C         -22.8711    1.4554   29.5162 C.3     1  UNL1        0.0460
     29 C         -26.4543    6.2338   35.1803 C.2     1  UNL1        0.0031
     30 C         -21.2798    1.9459   27.6521 C.2     1  UNL1        0.0160
     31 C         -25.4702    7.0710   34.6742 C.2     1  UNL1        0.0002
     32 C         -24.7689    1.1603   27.1928 C.3     1  UNL1        0.1608
     33 C         -24.7214    2.0337   31.2207 C.3     1  UNL1        0.0455
     34 C         -26.7295    5.0278   34.5163 C.2     1  UNL1        0.0369
     35 N         -23.4755    1.5320   27.1962 N.3     1  UNL1       -0.2384
     36 C         -23.0054    2.8689   25.2524 C.3     1  UNL1        0.2086
     37 C         -24.7684    6.6381   33.5528 C.2     1  UNL1        0.0031
     38 C         -25.7996    3.1205   31.3825 C.3     1  UNL1        0.2053
     39 C         -24.3484    1.8689   29.9998 C.3     1  UNL1        0.0100
     40 C         -26.0101    4.5705   33.3512 C.2     1  UNL1        0.1386
     41 C         -22.5723    1.7945   28.0769 C.2     1  UNL1        0.0602
     42 O         -23.1560    1.5883   25.8095 O.3     1  UNL1       -0.2544
     43 C         -25.0283    5.4489   32.8521 C.2     1  UNL1        0.0369
     44 O         -26.1853    3.2682   32.7440 O.2     1  UNL1       -0.4755
@<TRIPOS>BOND
     1     2     7    1
     2     2     1    1
     3     3     2    2
     4     4     3    1
     5     4     5    2
     6     5     6    1
     7     6     7    2
     8     8     1    1
     9     8     9    1
    10     8    12    1
    11     9    33    1
    12     9    10    1
    13    10    11    1
    14    12    11    1
    15    13    32    1
    16    14    13    1
    17    14    15    1
    18    15    18    2
    19    16    17    1
    20    16    15    1
    21    19    14    2
    22    20    21    2
    23    20    19    1
    24    21    26    1
    25    22    21    1
    26    23    22    1
    27    24    23    1
    28    24    25    1
    29    26    27    1
    30    26    13    2
    31    28    39    1
    32    30    41    2
    33    31    29    1
    34    32    35    1
    35    33    39    1
    36    33    38    1
    37    34    29    2
    38    35    41    1
    39    36    42    1
    40    37    31    2
    41    38    44    1
    42    40    34    1
    43    41    28    1
    44    42    35    1
    45    43    40    2
    46    43    37    1
    47    44    40    1
