@<TRIPOS>MOLECULE
outputs/IAG933/test6/raw/output_8156_IAG933_linker_design_.xyz
 48 50 0 0 0
SMALL
GASTEIGER

@<TRIPOS>ATOM
      1 C         -24.8550   -1.0120   30.1430 C.3     1  UNL1        0.1983
      2 C         -24.9730   -2.5050   29.7880 C.2     1  UNL1        0.0213
      3 C         -23.9060   -3.1730   29.1460 C.2     1  UNL1       -0.0004
      4 C         -23.9890   -4.5490   28.8530 C.2     1  UNL1       -0.0002
      5 C         -25.1370   -5.2800   29.2050 C.2     1  UNL1       -0.0000
      6 C         -26.2320   -4.6110   29.7840 C.2     1  UNL1       -0.0002
      7 C         -26.1550   -3.2320   30.0650 C.2     1  UNL1       -0.0004
      8 C         -25.3870   -0.6790   31.5710 C.3     1  UNL1        0.1197
      9 C         -25.1890    0.7730   32.0280 C.3     1  UNL1        0.0233
     10 C         -25.3360    0.6840   33.5440 C.3     1  UNL1        0.0204
     11 C         -24.8290   -0.7150   33.9050 C.3     1  UNL1        0.0889
     12 N         -24.7580   -1.4810   32.6460 N.3     1  UNL1       -0.2150
     13 C         -25.6880    1.6140   26.4610 C.3     1  UNL1        0.1180
     14 C         -26.2500    2.9200   26.3950 C.2     1  UNL1        0.0649
     15 C         -25.6420    4.0930   27.1230 C.2     1  UNL1        0.2633
     16 N         -25.6140    5.2520   26.4490 N.am    1  UNL1       -0.2000
     17 C         -25.0260    6.4790   26.9630 C.3     1  UNL1        0.1388
     18 O         -25.1430    3.9660   28.2430 O.2     1  UNL1       -0.2686
     19 C         -27.4380    3.0910   25.6450 C.2     1  UNL1        0.1030
     20 N         -28.0750    2.0890   25.0030 N.2     1  UNL1       -0.2118
     21 C         -27.5430    0.8490   25.0790 C.2     1  UNL1        0.2350
     22 O         -28.1930   -0.2080   24.4770 O.2     1  UNL1       -0.4585
     23 C         -29.4600    0.0050   23.8660 C.3     1  UNL1        0.2423
     24 C         -30.0650   -1.3770   23.5730 C.3     1  UNL1        0.2292
     25 O         -30.7290   -1.8780   24.7210 O.3     1  UNL1       -0.2162
     26 C         -26.3540    0.5760   25.7770 C.3     1  UNL1        0.2499
     27 F         -25.8600   -0.6810   25.7950 F       1  UNL1       -0.2260
     28 C         -26.1884   -0.2941   28.1908 C.3     1  UNL1        0.2038
     29 O         -32.0074   -3.7297   27.7451 O.co2   1  UNL1       -0.2428
     30 C         -21.4730    1.7335   27.4089 C.3     1  UNL1        0.0247
     31 C         -29.9690   -0.4957   30.7199 C.3     1  UNL1        0.1655
     32 N         -29.2810   -1.7441   31.2037 N.3     1  UNL1       -0.0327
     33 O         -29.4956   -3.0449   30.5684 O.3     1  UNL1       -0.0988
     34 C         -28.3256    0.7691   29.2232 C.3     1  UNL1        0.0777
     35 C         -32.3375   -1.0063   29.4469 C.3     1  UNL1        0.0477
     36 C         -31.7773   -1.0156   27.8532 C.3     1  UNL1        0.2541
     37 S         -23.9808    1.5567   26.2244 S.3     1  UNL1       -0.1218
     38 C         -31.3649   -1.2641   30.7133 C.3     1  UNL1        0.0400
     39 C         -32.4568   -2.4866   27.3674 C.2     1  UNL1        0.3946
     40 C         -23.3181    0.2979   28.6524 C.2     1  UNL1        0.3622
     41 N         -22.3251   -0.0119   29.6329 N.2     1  UNL1        0.1888
     42 C         -30.6796    0.8851   28.6763 C.3     1  UNL1        0.0907
     43 N         -29.6923    0.2621   29.6141 N.3     1  UNL1       -0.2566
     44 C         -27.4134   -0.4836   29.1159 C.3     1  UNL1        0.0681
     45 O         -33.3485   -2.2932   26.6927 O.co2   1  UNL1       -0.2428
     46 O         -30.6634   -0.8317   27.1171 O.3     1  UNL1       -0.2109
     47 C         -22.8454    1.1261   27.5018 C.3     1  UNL1        0.1582
     48 N         -24.8722    0.0125   29.0020 N.pl3   1  UNL1       -0.1884
@<TRIPOS>BOND
     1     1    48    1
     2     2     7    1
     3     2     1    1
     4     3     2    2
     5     4     3    1
     6     4     5    2
     7     5     6    1
     8     6     7    2
     9     8     1    1
    10     8     9    1
    11     8    12    1
    12     9    10    1
    13    10    11    1
    14    12    11    1
    15    13    37    1
    16    14    13    1
    17    14    15    1
    18    15    18    2
    19    16    17    1
    20    16    15    1
    21    19    14    2
    22    20    21    2
    23    20    19    1
    24    21    26    1
    25    22    21    1
    26    23    22    1
    27    24    23    1
    28    24    25    1
    29    26    27    1
    30    26    13    1
    31    28    48    1
    32    28    44    1
    33    31    38    1
    34    31    32    1
    35    33    32    1
    36    34    43    1
    37    35    38    1
    38    36    46    1
    39    36    35    1
    40    37    47    1
    41    39    29   ar
    42    39    36    1
    43    40    48    1
    44    40    41    2
    45    42    43    1
    46    43    31    1
    47    44    34    1
    48    45    39   ar
    49    47    30    1
    50    47    40    1
