@<TRIPOS>MOLECULE
outputs/IAG933/test6/raw/output_8158_IAG933_linker_design_.xyz
 42 46 0 0 0
SMALL
GASTEIGER

@<TRIPOS>ATOM
      1 C         -24.8550   -1.0120   30.1430 C.3     1  UNL1        0.1734
      2 C         -24.9730   -2.5050   29.7880 C.2     1  UNL1        0.0011
      3 C         -23.9060   -3.1730   29.1460 C.2     1  UNL1       -0.0026
      4 C         -23.9890   -4.5490   28.8530 C.2     1  UNL1       -0.0003
      5 C         -25.1370   -5.2800   29.2050 C.2     1  UNL1       -0.0000
      6 C         -26.2320   -4.6110   29.7840 C.2     1  UNL1       -0.0003
      7 C         -26.1550   -3.2320   30.0650 C.2     1  UNL1       -0.0026
      8 C         -25.3870   -0.6790   31.5710 C.3     1  UNL1        0.0993
      9 C         -25.1890    0.7730   32.0280 C.3     1  UNL1        0.0210
     10 C         -25.3360    0.6840   33.5440 C.3     1  UNL1        0.0203
     11 C         -24.8290   -0.7150   33.9050 C.3     1  UNL1        0.0888
     12 N         -24.7580   -1.4810   32.6460 N.3     1  UNL1       -0.2174
     13 C         -25.6880    1.6140   26.4610 C.2     1  UNL1        0.1032
     14 C         -26.2500    2.9200   26.3950 C.2     1  UNL1        0.0927
     15 C         -25.6420    4.0930   27.1230 C.2     1  UNL1        0.2678
     16 N         -25.6140    5.2520   26.4490 N.am    1  UNL1       -0.1997
     17 C         -25.0260    6.4790   26.9630 C.3     1  UNL1        0.1388
     18 O         -25.1430    3.9660   28.2430 O.2     1  UNL1       -0.2683
     19 C         -27.4380    3.0910   25.6450 C.2     1  UNL1        0.1082
     20 N         -28.0750    2.0890   25.0030 N.2     1  UNL1       -0.2080
     21 C         -27.5430    0.8490   25.0790 C.2     1  UNL1        0.2548
     22 O         -28.1930   -0.2080   24.4770 O.2     1  UNL1       -0.4558
     23 C         -29.4600    0.0050   23.8660 C.3     1  UNL1        0.2426
     24 C         -30.0650   -1.3770   23.5730 C.3     1  UNL1        0.2292
     25 O         -30.7290   -1.8780   24.7210 O.3     1  UNL1       -0.2162
     26 C         -26.3540    0.5760   25.7770 C.2     1  UNL1        0.2090
     27 F         -25.8600   -0.6810   25.7950 F       1  UNL1       -0.1977
     28 F         -21.4825    2.3540   25.4416 F       1  UNL1       -0.1644
     29 F         -23.0895    1.4090   24.4425 F       1  UNL1       -0.1644
     30 S         -25.5928    0.0420   29.0205 S.O2    1  UNL1        0.0274
     31 C         -21.8965   -0.3823   29.3662 C.2     1  UNL1        0.0465
     32 F         -23.2472    3.4386   25.2550 F       1  UNL1       -0.1644
     33 C         -24.3174    0.5141   28.2802 C.ar    1  UNL1        0.1751
     34 C         -22.9779    0.3661   28.6125 C.ar    1  UNL1        0.0729
     35 C         -22.7956    2.1763   25.4611 C.3     1  UNL1        0.4363
     36 C         -23.2382    1.6181   26.7318 C.ar    1  UNL1        0.1719
     37 O         -26.2803    1.0889   29.6056 O.2     1  UNL1       -0.1669
     38 O         -20.9556    1.1414   27.7311 O.3     1  UNL1       -0.4489
     39 N         -24.4806    1.2540   27.1053 N.ar    1  UNL1       -0.2836
     40 C         -22.3328    1.1698   27.6852 C.ar    1  UNL1        0.1681
     41 O         -26.3194   -0.7752   28.2454 O.2     1  UNL1       -0.1669
     42 C         -20.6810   -0.0186   28.7480 C.2     1  UNL1        0.1798
@<TRIPOS>BOND
     1     1    30    1
     2     2     7    1
     3     2     1    1
     4     3     2    2
     5     4     3    1
     6     4     5    2
     7     5     6    1
     8     6     7    2
     9     8     1    1
    10     8     9    1
    11     8    12    1
    12     9    10    1
    13    10    11    1
    14    12    11    1
    15    13    39    1
    16    14    13    1
    17    14    15    1
    18    15    18    2
    19    16    17    1
    20    16    15    1
    21    19    14    2
    22    20    21    2
    23    20    19    1
    24    21    26    1
    25    22    21    1
    26    23    22    1
    27    24    23    1
    28    24    25    1
    29    26    27    1
    30    26    13    2
    31    28    35    1
    32    29    35    1
    33    30    37    2
    34    32    35    1
    35    33    34   ar
    36    33    30    1
    37    34    31    1
    38    35    36    1
    39    36    39   ar
    40    36    40   ar
    41    38    42    1
    42    39    33   ar
    43    40    38    1
    44    40    34   ar
    45    41    30    2
    46    42    31    2
