@<TRIPOS>MOLECULE
outputs/IAG933/test6/raw/output_8159_IAG933_linker_design_.xyz
 45 49 0 0 0
SMALL
GASTEIGER

@<TRIPOS>ATOM
      1 C         -24.8550   -1.0120   30.1430 C.3     1  UNL1        0.0547
      2 C         -24.9730   -2.5050   29.7880 C.2     1  UNL1       -0.0198
      3 C         -23.9060   -3.1730   29.1460 C.2     1  UNL1       -0.0042
      4 C         -23.9890   -4.5490   28.8530 C.2     1  UNL1       -0.0003
      5 C         -25.1370   -5.2800   29.2050 C.2     1  UNL1       -0.0000
      6 C         -26.2320   -4.6110   29.7840 C.2     1  UNL1       -0.0003
      7 C         -26.1550   -3.2320   30.0650 C.2     1  UNL1       -0.0042
      8 C         -25.3870   -0.6790   31.5710 C.3     1  UNL1        0.0782
      9 C         -25.1890    0.7730   32.0280 C.3     1  UNL1        0.0192
     10 C         -25.3360    0.6840   33.5440 C.3     1  UNL1        0.0202
     11 C         -24.8290   -0.7150   33.9050 C.3     1  UNL1        0.0887
     12 N         -24.7580   -1.4810   32.6460 N.3     1  UNL1       -0.2191
     13 C         -25.6880    1.6140   26.4610 C.2     1  UNL1        0.0407
     14 C         -26.2500    2.9200   26.3950 C.2     1  UNL1        0.0745
     15 C         -25.6420    4.0930   27.1230 C.2     1  UNL1        0.2250
     16 N         -25.6140    5.2520   26.4490 N.2     1  UNL1       -0.2356
     17 C         -25.0260    6.4790   26.9630 C.3     1  UNL1        0.1550
     18 O         -25.1430    3.9660   28.2430 O.2     1  UNL1       -0.4265
     19 C         -27.4380    3.0910   25.6450 C.2     1  UNL1        0.1068
     20 N         -28.0750    2.0890   25.0030 N.2     1  UNL1       -0.2081
     21 C         -27.5430    0.8490   25.0790 C.2     1  UNL1        0.2533
     22 O         -28.1930   -0.2080   24.4770 O.2     1  UNL1       -0.4558
     23 C         -29.4600    0.0050   23.8660 C.3     1  UNL1        0.2426
     24 C         -30.0650   -1.3770   23.5730 C.3     1  UNL1        0.2292
     25 O         -30.7290   -1.8780   24.7210 O.3     1  UNL1       -0.2162
     26 C         -26.3540    0.5760   25.7770 C.2     1  UNL1        0.1931
     27 F         -25.8600   -0.6810   25.7950 F       1  UNL1       -0.1992
     28 C         -24.8294    3.0371   29.1683 C.3     1  UNL1        0.3439
     29 C         -24.0857    0.0968   29.5822 C.3     1  UNL1        0.0883
     30 C         -23.1993    2.5209   26.6458 C.3     1  UNL1        0.1138
     31 N         -27.7626    7.3103   29.9421 N.am    1  UNL1       -0.0862
     32 C         -26.8934    7.0373   30.8928 C.2     1  UNL1        0.2828
     33 C         -26.8181    4.6969   30.5606 C.3     1  UNL1        0.1192
     34 C         -22.2325    0.8602   28.4955 C.3     1  UNL1        0.2364
     35 C         -23.2379    1.6278   27.9342 C.3     1  UNL1        0.0775
     36 N         -22.6354   -0.1372   29.4509 N.3     1  UNL1       -0.1880
     37 F         -20.9424    0.9473   27.9871 F       1  UNL1       -0.2177
     38 O         -24.7350    3.4599   30.4668 O.2     1  UNL1       -0.4287
     39 C         -26.8492    5.7464   31.4159 C.3     1  UNL1        0.2019
     40 C         -25.7194    4.0728   31.1783 C.2     1  UNL1        0.2223
     41 N         -25.6162    4.3807   32.4840 N.2     1  UNL1       -0.1298
     42 C         -24.2170    1.6236   28.8902 C.3     1  UNL1        0.1064
     43 O         -26.0021    7.8678   31.2324 O.2     1  UNL1       -0.2697
     44 N         -22.1153    2.1628   25.6026 N.3     1  UNL1       -0.1312
     45 N         -26.3784    5.4972   32.6870 N.pl3   1  UNL1       -0.1329
@<TRIPOS>BOND
     1     1     2    1
     2     2     7    1
     3     3     2    2
     4     4     3    1
     5     4     5    2
     6     5     6    1
     7     6     7    2
     8     8     1    1
     9     8     9    1
    10     8    12    1
    11     9    10    1
    12    10    11    1
    13    12    11    1
    14    14    13    1
    15    14    15    1
    16    15    18    1
    17    16    17    1
    18    16    15    2
    19    19    14    2
    20    20    21    2
    21    20    19    1
    22    21    26    1
    23    22    21    1
    24    23    22    1
    25    24    23    1
    26    24    25    1
    27    26    27    1
    28    26    13    2
    29    28    18    1
    30    28    38    1
    31    29     1    1
    32    31    32    1
    33    32    43    2
    34    33    40    1
    35    33    39    1
    36    34    37    1
    37    34    36    1
    38    35    30    1
    39    35    34    1
    40    35    42    1
    41    36    29    1
    42    38    40    1
    43    39    32    1
    44    39    45    1
    45    40    41    2
    46    41    45    1
    47    42    28    1
    48    42    29    1
    49    44    30    1
