@<TRIPOS>MOLECULE
outputs/IAG933/test6/raw/output_8168_IAG933_linker_design_.xyz
 42 45 0 0 0
SMALL
GASTEIGER

@<TRIPOS>ATOM
      1 C         -24.8550   -1.0120   30.1430 C.3     1  UNL1        0.0696
      2 C         -24.9730   -2.5050   29.7880 C.2     1  UNL1       -0.0184
      3 C         -23.9060   -3.1730   29.1460 C.2     1  UNL1       -0.0041
      4 C         -23.9890   -4.5490   28.8530 C.2     1  UNL1       -0.0003
      5 C         -25.1370   -5.2800   29.2050 C.2     1  UNL1       -0.0000
      6 C         -26.2320   -4.6110   29.7840 C.2     1  UNL1       -0.0003
      7 C         -26.1550   -3.2320   30.0650 C.2     1  UNL1       -0.0041
      8 C         -25.3870   -0.6790   31.5710 C.3     1  UNL1        0.0795
      9 C         -25.1890    0.7730   32.0280 C.3     1  UNL1        0.0193
     10 C         -25.3360    0.6840   33.5440 C.3     1  UNL1        0.0202
     11 C         -24.8290   -0.7150   33.9050 C.3     1  UNL1        0.0887
     12 N         -24.7580   -1.4810   32.6460 N.3     1  UNL1       -0.2190
     13 C         -25.6880    1.6140   26.4610 C.2     1  UNL1        0.0324
     14 C         -26.2500    2.9200   26.3950 C.2     1  UNL1        0.0739
     15 C         -25.6420    4.0930   27.1230 C.2     1  UNL1        0.2662
     16 N         -25.6140    5.2520   26.4490 N.am    1  UNL1       -0.1997
     17 C         -25.0260    6.4790   26.9630 C.3     1  UNL1        0.1388
     18 O         -25.1430    3.9660   28.2430 O.2     1  UNL1       -0.2683
     19 C         -27.4380    3.0910   25.6450 C.2     1  UNL1        0.1065
     20 N         -28.0750    2.0890   25.0030 N.2     1  UNL1       -0.2081
     21 C         -27.5430    0.8490   25.0790 C.2     1  UNL1        0.2530
     22 O         -28.1930   -0.2080   24.4770 O.2     1  UNL1       -0.4558
     23 C         -29.4600    0.0050   23.8660 C.3     1  UNL1        0.2426
     24 C         -30.0650   -1.3770   23.5730 C.3     1  UNL1        0.2292
     25 O         -30.7290   -1.8780   24.7210 O.3     1  UNL1       -0.2162
     26 C         -26.3540    0.5760   25.7770 C.2     1  UNL1        0.1904
     27 F         -25.8600   -0.6810   25.7950 F       1  UNL1       -0.1995
     28 C         -29.0554    0.6792   29.4915 C.3     1  UNL1        0.1847
     29 C         -30.2046   -0.9246   27.6921 C.3     1  UNL1        0.1561
     30 C         -29.1071   -1.8189   28.2023 C.3     1  UNL1        0.0518
     31 C         -27.8288   -1.0000   28.2157 C.3     1  UNL1        0.0928
     32 N         -24.4361    0.4685   28.3717 N.3     1  UNL1       -0.2461
     33 C         -25.3956   -0.1688   28.9985 C.3     1  UNL1        0.1382
     34 CL        -22.3318    2.0927   25.3304 Cl      1  UNL1       -0.1012
     35 C         -30.0624    0.6546   28.3714 C.3     1  UNL1        0.0684
     36 C         -23.0400    1.9337   26.8699 C.3     1  UNL1        0.1470
     37 C         -24.3230    1.2769   27.0880 C.3     1  UNL1        0.1098
     38 O         -28.0767    0.6157   30.3589 O.3     1  UNL1       -0.2203
     39 S         -21.8455    1.3807   28.0802 S.3     1  UNL1       -0.1052
     40 O         -31.5108   -1.4064   28.0711 O.3     1  UNL1       -0.2230
     41 C         -23.0334    0.3798   29.0676 C.3     1  UNL1        0.1337
     42 N         -26.7320   -0.2430   28.6055 N.3     1  UNL1       -0.2030
@<TRIPOS>BOND
     1     1    33    1
     2     2     7    1
     3     2     1    1
     4     3     2    2
     5     4     3    1
     6     4     5    2
     7     5     6    1
     8     6     7    2
     9     8     1    1
    10     8     9    1
    11     8    12    1
    12     9    10    1
    13    10    11    1
    14    12    11    1
    15    14    13    1
    16    14    15    1
    17    15    18    2
    18    16    17    1
    19    16    15    1
    20    19    14    2
    21    20    21    2
    22    20    19    1
    23    21    26    1
    24    22    21    1
    25    23    22    1
    26    24    23    1
    27    24    25    1
    28    26    27    1
    29    26    13    2
    30    28    38    1
    31    29    40    1
    32    29    30    1
    33    29    35    1
    34    30    31    1
    35    31    42    1
    36    32    33    1
    37    32    41    1
    38    33    42    1
    39    35    28    1
    40    36    34    1
    41    36    37    1
    42    36    39    1
    43    37    13    1
    44    37    32    1
    45    39    41    1
