@<TRIPOS>MOLECULE
outputs/IAG933/test6/raw/output_817_IAG933_linker_design_.xyz
 42 46 0 0 0
SMALL
GASTEIGER

@<TRIPOS>ATOM
      1 C         -24.8550   -1.0120   30.1430 C.3     1  UNL1        0.0650
      2 C         -24.9730   -2.5050   29.7880 C.2     1  UNL1       -0.0189
      3 C         -23.9060   -3.1730   29.1460 C.2     1  UNL1       -0.0042
      4 C         -23.9890   -4.5490   28.8530 C.2     1  UNL1       -0.0003
      5 C         -25.1370   -5.2800   29.2050 C.2     1  UNL1       -0.0000
      6 C         -26.2320   -4.6110   29.7840 C.2     1  UNL1       -0.0003
      7 C         -26.1550   -3.2320   30.0650 C.2     1  UNL1       -0.0042
      8 C         -25.3870   -0.6790   31.5710 C.3     1  UNL1        0.0790
      9 C         -25.1890    0.7730   32.0280 C.3     1  UNL1        0.0193
     10 C         -25.3360    0.6840   33.5440 C.3     1  UNL1        0.0202
     11 C         -24.8290   -0.7150   33.9050 C.3     1  UNL1        0.0887
     12 N         -24.7580   -1.4810   32.6460 N.3     1  UNL1       -0.2191
     13 C         -25.6880    1.6140   26.4610 C.2     1  UNL1        0.0367
     14 C         -26.2500    2.9200   26.3950 C.2     1  UNL1        0.0742
     15 C         -25.6420    4.0930   27.1230 C.2     1  UNL1        0.2662
     16 N         -25.6140    5.2520   26.4490 N.am    1  UNL1       -0.1997
     17 C         -25.0260    6.4790   26.9630 C.3     1  UNL1        0.1388
     18 O         -25.1430    3.9660   28.2430 O.2     1  UNL1       -0.2683
     19 C         -27.4380    3.0910   25.6450 C.2     1  UNL1        0.1065
     20 N         -28.0750    2.0890   25.0030 N.2     1  UNL1       -0.2081
     21 C         -27.5430    0.8490   25.0790 C.2     1  UNL1        0.2530
     22 O         -28.1930   -0.2080   24.4770 O.2     1  UNL1       -0.4558
     23 C         -29.4600    0.0050   23.8660 C.3     1  UNL1        0.2426
     24 C         -30.0650   -1.3770   23.5730 C.3     1  UNL1        0.2292
     25 O         -30.7290   -1.8780   24.7210 O.3     1  UNL1       -0.2162
     26 C         -26.3540    0.5760   25.7770 C.2     1  UNL1        0.1908
     27 F         -25.8600   -0.6810   25.7950 F       1  UNL1       -0.1995
     28 N         -29.6772    0.8151   29.6358 N.3     1  UNL1       -0.1137
     29 C         -27.0940    0.1149   29.4057 C.3     1  UNL1        0.1642
     30 C         -24.5293    1.3087   26.9890 C.3     1  UNL1        0.1338
     31 C         -24.0878   -0.0823   29.1495 C.3     1  UNL1        0.1320
     32 F         -20.9599    1.9372   27.4535 F       1  UNL1       -0.1967
     33 C         -29.3786   -0.3822   28.8840 C.3     1  UNL1        0.1653
     34 N         -26.3851    0.6109   28.7656 N.3     1  UNL1       -0.1979
     35 N         -24.9937    0.6130   28.2804 N.3     1  UNL1       -0.1993
     36 C         -26.8795    1.2567   29.4379 C.3     1  UNL1        0.1255
     37 C         -23.3037    1.8313   26.9262 C.2     1  UNL1        0.0888
     38 N         -28.1095   -0.8947   29.3505 N.3     1  UNL1       -0.1833
     39 C         -22.1746    1.4651   27.6872 C.2     1  UNL1        0.1751
     40 CL        -22.9722    2.7372   25.5990 Cl      1  UNL1       -0.0823
     41 C         -30.4910   -1.3727   29.0937 C.3     1  UNL1        0.0400
     42 S         -22.3334    0.2574   28.9667 S.3     1  UNL1       -0.0668
@<TRIPOS>BOND
     1     1     2    1
     2     2     7    1
     3     3     2    2
     4     4     3    1
     5     4     5    2
     6     5     6    1
     7     6     7    2
     8     8     1    1
     9     8     9    1
    10     8    12    1
    11     9    10    1
    12    10    11    1
    13    12    11    1
    14    14    13    1
    15    14    15    1
    16    15    18    2
    17    16    17    1
    18    16    15    1
    19    19    14    2
    20    20    21    2
    21    20    19    1
    22    21    26    1
    23    22    21    1
    24    23    22    1
    25    24    23    1
    26    24    25    1
    27    26    27    1
    28    26    13    2
    29    29    38    1
    30    29    36    1
    31    30    13    1
    32    30    35    1
    33    31     1    1
    34    32    39    1
    35    33    41    1
    36    33    38    1
    37    33    28    1
    38    34    29    1
    39    34    36    1
    40    35    34    1
    41    35    31    1
    42    37    30    1
    43    37    39    2
    44    39    42    1
    45    40    37    1
    46    42    31    1
