@<TRIPOS>MOLECULE
outputs/IAG933/test6/raw/output_8170_IAG933_linker_design_.xyz
 39 44 0 0 0
SMALL
GASTEIGER

@<TRIPOS>ATOM
      1 C         -24.8550   -1.0120   30.1430 C.3     1  UNL1        0.2040
      2 C         -24.9730   -2.5050   29.7880 C.2     1  UNL1        0.0186
      3 C         -23.9060   -3.1730   29.1460 C.2     1  UNL1       -0.0008
      4 C         -23.9890   -4.5490   28.8530 C.2     1  UNL1       -0.0002
      5 C         -25.1370   -5.2800   29.2050 C.2     1  UNL1       -0.0000
      6 C         -26.2320   -4.6110   29.7840 C.2     1  UNL1       -0.0002
      7 C         -26.1550   -3.2320   30.0650 C.2     1  UNL1       -0.0008
      8 C         -25.3870   -0.6790   31.5710 C.3     1  UNL1        0.1170
      9 C         -25.1890    0.7730   32.0280 C.3     1  UNL1        0.0229
     10 C         -25.3360    0.6840   33.5440 C.3     1  UNL1        0.0204
     11 C         -24.8290   -0.7150   33.9050 C.3     1  UNL1        0.0888
     12 N         -24.7580   -1.4810   32.6460 N.3     1  UNL1       -0.2154
     13 C         -25.6880    1.6140   26.4610 C.2     1  UNL1        0.0601
     14 C         -26.2500    2.9200   26.3950 C.2     1  UNL1        0.0781
     15 C         -25.6420    4.0930   27.1230 C.2     1  UNL1        0.2665
     16 N         -25.6140    5.2520   26.4490 N.am    1  UNL1       -0.1997
     17 C         -25.0260    6.4790   26.9630 C.3     1  UNL1        0.1388
     18 O         -25.1430    3.9660   28.2430 O.2     1  UNL1       -0.2683
     19 C         -27.4380    3.0910   25.6450 C.2     1  UNL1        0.1068
     20 N         -28.0750    2.0890   25.0030 N.2     1  UNL1       -0.2081
     21 C         -27.5430    0.8490   25.0790 C.2     1  UNL1        0.2533
     22 O         -28.1930   -0.2080   24.4770 O.2     1  UNL1       -0.4558
     23 C         -29.4600    0.0050   23.8660 C.3     1  UNL1        0.2426
     24 C         -30.0650   -1.3770   23.5730 C.3     1  UNL1        0.2292
     25 O         -30.7290   -1.8780   24.7210 O.3     1  UNL1       -0.2162
     26 C         -26.3540    0.5760   25.7770 C.2     1  UNL1        0.1946
     27 F         -25.8600   -0.6810   25.7950 F       1  UNL1       -0.1992
     28 N         -23.3933    1.3826   26.7719 N.ar    1  UNL1       -0.1693
     29 O         -25.3075   -0.2870   29.0343 O.3     1  UNL1       -0.4717
     30 C         -24.3301    0.3152   28.3105 C.ar    1  UNL1        0.1590
     31 C         -21.1965    0.9759   27.2830 C.2     1  UNL1        0.1434
     32 O         -20.8685    1.6467   26.1642 O.2     1  UNL1       -0.4390
     33 C         -20.6247    0.0336   28.4127 C.3     1  UNL1        0.0918
     34 C         -24.5181    1.2403   27.2159 C.ar    1  UNL1        0.1342
     35 C         -22.4541    0.9317   27.4954 C.ar    1  UNL1        0.1305
     36 O         -23.0867    2.2485   25.6647 O.3     1  UNL1       -0.3458
     37 C         -21.7938   -0.3553   29.1784 C.2     1  UNL1       -0.0134
     38 C         -22.9898    0.1661   28.5092 C.ar    1  UNL1        0.0534
     39 C         -21.9284    2.3432   25.4862 C.3     1  UNL1        0.4499
@<TRIPOS>BOND
     1     1    29    1
     2     2     7    1
     3     2     1    1
     4     3     2    2
     5     4     3    1
     6     4     5    2
     7     5     6    1
     8     6     7    2
     9     8     1    1
    10     8     9    1
    11     8    12    1
    12     9    10    1
    13    10    11    1
    14    12    11    1
    15    13    34    1
    16    14    13    1
    17    14    15    1
    18    15    18    2
    19    16    17    1
    20    16    15    1
    21    19    14    2
    22    20    21    2
    23    20    19    1
    24    21    26    1
    25    22    21    1
    26    23    22    1
    27    24    23    1
    28    24    25    1
    29    26    27    1
    30    26    13    2
    31    28    34   ar
    32    28    35   ar
    33    30    38   ar
    34    30    29    1
    35    31    35    2
    36    31    33    1
    37    32    31    1
    38    33    37    1
    39    34    30   ar
    40    35    38   ar
    41    36    28    1
    42    38    37    2
    43    39    36    1
    44    39    32    1
