@<TRIPOS>MOLECULE
outputs/IAG933/test6/raw/output_819_IAG933_linker_design_.xyz
 45 50 0 0 0
SMALL
GASTEIGER

@<TRIPOS>ATOM
      1 C         -24.8550   -1.0120   30.1430 C.3     1  UNL1        0.0429
      2 C         -24.9730   -2.5050   29.7880 C.2     1  UNL1       -0.0208
      3 C         -23.9060   -3.1730   29.1460 C.2     1  UNL1       -0.0042
      4 C         -23.9890   -4.5490   28.8530 C.2     1  UNL1       -0.0003
      5 C         -25.1370   -5.2800   29.2050 C.2     1  UNL1       -0.0000
      6 C         -26.2320   -4.6110   29.7840 C.2     1  UNL1       -0.0003
      7 C         -26.1550   -3.2320   30.0650 C.2     1  UNL1       -0.0042
      8 C         -25.3870   -0.6790   31.5710 C.3     1  UNL1        0.0771
      9 C         -25.1890    0.7730   32.0280 C.3     1  UNL1        0.0192
     10 C         -25.3360    0.6840   33.5440 C.3     1  UNL1        0.0202
     11 C         -24.8290   -0.7150   33.9050 C.3     1  UNL1        0.0887
     12 N         -24.7580   -1.4810   32.6460 N.3     1  UNL1       -0.2191
     13 C         -25.6880    1.6140   26.4610 C.2     1  UNL1        0.0235
     14 C         -26.2500    2.9200   26.3950 C.2     1  UNL1        0.0730
     15 C         -25.6420    4.0930   27.1230 C.2     1  UNL1        0.2661
     16 N         -25.6140    5.2520   26.4490 N.am    1  UNL1       -0.1997
     17 C         -25.0260    6.4790   26.9630 C.3     1  UNL1        0.1388
     18 O         -25.1430    3.9660   28.2430 O.2     1  UNL1       -0.2683
     19 C         -27.4380    3.0910   25.6450 C.2     1  UNL1        0.1064
     20 N         -28.0750    2.0890   25.0030 N.2     1  UNL1       -0.2081
     21 C         -27.5430    0.8490   25.0790 C.2     1  UNL1        0.2530
     22 O         -28.1930   -0.2080   24.4770 O.2     1  UNL1       -0.4558
     23 C         -29.4600    0.0050   23.8660 C.3     1  UNL1        0.2426
     24 C         -30.0650   -1.3770   23.5730 C.3     1  UNL1        0.2292
     25 O         -30.7290   -1.8780   24.7210 O.3     1  UNL1       -0.2162
     26 C         -26.3540    0.5760   25.7770 C.2     1  UNL1        0.1895
     27 F         -25.8600   -0.6810   25.7950 F       1  UNL1       -0.1996
     28 C         -23.3216    1.9747   26.4341 C.2     1  UNL1        0.1859
     29 C         -24.2080   -0.1192   29.1475 C.3     1  UNL1        0.0339
     30 S         -24.1088    2.3632   30.4424 S.3     1  UNL1       -0.1303
     31 C         -25.2739    3.5916   31.3245 C.3     1  UNL1        0.1459
     32 O         -27.4203    4.1971   32.1621 O.2     1  UNL1       -0.2707
     33 N         -27.2980    2.7584   30.3660 N.am    1  UNL1       -0.0870
     34 O         -23.3773    2.6207   25.4287 O.2     1  UNL1       -0.2928
     35 C         -26.7914    3.5069   31.3637 C.2     1  UNL1        0.2717
     36 C         -21.8585   -0.8573   29.7029 C.3     1  UNL1        0.0219
     37 C         -22.8514   -0.0690   28.9939 C.2     1  UNL1       -0.0485
     38 C         -22.1310    1.5486   27.0582 C.3     1  UNL1        0.1901
     39 C         -20.7044   -0.2228   28.8912 C.3     1  UNL1        0.0109
     40 C         -24.6321    1.3804   28.8333 C.3     1  UNL1        0.0633
     41 C         -24.4991    1.3832   27.2612 C.3     1  UNL1        0.0954
     42 O         -20.7912    1.7636   26.3340 O.3     1  UNL1       -0.3444
     43 C         -20.6053    0.9387   28.2510 C.3     1  UNL1        0.0504
     44 C         -19.7879    1.5156   27.5380 C.3     1  UNL1        0.1471
     45 C         -22.0889    0.7962   28.0507 C.2     1  UNL1       -0.0163
@<TRIPOS>BOND
     1     1     2    1
     2     2     7    1
     3     3     2    2
     4     4     3    1
     5     4     5    2
     6     5     6    1
     7     6     7    2
     8     8     1    1
     9     8     9    1
    10     8    12    1
    11     9    10    1
    12    10    11    1
    13    12    11    1
    14    14    13    1
    15    14    15    1
    16    15    18    2
    17    16    17    1
    18    16    15    1
    19    19    14    2
    20    20    21    2
    21    20    19    1
    22    21    26    1
    23    22    21    1
    24    23    22    1
    25    24    23    1
    26    24    25    1
    27    26    27    1
    28    26    13    2
    29    28    38    1
    30    28    41    1
    31    29     1    1
    32    30    31    1
    33    31    35    1
    34    33    35    1
    35    34    28    2
    36    35    32    2
    37    37    29    1
    38    37    36    1
    39    38    42    1
    40    38    45    1
    41    39    36    1
    42    40    29    1
    43    40    30    1
    44    41    13    1
    45    41    40    1
    46    42    44    1
    47    43    44    1
    48    43    39    1
    49    45    43    1
    50    45    37    2
