@<TRIPOS>MOLECULE
outputs/IAG933/test6/raw/output_8190_IAG933_linker_design_.xyz
 43 45 0 0 0
SMALL
GASTEIGER

@<TRIPOS>ATOM
      1 C         -24.8550   -1.0120   30.1430 C.3     1  UNL1        0.0713
      2 C         -24.9730   -2.5050   29.7880 C.2     1  UNL1       -0.0186
      3 C         -23.9060   -3.1730   29.1460 C.2     1  UNL1       -0.0042
      4 C         -23.9890   -4.5490   28.8530 C.2     1  UNL1       -0.0003
      5 C         -25.1370   -5.2800   29.2050 C.2     1  UNL1       -0.0000
      6 C         -26.2320   -4.6110   29.7840 C.2     1  UNL1       -0.0003
      7 C         -26.1550   -3.2320   30.0650 C.2     1  UNL1       -0.0042
      8 C         -25.3870   -0.6790   31.5710 C.3     1  UNL1        0.0794
      9 C         -25.1890    0.7730   32.0280 C.3     1  UNL1        0.0193
     10 C         -25.3360    0.6840   33.5440 C.3     1  UNL1        0.0202
     11 C         -24.8290   -0.7150   33.9050 C.3     1  UNL1        0.0887
     12 N         -24.7580   -1.4810   32.6460 N.3     1  UNL1       -0.2190
     13 C         -25.6880    1.6140   26.4610 C.3     1  UNL1        0.0729
     14 C         -26.2500    2.9200   26.3950 C.2     1  UNL1        0.0549
     15 C         -25.6420    4.0930   27.1230 C.2     1  UNL1        0.2624
     16 N         -25.6140    5.2520   26.4490 N.am    1  UNL1       -0.2000
     17 C         -25.0260    6.4790   26.9630 C.3     1  UNL1        0.1388
     18 O         -25.1430    3.9660   28.2430 O.2     1  UNL1       -0.2687
     19 C         -27.4380    3.0910   25.6450 C.2     1  UNL1        0.1021
     20 N         -28.0750    2.0890   25.0030 N.2     1  UNL1       -0.2119
     21 C         -27.5430    0.8490   25.0790 C.2     1  UNL1        0.2341
     22 O         -28.1930   -0.2080   24.4770 O.2     1  UNL1       -0.4585
     23 C         -29.4600    0.0050   23.8660 C.3     1  UNL1        0.2423
     24 C         -30.0650   -1.3770   23.5730 C.3     1  UNL1        0.2292
     25 O         -30.7290   -1.8780   24.7210 O.3     1  UNL1       -0.2162
     26 C         -26.3540    0.5760   25.7770 C.3     1  UNL1        0.2401
     27 F         -25.8600   -0.6810   25.7950 F       1  UNL1       -0.2269
     28 C         -20.4410    0.0981   28.4169 C.3     1  UNL1        0.1743
     29 O         -20.0786    0.9962   27.9129 O.3     1  UNL1       -0.3473
     30 O         -23.4325    2.9684   25.3427 O.2     1  UNL1       -0.2375
     31 C         -25.6450   -0.0582   29.3439 C.3     1  UNL1        0.1874
     32 C         -22.4752    2.2452   25.0299 C.2     1  UNL1        0.4181
     33 N         -21.8551   -0.4492   28.9755 N.3     1  UNL1        0.0419
     34 O         -26.4935    2.0985   29.3240 O.3     1  UNL1       -0.2204
     35 C         -22.8935   -0.1878   28.6704 C.3     1  UNL1        0.1736
     36 O         -26.7811   -0.4970   28.6828 O.3     1  UNL1       -0.2200
     37 C         -23.4170    0.8575   27.5729 C.3     1  UNL1        0.0775
     38 C         -22.2502    1.4705   27.2549 C.3     1  UNL1        0.2012
     39 O         -22.5304   -0.1485   29.3418 O.3     1  UNL1       -0.2488
     40 C         -25.3356    1.3050   29.0004 C.3     1  UNL1        0.1830
     41 O         -21.5638    1.7030   25.9130 O.3     1  UNL1       -0.4420
     42 C         -24.8510    1.2485   27.6747 C.3     1  UNL1        0.0465
     43 C         -21.1901    1.7418   27.9653 C.3     1  UNL1        0.1857
@<TRIPOS>BOND
     1     1    31    1
     2     2     7    1
     3     2     1    1
     4     3     2    2
     5     4     3    1
     6     4     5    2
     7     5     6    1
     8     6     7    2
     9     8     1    1
    10     8     9    1
    11     8    12    1
    12     9    10    1
    13    10    11    1
    14    12    11    1
    15    13    42    1
    16    14    13    1
    17    14    15    1
    18    15    18    2
    19    16    17    1
    20    16    15    1
    21    19    14    2
    22    20    21    2
    23    20    19    1
    24    21    26    1
    25    22    21    1
    26    23    22    1
    27    24    23    1
    28    24    25    1
    29    26    27    1
    30    26    13    1
    31    29    43    1
    32    29    28    1
    33    31    36    1
    34    32    30    2
    35    32    41    1
    36    33    39    1
    37    35    39    1
    38    37    35    1
    39    38    37    1
    40    38    43    1
    41    40    34    1
    42    40    31    1
    43    41    38    1
    44    42    37    1
    45    42    40    1
