@<TRIPOS>MOLECULE
outputs/IAG933/test6/raw/output_8194_IAG933_linker_design_.xyz
 44 48 0 0 0
SMALL
GASTEIGER

@<TRIPOS>ATOM
      1 C         -24.8550   -1.0120   30.1430 C.3     1  UNL1        0.0603
      2 C         -24.9730   -2.5050   29.7880 C.2     1  UNL1       -0.0194
      3 C         -23.9060   -3.1730   29.1460 C.2     1  UNL1       -0.0042
      4 C         -23.9890   -4.5490   28.8530 C.2     1  UNL1       -0.0003
      5 C         -25.1370   -5.2800   29.2050 C.2     1  UNL1       -0.0000
      6 C         -26.2320   -4.6110   29.7840 C.2     1  UNL1       -0.0003
      7 C         -26.1550   -3.2320   30.0650 C.2     1  UNL1       -0.0042
      8 C         -25.3870   -0.6790   31.5710 C.3     1  UNL1        0.0785
      9 C         -25.1890    0.7730   32.0280 C.3     1  UNL1        0.0192
     10 C         -25.3360    0.6840   33.5440 C.3     1  UNL1        0.0202
     11 C         -24.8290   -0.7150   33.9050 C.3     1  UNL1        0.0887
     12 N         -24.7580   -1.4810   32.6460 N.3     1  UNL1       -0.2191
     13 C         -25.6880    1.6140   26.4610 C.2     1  UNL1        0.0875
     14 C         -26.2500    2.9200   26.3950 C.2     1  UNL1        0.0899
     15 C         -25.6420    4.0930   27.1230 C.2     1  UNL1        0.2676
     16 N         -25.6140    5.2520   26.4490 N.am    1  UNL1       -0.1997
     17 C         -25.0260    6.4790   26.9630 C.3     1  UNL1        0.1388
     18 O         -25.1430    3.9660   28.2430 O.2     1  UNL1       -0.2683
     19 C         -27.4380    3.0910   25.6450 C.2     1  UNL1        0.1080
     20 N         -28.0750    2.0890   25.0030 N.2     1  UNL1       -0.2080
     21 C         -27.5430    0.8490   25.0790 C.2     1  UNL1        0.2546
     22 O         -28.1930   -0.2080   24.4770 O.2     1  UNL1       -0.4558
     23 C         -29.4600    0.0050   23.8660 C.3     1  UNL1        0.2426
     24 C         -30.0650   -1.3770   23.5730 C.3     1  UNL1        0.2292
     25 O         -30.7290   -1.8780   24.7210 O.3     1  UNL1       -0.2162
     26 C         -26.3540    0.5760   25.7770 C.2     1  UNL1        0.2063
     27 F         -25.8600   -0.6810   25.7950 F       1  UNL1       -0.1979
     28 C         -24.4897    0.6616   28.4659 C.3     1  UNL1        0.1549
     29 N         -26.7252    0.1746   29.3522 N.pl3   1  UNL1       -0.2371
     30 C         -28.7215    1.7434   29.6639 C.2     1  UNL1       -0.0070
     31 C         -30.2698    1.3372   27.8651 C.2     1  UNL1       -0.0002
     32 C         -28.8623   -0.4802   28.7249 C.2     1  UNL1        0.0158
     33 C         -28.7251    2.4438   31.0348 C.3     1  UNL1        0.0324
     34 C         -28.0719    0.4669   29.3596 C.2     1  UNL1        0.0613
     35 C         -22.9740    0.7114   28.7713 C.2     1  UNL1        0.2054
     36 C         -23.3730    1.7640   26.7917 C.3     1  UNL1        0.1944
     37 C         -22.4094    1.7347   27.9567 C.3     1  UNL1        0.2526
     38 F         -21.0293    1.5409   27.8702 F       1  UNL1       -0.2260
     39 C         -29.6244    2.2696   28.7146 C.2     1  UNL1       -0.0030
     40 CL        -22.7451    2.6162   25.4479 Cl      1  UNL1       -0.0893
     41 C         -29.9937   -0.0332   27.9974 C.2     1  UNL1        0.0013
     42 O         -22.2803   -0.0355   29.4669 O.2     1  UNL1       -0.2913
     43 C         -25.4381   -0.0475   29.1670 C.3     1  UNL1        0.1230
     44 N         -24.5409    1.4367   27.2120 N.pl3   1  UNL1       -0.2852
@<TRIPOS>BOND
     1     1    43    1
     2     2     7    1
     3     2     1    1
     4     3     2    2
     5     4     3    1
     6     4     5    2
     7     5     6    1
     8     6     7    2
     9     8     1    1
    10     8     9    1
    11     8    12    1
    12     9    10    1
    13    10    11    1
    14    12    11    1
    15    13    44    1
    16    14    13    1
    17    14    15    1
    18    15    18    2
    19    16    17    1
    20    16    15    1
    21    19    14    2
    22    20    21    2
    23    20    19    1
    24    21    26    1
    25    22    21    1
    26    23    22    1
    27    24    23    1
    28    24    25    1
    29    26    27    1
    30    26    13    2
    31    28    35    1
    32    28    43    1
    33    29    34    1
    34    30    33    1
    35    31    41    2
    36    31    39    1
    37    32    34    2
    38    34    30    1
    39    35    42    2
    40    36    40    1
    41    36    44    1
    42    36    37    1
    43    37    38    1
    44    37    35    1
    45    39    30    2
    46    41    32    1
    47    43    29    1
    48    44    28    1
