@<TRIPOS>MOLECULE
outputs/IAG933/test6/raw/output_8197_IAG933_linker_design_.xyz
 44 48 0 0 0
SMALL
GASTEIGER

@<TRIPOS>ATOM
      1 C         -24.8550   -1.0120   30.1430 C.3     1  UNL1        0.0813
      2 C         -24.9730   -2.5050   29.7880 C.2     1  UNL1       -0.0116
      3 C         -23.9060   -3.1730   29.1460 C.2     1  UNL1       -0.0034
      4 C         -23.9890   -4.5490   28.8530 C.2     1  UNL1       -0.0003
      5 C         -25.1370   -5.2800   29.2050 C.2     1  UNL1       -0.0000
      6 C         -26.2320   -4.6110   29.7840 C.2     1  UNL1       -0.0003
      7 C         -26.1550   -3.2320   30.0650 C.2     1  UNL1       -0.0034
      8 C         -25.3870   -0.6790   31.5710 C.3     1  UNL1        0.0863
      9 C         -25.1890    0.7730   32.0280 C.3     1  UNL1        0.0201
     10 C         -25.3360    0.6840   33.5440 C.3     1  UNL1        0.0203
     11 C         -24.8290   -0.7150   33.9050 C.3     1  UNL1        0.0887
     12 N         -24.7580   -1.4810   32.6460 N.3     1  UNL1       -0.2183
     13 C         -25.6880    1.6140   26.4610 C.3     1  UNL1        0.0714
     14 C         -26.2500    2.9200   26.3950 C.2     1  UNL1        0.0548
     15 C         -25.6420    4.0930   27.1230 C.2     1  UNL1        0.2624
     16 N         -25.6140    5.2520   26.4490 N.am    1  UNL1       -0.2000
     17 C         -25.0260    6.4790   26.9630 C.3     1  UNL1        0.1388
     18 O         -25.1430    3.9660   28.2430 O.2     1  UNL1       -0.2687
     19 C         -27.4380    3.0910   25.6450 C.2     1  UNL1        0.1021
     20 N         -28.0750    2.0890   25.0030 N.2     1  UNL1       -0.2119
     21 C         -27.5430    0.8490   25.0790 C.2     1  UNL1        0.2341
     22 O         -28.1930   -0.2080   24.4770 O.2     1  UNL1       -0.4585
     23 C         -29.4600    0.0050   23.8660 C.3     1  UNL1        0.2423
     24 C         -30.0650   -1.3770   23.5730 C.3     1  UNL1        0.2292
     25 O         -30.7290   -1.8780   24.7210 O.3     1  UNL1       -0.2162
     26 C         -26.3540    0.5760   25.7770 C.3     1  UNL1        0.2400
     27 F         -25.8600   -0.6810   25.7950 F       1  UNL1       -0.2269
     28 C         -29.7715    3.3703   29.7024 C.3     1  UNL1        0.0262
     29 C         -31.9685    2.4054   30.6099 C.3     1  UNL1        0.0051
     30 C         -29.4666   -0.1652   29.2463 C.2     1  UNL1        0.1919
     31 C         -27.1061    0.4988   29.2526 C.2     1  UNL1        0.0201
     32 C         -31.2864    3.4741   29.7014 C.3     1  UNL1        0.0050
     33 C         -24.1398    0.8688   28.3446 C.3     1  UNL1        0.1009
     34 O         -29.8728   -0.4580   27.9029 O.2     1  UNL1       -0.2869
     35 C         -29.0754    2.0577   29.6485 C.2     1  UNL1       -0.0226
     36 C         -21.4424    1.3542   27.5547 C.3     1  UNL1        0.0731
     37 S         -25.5292    0.0668   29.0217 S.3     1  UNL1       -0.1461
     38 C         -22.5425    0.4133   28.3435 C.2     1  UNL1        0.1602
     39 C         -29.9732    1.0530   30.0231 C.2     1  UNL1        0.0128
     40 C         -24.2235    1.4166   26.9140 C.3     1  UNL1        0.0256
     41 C         -28.0980   -0.5711   29.3939 C.2     1  UNL1        0.0471
     42 O         -22.2822   -0.5107   29.0111 O.2     1  UNL1       -0.2952
     43 C         -27.6429    1.8757   29.3225 C.2     1  UNL1        0.0011
     44 C         -30.8357    1.5084   31.1842 C.3     1  UNL1        0.0293
@<TRIPOS>BOND
     1     1    37    1
     2     2     7    1
     3     2     1    1
     4     3     2    2
     5     4     3    1
     6     4     5    2
     7     5     6    1
     8     6     7    2
     9     8     1    1
    10     8     9    1
    11     8    12    1
    12     9    10    1
    13    10    11    1
    14    12    11    1
    15    13    40    1
    16    14    13    1
    17    14    15    1
    18    15    18    2
    19    16    17    1
    20    16    15    1
    21    19    14    2
    22    20    21    2
    23    20    19    1
    24    21    26    1
    25    22    21    1
    26    23    22    1
    27    24    23    1
    28    24    25    1
    29    26    27    1
    30    26    13    1
    31    29    44    1
    32    30    41    2
    33    30    39    1
    34    31    43    2
    35    31    41    1
    36    32    28    1
    37    32    29    1
    38    33    40    1
    39    34    30    1
    40    35    28    1
    41    35    39    2
    42    36    38    1
    43    37    33    1
    44    37    31    1
    45    38    33    1
    46    38    42    2
    47    39    44    1
    48    43    35    1
