@<TRIPOS>MOLECULE
outputs/IAG933/test6/raw/output_820_IAG933_linker_design_.xyz
 42 46 0 0 0
SMALL
GASTEIGER

@<TRIPOS>ATOM
      1 C         -24.8550   -1.0120   30.1430 C.3     1  UNL1        0.0408
      2 C         -24.9730   -2.5050   29.7880 C.2     1  UNL1       -0.0211
      3 C         -23.9060   -3.1730   29.1460 C.2     1  UNL1       -0.0042
      4 C         -23.9890   -4.5490   28.8530 C.2     1  UNL1       -0.0003
      5 C         -25.1370   -5.2800   29.2050 C.2     1  UNL1       -0.0000
      6 C         -26.2320   -4.6110   29.7840 C.2     1  UNL1       -0.0003
      7 C         -26.1550   -3.2320   30.0650 C.2     1  UNL1       -0.0042
      8 C         -25.3870   -0.6790   31.5710 C.3     1  UNL1        0.0769
      9 C         -25.1890    0.7730   32.0280 C.3     1  UNL1        0.0192
     10 C         -25.3360    0.6840   33.5440 C.3     1  UNL1        0.0202
     11 C         -24.8290   -0.7150   33.9050 C.3     1  UNL1        0.0887
     12 N         -24.7580   -1.4810   32.6460 N.3     1  UNL1       -0.2191
     13 C         -25.6880    1.6140   26.4610 C.3     1  UNL1        0.0719
     14 C         -26.2500    2.9200   26.3950 C.2     1  UNL1        0.0549
     15 C         -25.6420    4.0930   27.1230 C.2     1  UNL1        0.2624
     16 N         -25.6140    5.2520   26.4490 N.am    1  UNL1       -0.2000
     17 C         -25.0260    6.4790   26.9630 C.3     1  UNL1        0.1388
     18 O         -25.1430    3.9660   28.2430 O.2     1  UNL1       -0.2687
     19 C         -27.4380    3.0910   25.6450 C.2     1  UNL1        0.1021
     20 N         -28.0750    2.0890   25.0030 N.2     1  UNL1       -0.2119
     21 C         -27.5430    0.8490   25.0790 C.2     1  UNL1        0.2341
     22 O         -28.1930   -0.2080   24.4770 O.2     1  UNL1       -0.4585
     23 C         -29.4600    0.0050   23.8660 C.3     1  UNL1        0.2423
     24 C         -30.0650   -1.3770   23.5730 C.3     1  UNL1        0.2292
     25 O         -30.7290   -1.8780   24.7210 O.3     1  UNL1       -0.2162
     26 C         -26.3540    0.5760   25.7770 C.3     1  UNL1        0.2400
     27 F         -25.8600   -0.6810   25.7950 F       1  UNL1       -0.2269
     28 O         -27.2956    1.2764   29.3893 O.3     1  UNL1       -0.3483
     29 C         -23.4649    1.3381   27.3994 C.3     1  UNL1        0.1595
     30 N         -21.1172    1.0703   27.8223 N.am    1  UNL1       -0.0867
     31 O         -22.5600   -0.1309   28.9619 O.2     1  UNL1       -0.2703
     32 C         -29.3808   -1.3288   29.9370 C.3     1  UNL1        0.1768
     33 O         -29.9422   -0.4140   30.2190 O.3     1  UNL1       -0.3259
     34 C         -25.3508   -0.0956   28.8325 C.3     1  UNL1        0.0372
     35 O         -29.0875   -0.0741   28.1225 O.3     1  UNL1       -0.3260
     36 C         -28.2309   -0.9829   28.7581 C.3     1  UNL1        0.1743
     37 C         -29.7173    0.6550   29.1526 C.3     1  UNL1        0.2662
     38 C         -28.6435    1.5376   29.7204 C.3     1  UNL1        0.2032
     39 CL        -22.9004    2.0811   25.8231 Cl      1  UNL1       -0.1051
     40 C         -26.9086    0.0555   28.9056 C.3     1  UNL1        0.1454
     41 C         -24.9678    1.1476   27.8603 C.3     1  UNL1        0.0342
     42 C         -22.3519    0.7143   28.1068 C.2     1  UNL1        0.2756
@<TRIPOS>BOND
     1     1    34    1
     2     2     7    1
     3     2     1    1
     4     3     2    2
     5     4     3    1
     6     4     5    2
     7     5     6    1
     8     6     7    2
     9     8     1    1
    10     8     9    1
    11     8    12    1
    12     9    10    1
    13    10    11    1
    14    12    11    1
    15    13    41    1
    16    14    13    1
    17    14    15    1
    18    15    18    2
    19    16    17    1
    20    16    15    1
    21    19    14    2
    22    20    21    2
    23    20    19    1
    24    21    26    1
    25    22    21    1
    26    23    22    1
    27    24    23    1
    28    24    25    1
    29    26    27    1
    30    26    13    1
    31    28    38    1
    32    29    39    1
    33    29    42    1
    34    30    42    1
    35    32    33    1
    36    34    41    1
    37    35    36    1
    38    35    37    1
    39    36    40    1
    40    36    32    1
    41    37    38    1
    42    37    33    1
    43    40    34    1
    44    40    28    1
    45    41    29    1
    46    42    31    2
