@<TRIPOS>MOLECULE
outputs/IAG933/test6/raw/output_8204_IAG933_linker_design_.xyz
 47 52 0 0 0
SMALL
GASTEIGER

@<TRIPOS>ATOM
      1 C         -24.8550   -1.0120   30.1430 C.3     1  UNL1        0.2431
      2 C         -24.9730   -2.5050   29.7880 C.2     1  UNL1        0.0254
      3 C         -23.9060   -3.1730   29.1460 C.2     1  UNL1       -0.0003
      4 C         -23.9890   -4.5490   28.8530 C.2     1  UNL1       -0.0002
      5 C         -25.1370   -5.2800   29.2050 C.2     1  UNL1       -0.0000
      6 C         -26.2320   -4.6110   29.7840 C.2     1  UNL1       -0.0002
      7 C         -26.1550   -3.2320   30.0650 C.2     1  UNL1       -0.0003
      8 C         -25.3870   -0.6790   31.5710 C.3     1  UNL1        0.1239
      9 C         -25.1890    0.7730   32.0280 C.3     1  UNL1        0.0235
     10 C         -25.3360    0.6840   33.5440 C.3     1  UNL1        0.0204
     11 C         -24.8290   -0.7150   33.9050 C.3     1  UNL1        0.0889
     12 N         -24.7580   -1.4810   32.6460 N.3     1  UNL1       -0.2149
     13 C         -25.6880    1.6140   26.4610 C.2     1  UNL1        0.0407
     14 C         -26.2500    2.9200   26.3950 C.2     1  UNL1        0.0745
     15 C         -25.6420    4.0930   27.1230 C.2     1  UNL1        0.2236
     16 N         -25.6140    5.2520   26.4490 N.2     1  UNL1       -0.2356
     17 C         -25.0260    6.4790   26.9630 C.3     1  UNL1        0.1550
     18 O         -25.1430    3.9660   28.2430 O.2     1  UNL1       -0.4409
     19 C         -27.4380    3.0910   25.6450 C.2     1  UNL1        0.1068
     20 N         -28.0750    2.0890   25.0030 N.2     1  UNL1       -0.2081
     21 C         -27.5430    0.8490   25.0790 C.2     1  UNL1        0.2533
     22 O         -28.1930   -0.2080   24.4770 O.2     1  UNL1       -0.4558
     23 C         -29.4600    0.0050   23.8660 C.3     1  UNL1        0.2426
     24 C         -30.0650   -1.3770   23.5730 C.3     1  UNL1        0.2292
     25 O         -30.7290   -1.8780   24.7210 O.3     1  UNL1       -0.2162
     26 C         -26.3540    0.5760   25.7770 C.2     1  UNL1        0.1931
     27 F         -25.8600   -0.6810   25.7950 F       1  UNL1       -0.1992
     28 CL        -22.1054    1.9624   25.7302 Cl      1  UNL1       -0.0567
     29 C         -26.3378    3.7589   30.0964 C.3     1  UNL1        0.0873
     30 C         -22.0960    1.6932   27.4988 C.3     1  UNL1        0.3504
     31 N         -28.4084    4.6351   30.3989 N.3     1  UNL1       -0.2479
     32 N         -24.3979    2.1197   29.1919 N.2     1  UNL1       -0.2235
     33 O         -21.0101    0.9731   27.9491 O.2     1  UNL1       -0.2600
     34 C         -23.2423    1.5443   28.6296 C.2     1  UNL1        0.2078
     35 C         -27.4079    6.1306   29.0898 C.2     1  UNL1       -0.0148
     36 C         -29.4400    4.7152   30.1123 C.3     1  UNL1        0.0791
     37 C         -27.3017    4.9721   29.8732 C.3     1  UNL1        0.0871
     38 C         -25.1161    3.1785   29.2630 C.3     1  UNL1        0.2741
     39 C         -28.5533    3.2269   30.5870 C.3     1  UNL1        0.1768
     40 C         -28.6772    6.6048   28.8592 C.2     1  UNL1       -0.0279
     41 N         -23.5955   -0.3197   30.0014 N.pl3   1  UNL1       -0.0251
     42 C         -29.7557    5.8976   29.3794 C.3     1  UNL1        0.0431
     43 O         -29.6747    2.3940   30.7529 O.3     1  UNL1       -0.3382
     44 N         -21.4542    0.2331   28.9587 N.2     1  UNL1        0.1617
     45 C         -29.6438    1.0579   31.3245 C.3     1  UNL1        0.1757
     46 C         -22.8011    0.4957   29.2143 C.2     1  UNL1        0.4248
     47 C         -27.2360    2.5197   30.3352 C.3     1  UNL1        0.0542
@<TRIPOS>BOND
     1     1    41    1
     2     2     7    1
     3     2     1    1
     4     3     2    2
     5     4     3    1
     6     4     5    2
     7     5     6    1
     8     6     7    2
     9     8     1    1
    10     8     9    1
    11     8    12    1
    12     9    10    1
    13    10    11    1
    14    12    11    1
    15    14    13    1
    16    14    15    1
    17    15    18    1
    18    16    17    1
    19    16    15    2
    20    19    14    2
    21    20    21    2
    22    20    19    1
    23    21    26    1
    24    22    21    1
    25    23    22    1
    26    24    23    1
    27    24    25    1
    28    26    27    1
    29    26    13    2
    30    29    38    1
    31    29    47    1
    32    30    28    1
    33    30    33    1
    34    30    34    1
    35    31    36    1
    36    31    39    1
    37    32    38    1
    38    33    44    1
    39    34    32    2
    40    34    46    1
    41    37    35    1
    42    37    29    1
    43    37    31    1
    44    38    18    1
    45    39    43    1
    46    40    35    2
    47    40    42    1
    48    42    36    1
    49    43    45    1
    50    44    46    2
    51    46    41    1
    52    47    39    1
