@<TRIPOS>MOLECULE
outputs/IAG933/test6/raw/output_8207_IAG933_linker_design_.xyz
 45 48 0 0 0
SMALL
GASTEIGER

@<TRIPOS>ATOM
      1 C         -24.8550   -1.0120   30.1430 C.3     1  UNL1        0.0625
      2 C         -24.9730   -2.5050   29.7880 C.2     1  UNL1       -0.0191
      3 C         -23.9060   -3.1730   29.1460 C.2     1  UNL1       -0.0042
      4 C         -23.9890   -4.5490   28.8530 C.2     1  UNL1       -0.0003
      5 C         -25.1370   -5.2800   29.2050 C.2     1  UNL1       -0.0000
      6 C         -26.2320   -4.6110   29.7840 C.2     1  UNL1       -0.0003
      7 C         -26.1550   -3.2320   30.0650 C.2     1  UNL1       -0.0042
      8 C         -25.3870   -0.6790   31.5710 C.3     1  UNL1        0.0788
      9 C         -25.1890    0.7730   32.0280 C.3     1  UNL1        0.0193
     10 C         -25.3360    0.6840   33.5440 C.3     1  UNL1        0.0202
     11 C         -24.8290   -0.7150   33.9050 C.3     1  UNL1        0.0887
     12 N         -24.7580   -1.4810   32.6460 N.3     1  UNL1       -0.2191
     13 C         -25.6880    1.6140   26.4610 C.2     1  UNL1        0.0386
     14 C         -26.2500    2.9200   26.3950 C.2     1  UNL1        0.0766
     15 C         -25.6420    4.0930   27.1230 C.2     1  UNL1        0.2664
     16 N         -25.6140    5.2520   26.4490 N.am    1  UNL1       -0.1997
     17 C         -25.0260    6.4790   26.9630 C.3     1  UNL1        0.1388
     18 O         -25.1430    3.9660   28.2430 O.2     1  UNL1       -0.2683
     19 C         -27.4380    3.0910   25.6450 C.2     1  UNL1        0.1067
     20 N         -28.0750    2.0890   25.0030 N.2     1  UNL1       -0.2081
     21 C         -27.5430    0.8490   25.0790 C.2     1  UNL1        0.2533
     22 O         -28.1930   -0.2080   24.4770 O.2     1  UNL1       -0.4558
     23 C         -29.4600    0.0050   23.8660 C.3     1  UNL1        0.2426
     24 C         -30.0650   -1.3770   23.5730 C.3     1  UNL1        0.2292
     25 O         -30.7290   -1.8780   24.7210 O.3     1  UNL1       -0.2162
     26 C         -26.3540    0.5760   25.7770 C.2     1  UNL1        0.1931
     27 F         -25.8600   -0.6810   25.7950 F       1  UNL1       -0.1992
     28 C         -21.8188    1.8560   26.5386 C.2     1  UNL1       -0.0100
     29 C         -21.6257    0.6525   28.7056 C.2     1  UNL1       -0.0217
     30 C         -24.3577    1.2705   27.0559 C.2     1  UNL1        0.0104
     31 C         -24.1882    0.5525   28.3257 C.2     1  UNL1       -0.0016
     32 C         -27.8863    0.0026   28.8509 C.2     1  UNL1        0.3235
     33 C         -31.4892    1.1808   28.9316 C.3     1  UNL1        0.0243
     34 C         -23.2317    1.6047   26.2779 C.2     1  UNL1        0.0535
     35 C         -21.0620    1.4692   27.5555 C.3     1  UNL1        0.0529
     36 O         -31.3447    0.3688   26.5689 O.3     1  UNL1       -0.2186
     37 C         -30.2587    0.2737   28.7368 C.3     1  UNL1        0.1099
     38 C         -22.9732    0.3797   29.0290 C.2     1  UNL1       -0.0068
     39 N         -28.9727    0.9229   29.0578 N.am    1  UNL1       -0.2601
     40 C         -25.3431   -0.0593   29.0007 C.3     1  UNL1        0.1244
     41 O         -28.0297   -1.0949   29.2717 O.2     1  UNL1       -0.2508
     42 N         -26.5966    0.2280   28.3267 N.am    1  UNL1       -0.1853
     43 C         -29.1526    1.3515   30.5294 C.3     1  UNL1        0.1165
     44 CL        -23.4834    1.5432   24.4922 Cl      1  UNL1       -0.0826
     45 C         -30.2641   -0.1948   27.3019 C.3     1  UNL1        0.2017
@<TRIPOS>BOND
     1     1    40    1
     2     2     7    1
     3     2     1    1
     4     3     2    2
     5     4     3    1
     6     4     5    2
     7     5     6    1
     8     6     7    2
     9     8     1    1
    10     8     9    1
    11     8    12    1
    12     9    10    1
    13    10    11    1
    14    12    11    1
    15    13    30    1
    16    14    13    1
    17    14    15    1
    18    15    18    2
    19    16    17    1
    20    16    15    1
    21    19    14    2
    22    20    21    2
    23    20    19    1
    24    21    26    1
    25    22    21    1
    26    23    22    1
    27    24    23    1
    28    24    25    1
    29    26    27    1
    30    26    13    2
    31    28    35    1
    32    29    38    2
    33    30    31    2
    34    31    40    1
    35    31    38    1
    36    32    39   am
    37    32    41    2
    38    34    28    2
    39    34    30    1
    40    35    29    1
    41    36    45    1
    42    37    33    1
    43    37    39    1
    44    39    43    1
    45    40    42    1
    46    42    32    1
    47    44    34    1
    48    45    37    1
