@<TRIPOS>MOLECULE
No_821-gen_results/8p0m/2024-11-27-11-27-31/
 16 17 0 0 0
SMALL
GASTEIGER

@<TRIPOS>ATOM
      1 C         -28.0162   -0.8135   28.8779 C.ar    1  UNL1        0.0067
      2 C         -28.4690   -0.7850   29.8287 C.ar    1  UNL1        0.0002
      3 C         -28.1960    0.3478   28.0550 C.ar    1  UNL1        0.0343
      4 C         -29.0191    1.3501   28.3782 C.ar    1  UNL1        0.0025
      5 C         -29.6249    1.2683   29.6012 C.ar    1  UNL1       -0.0188
      6 C         -29.3821    0.1816   30.4004 C.ar    1  UNL1       -0.0041
      7 BR        -27.2636    0.3825   26.3657 Br      1  UNL1       -0.0490
      8 C         -30.5278    2.3116   30.0533 C.3     1  UNL1        0.0654
      9 C         -30.4228    2.8188   31.2605 C.3     1  UNL1        0.1869
     10 F         -29.5859    2.4970   32.0374 F       1  UNL1       -0.2350
     11 C         -31.4277    3.7457   31.7184 C.3     1  UNL1        0.1506
     12 N         -32.3559    4.1441   31.0864 N.am    1  UNL1       -0.2025
     13 C         -31.5223    2.6587   29.1315 C.3     1  UNL1        0.0849
     14 C         -31.6874    2.2159   27.7952 C.3     1  UNL1        0.0101
     15 C         -32.4738    3.7002   29.6277 C.2     1  UNL1        0.2414
     16 O         -33.2281    4.2007   28.8030 O.2     1  UNL1       -0.2733
@<TRIPOS>BOND
     1     3     7    1
     2     5     8    1
     3     8     9    1
     4     9    10    1
     5     9    11    1
     6     8    13    1
     7    13    14    1
     8    12    15   am
     9    13    15    1
    10    15    16    2
    11    12    11    1
    12     1     2   ar
    13     2     6   ar
    14     6     5   ar
    15     5     4   ar
    16     4     3   ar
    17     3     1   ar
