@<TRIPOS>MOLECULE
outputs/IAG933/test6/raw/output_8217_IAG933_linker_design_.xyz
 46 49 0 0 0
SMALL
GASTEIGER

@<TRIPOS>ATOM
      1 C         -24.8550   -1.0120   30.1430 C.3     1  UNL1        0.0681
      2 C         -24.9730   -2.5050   29.7880 C.2     1  UNL1       -0.0187
      3 C         -23.9060   -3.1730   29.1460 C.2     1  UNL1       -0.0042
      4 C         -23.9890   -4.5490   28.8530 C.2     1  UNL1       -0.0003
      5 C         -25.1370   -5.2800   29.2050 C.2     1  UNL1       -0.0000
      6 C         -26.2320   -4.6110   29.7840 C.2     1  UNL1       -0.0003
      7 C         -26.1550   -3.2320   30.0650 C.2     1  UNL1       -0.0042
      8 C         -25.3870   -0.6790   31.5710 C.3     1  UNL1        0.0792
      9 C         -25.1890    0.7730   32.0280 C.3     1  UNL1        0.0193
     10 C         -25.3360    0.6840   33.5440 C.3     1  UNL1        0.0202
     11 C         -24.8290   -0.7150   33.9050 C.3     1  UNL1        0.0887
     12 N         -24.7580   -1.4810   32.6460 N.3     1  UNL1       -0.2190
     13 C         -25.6880    1.6140   26.4610 C.2     1  UNL1        0.0183
     14 C         -26.2500    2.9200   26.3950 C.2     1  UNL1        0.0726
     15 C         -25.6420    4.0930   27.1230 C.2     1  UNL1        0.2661
     16 N         -25.6140    5.2520   26.4490 N.am    1  UNL1       -0.1997
     17 C         -25.0260    6.4790   26.9630 C.3     1  UNL1        0.1388
     18 O         -25.1430    3.9660   28.2430 O.2     1  UNL1       -0.2683
     19 C         -27.4380    3.0910   25.6450 C.2     1  UNL1        0.1064
     20 N         -28.0750    2.0890   25.0030 N.2     1  UNL1       -0.2081
     21 C         -27.5430    0.8490   25.0790 C.2     1  UNL1        0.2530
     22 O         -28.1930   -0.2080   24.4770 O.2     1  UNL1       -0.4558
     23 C         -29.4600    0.0050   23.8660 C.3     1  UNL1        0.2426
     24 C         -30.0650   -1.3770   23.5730 C.3     1  UNL1        0.2292
     25 O         -30.7290   -1.8780   24.7210 O.3     1  UNL1       -0.2162
     26 C         -26.3540    0.5760   25.7770 C.2     1  UNL1        0.1892
     27 F         -25.8600   -0.6810   25.7950 F       1  UNL1       -0.1996
     28 C         -24.5611    1.2475   27.1569 C.3     1  UNL1        0.0634
     29 C         -28.7120    1.3179   29.7083 C.2     1  UNL1        0.1847
     30 O         -28.8729    0.5890   30.6792 O.2     1  UNL1       -0.2931
     31 O         -23.8972    1.5199   29.2842 O.3     1  UNL1       -0.2202
     32 C         -27.4050    4.2564   30.8494 C.2     1  UNL1       -0.0038
     33 C         -27.4773    4.4734   33.2498 C.2     1  UNL1       -0.0000
     34 C         -23.3087    1.2670   26.4655 C.3     1  UNL1        0.0794
     35 C         -28.6679    3.5920   30.8532 C.2     1  UNL1       -0.0147
     36 C         -29.1607    2.7759   29.6126 C.3     1  UNL1        0.0934
     37 C         -28.7653    3.9563   33.2405 C.2     1  UNL1       -0.0003
     38 C         -22.1140    1.7019   26.7567 C.3     1  UNL1        0.3190
     39 F         -21.4246    2.3036   25.9965 F       1  UNL1       -0.1984
     40 C         -26.7938    4.6227   32.0459 C.2     1  UNL1       -0.0003
     41 C         -24.4013    0.5614   28.3395 C.3     1  UNL1        0.1834
     42 C         -28.0479    0.8523   28.4503 C.3     1  UNL1        0.2064
     43 C         -29.3986    3.5580   32.0482 C.2     1  UNL1       -0.0038
     44 C         -25.5585   -0.0731   29.0711 C.3     1  UNL1        0.1516
     45 O         -26.5983    1.1207   28.7354 O.3     1  UNL1       -0.3454
     46 F         -21.4342    1.2322   27.7519 F       1  UNL1       -0.1984
@<TRIPOS>BOND
     1     1    44    1
     2     2     7    1
     3     2     1    1
     4     3     2    2
     5     4     3    1
     6     4     5    2
     7     5     6    1
     8     6     7    2
     9     8     1    1
    10     8     9    1
    11     8    12    1
    12     9    10    1
    13    10    11    1
    14    12    11    1
    15    13    28    1
    16    14    13    1
    17    14    15    1
    18    15    18    2
    19    16    17    1
    20    16    15    1
    21    19    14    2
    22    20    21    2
    23    20    19    1
    24    21    26    1
    25    22    21    1
    26    23    22    1
    27    24    23    1
    28    24    25    1
    29    26    27    1
    30    26    13    2
    31    28    34    1
    32    28    41    1
    33    29    30    2
    34    32    35    2
    35    32    40    1
    36    34    38    1
    37    35    43    1
    38    36    29    1
    39    36    35    1
    40    37    33    1
    41    38    46    1
    42    39    38    1
    43    40    33    2
    44    41    44    1
    45    41    31    1
    46    42    45    1
    47    42    29    1
    48    43    37    2
    49    44    45    1
