@<TRIPOS>MOLECULE
outputs/IAG933/test6/raw/output_8221_IAG933_linker_design_.xyz
 41 44 0 0 0
SMALL
GASTEIGER

@<TRIPOS>ATOM
      1 C         -24.8550   -1.0120   30.1430 C.3     1  UNL1        0.1214
      2 C         -24.9730   -2.5050   29.7880 C.2     1  UNL1       -0.0025
      3 C         -23.9060   -3.1730   29.1460 C.2     1  UNL1       -0.0026
      4 C         -23.9890   -4.5490   28.8530 C.2     1  UNL1       -0.0003
      5 C         -25.1370   -5.2800   29.2050 C.2     1  UNL1       -0.0000
      6 C         -26.2320   -4.6110   29.7840 C.2     1  UNL1       -0.0003
      7 C         -26.1550   -3.2320   30.0650 C.2     1  UNL1       -0.0026
      8 C         -25.3870   -0.6790   31.5710 C.3     1  UNL1        0.0956
      9 C         -25.1890    0.7730   32.0280 C.3     1  UNL1        0.0209
     10 C         -25.3360    0.6840   33.5440 C.3     1  UNL1        0.0203
     11 C         -24.8290   -0.7150   33.9050 C.3     1  UNL1        0.0888
     12 N         -24.7580   -1.4810   32.6460 N.3     1  UNL1       -0.2174
     13 C         -25.6880    1.6140   26.4610 C.2     1  UNL1        0.0395
     14 C         -26.2500    2.9200   26.3950 C.2     1  UNL1        0.0766
     15 C         -25.6420    4.0930   27.1230 C.2     1  UNL1        0.2664
     16 N         -25.6140    5.2520   26.4490 N.am    1  UNL1       -0.1997
     17 C         -25.0260    6.4790   26.9630 C.3     1  UNL1        0.1388
     18 O         -25.1430    3.9660   28.2430 O.2     1  UNL1       -0.2683
     19 C         -27.4380    3.0910   25.6450 C.2     1  UNL1        0.1067
     20 N         -28.0750    2.0890   25.0030 N.2     1  UNL1       -0.2081
     21 C         -27.5430    0.8490   25.0790 C.2     1  UNL1        0.2533
     22 O         -28.1930   -0.2080   24.4770 O.2     1  UNL1       -0.4558
     23 C         -29.4600    0.0050   23.8660 C.3     1  UNL1        0.2426
     24 C         -30.0650   -1.3770   23.5730 C.3     1  UNL1        0.2292
     25 O         -30.7290   -1.8780   24.7210 O.3     1  UNL1       -0.2162
     26 C         -26.3540    0.5760   25.7770 C.2     1  UNL1        0.1931
     27 F         -25.8600   -0.6810   25.7950 F       1  UNL1       -0.1992
     28 F         -22.3041    2.8651   24.7197 F       1  UNL1        0.0139
     29 O         -26.6277    1.8021   29.3508 O.co2   1  UNL1       -0.2220
     30 F         -22.4317   -0.3162   29.5681 F       1  UNL1       -0.2004
     31 C         -24.2932    0.5204   28.2363 C.2     1  UNL1        0.0873
     32 C         -26.5448    0.5708   29.1801 C.2     1  UNL1        0.4512
     33 O         -21.4970    2.1970   25.5994 O.2     1  UNL1       -0.2895
     34 C         -21.9768    1.2989   27.8176 C.2     1  UNL1        0.2065
     35 C         -22.8583    0.4765   28.5829 C.2     1  UNL1        0.1842
     36 C         -22.2943    1.7078   26.5438 C.2     1  UNL1        0.2184
     37 C         -23.5212    1.5412   26.2086 C.2     1  UNL1        0.0451
     38 C         -24.5223    1.2511   27.0475 C.2     1  UNL1        0.0218
     39 N         -25.2619   -0.0000   29.1150 N.am    1  UNL1       -0.2162
     40 F         -20.8766    1.8214   28.3221 F       1  UNL1       -0.1984
     41 O         -27.5281   -0.1679   29.1370 O.co2   1  UNL1       -0.2220
@<TRIPOS>BOND
     1     1    39    1
     2     2     7    1
     3     2     1    1
     4     3     2    2
     5     4     3    1
     6     4     5    2
     7     5     6    1
     8     6     7    2
     9     8     1    1
    10     8     9    1
    11     8    12    1
    12     9    10    1
    13    10    11    1
    14    12    11    1
    15    13    38    1
    16    14    13    1
    17    14    15    1
    18    15    18    2
    19    16    17    1
    20    16    15    1
    21    19    14    2
    22    20    21    2
    23    20    19    1
    24    21    26    1
    25    22    21    1
    26    23    22    1
    27    24    23    1
    28    24    25    1
    29    26    27    1
    30    26    13    2
    31    28    33    1
    32    31    35    1
    33    31    39    1
    34    32    29   ar
    35    33    36    1
    36    34    40    1
    37    34    35    2
    38    35    30    1
    39    36    34    1
    40    37    36    2
    41    37    38    1
    42    38    31    2
    43    39    32   am
    44    41    32   ar
