@<TRIPOS>MOLECULE
outputs/IAG933/test6/raw/output_8223_IAG933_linker_design_.xyz
 45 49 0 0 0
SMALL
GASTEIGER

@<TRIPOS>ATOM
      1 C         -24.8550   -1.0120   30.1430 C.3     1  UNL1        0.0696
      2 C         -24.9730   -2.5050   29.7880 C.2     1  UNL1       -0.0184
      3 C         -23.9060   -3.1730   29.1460 C.2     1  UNL1       -0.0041
      4 C         -23.9890   -4.5490   28.8530 C.2     1  UNL1       -0.0003
      5 C         -25.1370   -5.2800   29.2050 C.2     1  UNL1       -0.0000
      6 C         -26.2320   -4.6110   29.7840 C.2     1  UNL1       -0.0003
      7 C         -26.1550   -3.2320   30.0650 C.2     1  UNL1       -0.0041
      8 C         -25.3870   -0.6790   31.5710 C.3     1  UNL1        0.0795
      9 C         -25.1890    0.7730   32.0280 C.3     1  UNL1        0.0193
     10 C         -25.3360    0.6840   33.5440 C.3     1  UNL1        0.0202
     11 C         -24.8290   -0.7150   33.9050 C.3     1  UNL1        0.0887
     12 N         -24.7580   -1.4810   32.6460 N.3     1  UNL1       -0.2190
     13 C         -25.6880    1.6140   26.4610 C.2     1  UNL1        0.0303
     14 C         -26.2500    2.9200   26.3950 C.2     1  UNL1        0.0738
     15 C         -25.6420    4.0930   27.1230 C.2     1  UNL1        0.2662
     16 N         -25.6140    5.2520   26.4490 N.am    1  UNL1       -0.1997
     17 C         -25.0260    6.4790   26.9630 C.3     1  UNL1        0.1388
     18 O         -25.1430    3.9660   28.2430 O.2     1  UNL1       -0.2683
     19 C         -27.4380    3.0910   25.6450 C.2     1  UNL1        0.1065
     20 N         -28.0750    2.0890   25.0030 N.2     1  UNL1       -0.2081
     21 C         -27.5430    0.8490   25.0790 C.2     1  UNL1        0.2530
     22 O         -28.1930   -0.2080   24.4770 O.2     1  UNL1       -0.4558
     23 C         -29.4600    0.0050   23.8660 C.3     1  UNL1        0.2426
     24 C         -30.0650   -1.3770   23.5730 C.3     1  UNL1        0.2292
     25 O         -30.7290   -1.8780   24.7210 O.3     1  UNL1       -0.2162
     26 C         -26.3540    0.5760   25.7770 C.2     1  UNL1        0.1904
     27 F         -25.8600   -0.6810   25.7950 F       1  UNL1       -0.1995
     28 C         -23.2198   -0.1182   28.4664 C.3     1  UNL1        0.0736
     29 C         -28.9308   -0.5141   30.9585 C.3     1  UNL1        0.1270
     30 C         -24.5527    1.3627   27.1965 C.3     1  UNL1        0.0837
     31 N         -24.5321    0.1846   28.0699 N.3     1  UNL1       -0.2574
     32 O         -31.1827   -0.8672   26.7120 O.3     1  UNL1       -0.2164
     33 C         -22.4548    1.0712   28.7103 C.3     1  UNL1        0.0174
     34 C         -25.3934   -0.1936   29.0568 C.3     1  UNL1        0.1375
     35 C         -30.7711    0.3805   27.2521 C.3     1  UNL1        0.2254
     36 C         -27.8507   -0.1060   29.7424 C.3     1  UNL1        0.0890
     37 C         -21.5442    1.4011   27.5344 C.3     1  UNL1        0.0015
     38 C         -22.2530    2.0497   26.3776 C.3     1  UNL1        0.0018
     39 O         -31.0134   -0.6639   29.5967 O.3     1  UNL1       -0.4494
     40 C         -30.1822   -1.1932   30.4758 C.2     1  UNL1        0.3184
     41 C         -23.5765    1.3748   26.0523 C.3     1  UNL1        0.0206
     42 N         -26.6085   -0.1549   28.8682 N.3     1  UNL1       -0.2038
     43 C         -28.8043   -0.3463   28.4872 C.3     1  UNL1        0.0644
     44 C         -30.2827    0.1292   28.6647 C.3     1  UNL1        0.2030
     45 O         -30.2888   -2.3307   30.6376 O.2     1  UNL1       -0.2501
@<TRIPOS>BOND
     1     1    34    1
     2     2     7    1
     3     2     1    1
     4     3     2    2
     5     4     3    1
     6     4     5    2
     7     5     6    1
     8     6     7    2
     9     8     1    1
    10     8     9    1
    11     8    12    1
    12     9    10    1
    13    10    11    1
    14    12    11    1
    15    14    13    1
    16    14    15    1
    17    15    18    2
    18    16    17    1
    19    16    15    1
    20    19    14    2
    21    20    21    2
    22    20    19    1
    23    21    26    1
    24    22    21    1
    25    23    22    1
    26    24    23    1
    27    24    25    1
    28    26    27    1
    29    26    13    2
    30    28    33    1
    31    30    13    1
    32    30    31    1
    33    31    28    1
    34    31    34    1
    35    32    35    1
    36    34    42    1
    37    36    42    1
    38    36    29    1
    39    37    33    1
    40    38    37    1
    41    39    40    1
    42    40    45    2
    43    40    29    1
    44    41    38    1
    45    41    30    1
    46    43    44    1
    47    43    36    1
    48    44    35    1
    49    44    39    1
