@<TRIPOS>MOLECULE
outputs/IAG933/test6/raw/output_8229_IAG933_linker_design_.xyz
 43 47 0 0 0
SMALL
GASTEIGER

@<TRIPOS>ATOM
      1 C         -24.8550   -1.0120   30.1430 C.3     1  UNL1        0.0965
      2 C         -24.9730   -2.5050   29.7880 C.2     1  UNL1       -0.0064
      3 C         -23.9060   -3.1730   29.1460 C.2     1  UNL1       -0.0029
      4 C         -23.9890   -4.5490   28.8530 C.2     1  UNL1       -0.0003
      5 C         -25.1370   -5.2800   29.2050 C.2     1  UNL1       -0.0000
      6 C         -26.2320   -4.6110   29.7840 C.2     1  UNL1       -0.0003
      7 C         -26.1550   -3.2320   30.0650 C.2     1  UNL1       -0.0029
      8 C         -25.3870   -0.6790   31.5710 C.3     1  UNL1        0.0916
      9 C         -25.1890    0.7730   32.0280 C.3     1  UNL1        0.0206
     10 C         -25.3360    0.6840   33.5440 C.3     1  UNL1        0.0203
     11 C         -24.8290   -0.7150   33.9050 C.3     1  UNL1        0.0888
     12 N         -24.7580   -1.4810   32.6460 N.3     1  UNL1       -0.2178
     13 C         -25.6880    1.6140   26.4610 C.3     1  UNL1        0.1142
     14 C         -26.2500    2.9200   26.3950 C.2     1  UNL1        0.0587
     15 C         -25.6420    4.0930   27.1230 C.2     1  UNL1        0.2626
     16 N         -25.6140    5.2520   26.4490 N.am    1  UNL1       -0.2000
     17 C         -25.0260    6.4790   26.9630 C.3     1  UNL1        0.1388
     18 O         -25.1430    3.9660   28.2430 O.2     1  UNL1       -0.2687
     19 C         -27.4380    3.0910   25.6450 C.2     1  UNL1        0.1023
     20 N         -28.0750    2.0890   25.0030 N.2     1  UNL1       -0.2119
     21 C         -27.5430    0.8490   25.0790 C.2     1  UNL1        0.2342
     22 O         -28.1930   -0.2080   24.4770 O.2     1  UNL1       -0.4585
     23 C         -29.4600    0.0050   23.8660 C.3     1  UNL1        0.2423
     24 C         -30.0650   -1.3770   23.5730 C.3     1  UNL1        0.2292
     25 O         -30.7290   -1.8780   24.7210 O.3     1  UNL1       -0.2162
     26 C         -26.3540    0.5760   25.7770 C.3     1  UNL1        0.2438
     27 F         -25.8600   -0.6810   25.7950 F       1  UNL1       -0.2268
     28 C         -22.3179    1.1993   28.2882 C.2     1  UNL1        0.1400
     29 C         -30.6108    1.2255   29.2730 C.3     1  UNL1        0.0188
     30 C         -29.4096    0.0720   27.5588 C.3     1  UNL1        0.0722
     31 C         -24.6149    1.4384   29.3356 C.3     1  UNL1        0.1009
     32 C         -24.2130    1.7203   26.7434 C.3     1  UNL1        0.1951
     33 C         -21.9481    1.6560   25.9251 C.2     1  UNL1        0.1748
     34 C         -26.1912   -0.2557   28.2892 C.3     1  UNL1        0.0901
     35 C         -21.4119    1.4241   27.2184 C.2     1  UNL1        0.0692
     36 C         -23.6968    1.5406   28.1236 C.2     1  UNL1        0.0390
     37 N         -28.4234    0.7266   28.4708 N.3     1  UNL1       -0.2715
     38 F         -21.9524    0.5050   29.3698 F       1  UNL1       -0.2046
     39 C         -30.6371   -0.0346   28.4425 C.3     1  UNL1        0.0188
     40 C         -29.1453    1.5416   29.5145 C.3     1  UNL1        0.0722
     41 O         -23.2758    1.7961   25.7063 O.2     1  UNL1       -0.4714
     42 C         -27.4887   -0.2472   29.0936 C.3     1  UNL1        0.0897
     43 N         -24.9683    0.0299   29.0560 N.3     1  UNL1       -0.2643
@<TRIPOS>BOND
     1     1    43    1
     2     2     7    1
     3     2     1    1
     4     3     2    2
     5     4     3    1
     6     4     5    2
     7     5     6    1
     8     6     7    2
     9     8     1    1
    10     8     9    1
    11     8    12    1
    12     9    10    1
    13    10    11    1
    14    12    11    1
    15    13    14    1
    16    13    32    1
    17    14    15    1
    18    15    18    2
    19    16    17    1
    20    16    15    1
    21    19    14    2
    22    20    21    2
    23    20    19    1
    24    21    26    1
    25    22    21    1
    26    23    22    1
    27    24    23    1
    28    24    25    1
    29    26    27    1
    30    26    13    1
    31    28    38    1
    32    29    40    1
    33    30    39    1
    34    30    37    1
    35    32    41    1
    36    32    36    1
    37    33    35    2
    38    34    43    1
    39    34    42    1
    40    35    28    1
    41    36    28    2
    42    36    31    1
    43    37    42    1
    44    37    40    1
    45    39    29    1
    46    41    33    1
    47    43    31    1
