@<TRIPOS>MOLECULE
outputs/IAG933/test6/raw/output_8234_IAG933_linker_design_.xyz
 44 47 0 0 0
SMALL
GASTEIGER

@<TRIPOS>ATOM
      1 C         -24.8550   -1.0120   30.1430 C.3     1  UNL1        0.1204
      2 C         -24.9730   -2.5050   29.7880 C.2     1  UNL1       -0.0024
      3 C         -23.9060   -3.1730   29.1460 C.2     1  UNL1       -0.0026
      4 C         -23.9890   -4.5490   28.8530 C.2     1  UNL1       -0.0003
      5 C         -25.1370   -5.2800   29.2050 C.2     1  UNL1       -0.0000
      6 C         -26.2320   -4.6110   29.7840 C.2     1  UNL1       -0.0003
      7 C         -26.1550   -3.2320   30.0650 C.2     1  UNL1       -0.0026
      8 C         -25.3870   -0.6790   31.5710 C.3     1  UNL1        0.0957
      9 C         -25.1890    0.7730   32.0280 C.3     1  UNL1        0.0209
     10 C         -25.3360    0.6840   33.5440 C.3     1  UNL1        0.0203
     11 C         -24.8290   -0.7150   33.9050 C.3     1  UNL1        0.0888
     12 N         -24.7580   -1.4810   32.6460 N.3     1  UNL1       -0.2174
     13 C         -25.6880    1.6140   26.4610 C.2     1  UNL1        0.0192
     14 C         -26.2500    2.9200   26.3950 C.2     1  UNL1        0.0727
     15 C         -25.6420    4.0930   27.1230 C.2     1  UNL1        0.2661
     16 N         -25.6140    5.2520   26.4490 N.am    1  UNL1       -0.1997
     17 C         -25.0260    6.4790   26.9630 C.3     1  UNL1        0.1388
     18 O         -25.1430    3.9660   28.2430 O.2     1  UNL1       -0.2683
     19 C         -27.4380    3.0910   25.6450 C.2     1  UNL1        0.1064
     20 N         -28.0750    2.0890   25.0030 N.2     1  UNL1       -0.2081
     21 C         -27.5430    0.8490   25.0790 C.2     1  UNL1        0.2530
     22 O         -28.1930   -0.2080   24.4770 O.2     1  UNL1       -0.4558
     23 C         -29.4600    0.0050   23.8660 C.3     1  UNL1        0.2426
     24 C         -30.0650   -1.3770   23.5730 C.3     1  UNL1        0.2292
     25 O         -30.7290   -1.8780   24.7210 O.3     1  UNL1       -0.2162
     26 C         -26.3540    0.5760   25.7770 C.2     1  UNL1        0.1892
     27 F         -25.8600   -0.6810   25.7950 F       1  UNL1       -0.1996
     28 O         -21.9455    2.8047   25.1240 O.co2   1  UNL1       -0.2456
     29 C         -27.8626    1.0548   28.8714 C.1     1  UNL1        0.0072
     30 C         -22.1222    1.3631   27.3919 C.3     1  UNL1        0.2112
     31 C         -20.0191   -0.5699   27.6568 C.3     1  UNL1        0.0044
     32 O         -20.9056    2.2810   28.0165 O.3     1  UNL1       -0.0346
     33 C         -23.0793    2.0396   25.4447 C.2     1  UNL1        0.3674
     34 N         -25.6710   -0.2140   29.0323 N.pl3   1  UNL1       -0.2504
     35 C         -24.7307    0.1273   28.1548 C.3     1  UNL1        0.1619
     36 F         -22.4962    0.3125   30.0686 F       1  UNL1       -0.2194
     37 O         -20.7979    1.5949   27.1409 O.3     1  UNL1       -0.1869
     38 O         -24.0152    1.9782   24.5048 O.co2   1  UNL1       -0.2456
     39 C         -22.4085    0.3298   28.5100 C.3     1  UNL1        0.2232
     40 C         -23.3046    1.6942   26.6864 C.3     1  UNL1        0.1450
     41 C         -26.7901    0.3512   29.0179 C.1     1  UNL1        0.0150
     42 C         -24.5902    1.1754   27.0762 C.3     1  UNL1        0.0739
     43 N         -23.5029   -0.1858   28.3993 N.3     1  UNL1       -0.1693
     44 C         -20.9570   -0.2904   28.6354 C.3     1  UNL1        0.0523
@<TRIPOS>BOND
     1     1    34    1
     2     2     7    1
     3     2     1    1
     4     3     2    2
     5     4     3    1
     6     4     5    2
     7     5     6    1
     8     6     7    2
     9     8     1    1
    10     8     9    1
    11     8    12    1
    12     9    10    1
    13    10    11    1
    14    12    11    1
    15    14    13    1
    16    14    15    1
    17    15    18    2
    18    16    17    1
    19    16    15    1
    20    19    14    2
    21    20    21    2
    22    20    19    1
    23    21    26    1
    24    22    21    1
    25    23    22    1
    26    24    23    1
    27    24    25    1
    28    26    27    1
    29    26    13    2
    30    28    33   ar
    31    29    41    3
    32    30    37    1
    33    30    39    1
    34    31    44    1
    35    35    43    1
    36    35    34    1
    37    37    32    1
    38    38    33   ar
    39    39    44    1
    40    39    36    1
    41    40    33    1
    42    40    42    1
    43    40    30    1
    44    41    34    1
    45    42    13    1
    46    42    35    1
    47    43    39    1
