@<TRIPOS>MOLECULE
outputs/IAG933/test6/raw/output_8236_IAG933_linker_design_.xyz
 48 54 0 0 0
SMALL
GASTEIGER

@<TRIPOS>ATOM
      1 C         -24.8550   -1.0120   30.1430 C.3     1  UNL1        0.1140
      2 C         -24.9730   -2.5050   29.7880 C.2     1  UNL1       -0.0029
      3 C         -23.9060   -3.1730   29.1460 C.2     1  UNL1       -0.0026
      4 C         -23.9890   -4.5490   28.8530 C.2     1  UNL1       -0.0003
      5 C         -25.1370   -5.2800   29.2050 C.2     1  UNL1       -0.0000
      6 C         -26.2320   -4.6110   29.7840 C.2     1  UNL1       -0.0003
      7 C         -26.1550   -3.2320   30.0650 C.2     1  UNL1       -0.0026
      8 C         -25.3870   -0.6790   31.5710 C.3     1  UNL1        0.0951
      9 C         -25.1890    0.7730   32.0280 C.3     1  UNL1        0.0209
     10 C         -25.3360    0.6840   33.5440 C.3     1  UNL1        0.0203
     11 C         -24.8290   -0.7150   33.9050 C.3     1  UNL1        0.0888
     12 N         -24.7580   -1.4810   32.6460 N.3     1  UNL1       -0.2174
     13 C         -25.6880    1.6140   26.4610 C.3     1  UNL1        0.0734
     14 C         -26.2500    2.9200   26.3950 C.2     1  UNL1        0.0549
     15 C         -25.6420    4.0930   27.1230 C.2     1  UNL1        0.2624
     16 N         -25.6140    5.2520   26.4490 N.am    1  UNL1       -0.2000
     17 C         -25.0260    6.4790   26.9630 C.3     1  UNL1        0.1388
     18 O         -25.1430    3.9660   28.2430 O.2     1  UNL1       -0.2687
     19 C         -27.4380    3.0910   25.6450 C.2     1  UNL1        0.1021
     20 N         -28.0750    2.0890   25.0030 N.2     1  UNL1       -0.2119
     21 C         -27.5430    0.8490   25.0790 C.2     1  UNL1        0.2341
     22 O         -28.1930   -0.2080   24.4770 O.2     1  UNL1       -0.4585
     23 C         -29.4600    0.0050   23.8660 C.3     1  UNL1        0.2423
     24 C         -30.0650   -1.3770   23.5730 C.3     1  UNL1        0.2292
     25 O         -30.7290   -1.8780   24.7210 O.3     1  UNL1       -0.2162
     26 C         -26.3540    0.5760   25.7770 C.3     1  UNL1        0.2401
     27 F         -25.8600   -0.6810   25.7950 F       1  UNL1       -0.2269
     28 C         -27.0628    1.1173   28.8072 C.2     1  UNL1        0.0342
     29 C         -27.6741    2.5727   29.1214 C.1     1  UNL1       -0.1099
     30 O         -22.2185   -0.0029   29.7482 O.2     1  UNL1       -0.2739
     31 C         -23.2650    0.3336   28.9981 C.2     1  UNL1        0.2364
     32 C         -30.8669    3.4789   28.2062 C.3     1  UNL1        0.2285
     33 BR        -21.4315    1.8971   27.4619 Br      1  UNL1       -0.0718
     34 N         -24.6133    0.0493   29.2581 N.am    1  UNL1       -0.2726
     35 O         -29.1385    1.4176   30.0465 O.3     1  UNL1       -0.2107
     36 C         -30.1794    4.9654   27.8827 C.3     1  UNL1        0.2536
     37 C         -30.3053    4.2647   25.4314 C.3     1  UNL1        0.1769
     38 C         -30.3666    2.2142   28.5445 C.3     1  UNL1        0.2816
     39 C         -25.7395    0.5231   28.5770 C.3     1  UNL1        0.1071
     40 C         -23.3305    1.0738   27.7810 C.3     1  UNL1        0.1356
     41 C         -29.4116    4.8928   29.3793 C.3     1  UNL1        0.0942
     42 C         -24.8085    1.2054   27.4566 C.3     1  UNL1        0.0497
     43 O         -29.5334    0.9657   28.7843 O.3     1  UNL1       -0.1912
     44 O         -29.4985    4.6106   26.6350 O.3     1  UNL1       -0.3272
     45 O         -30.1806    6.5361   27.9913 O.3     1  UNL1       -0.1921
     46 C         -29.5334    2.5977   29.8340 C.3     1  UNL1        0.2338
     47 O         -31.2661    2.4064   27.4098 O.3     1  UNL1       -0.3201
     48 C         -28.6794    3.4787   29.4616 C.2     1  UNL1        0.0297
@<TRIPOS>BOND
     1     1     2    1
     2     2     7    1
     3     3     2    2
     4     4     3    1
     5     4     5    2
     6     5     6    1
     7     6     7    2
     8     8     1    1
     9     8     9    1
    10     8    12    1
    11     9    10    1
    12    10    11    1
    13    12    11    1
    14    13    14    1
    15    14    15    1
    16    15    18    2
    17    16    17    1
    18    16    15    1
    19    19    14    2
    20    20    21    2
    21    20    19    1
    22    21    26    1
    23    22    21    1
    24    23    22    1
    25    24    23    1
    26    24    25    1
    27    26    27    1
    28    26    13    1
    29    28    29    2
    30    29    48    2
    31    31    34   am
    32    31    30    2
    33    32    47    1
    34    32    38    1
    35    34     1    1
    36    36    45    1
    37    36    32    1
    38    36    41    1
    39    37    44    1
    40    38    47    1
    41    38    43    1
    42    38    46    1
    43    39    28    1
    44    39    34    1
    45    40    33    1
    46    40    31    1
    47    41    48    1
    48    42    13    1
    49    42    40    1
    50    42    39    1
    51    43    35    1
    52    44    36    1
    53    46    48    1
    54    46    35    1
