@<TRIPOS>MOLECULE
outputs/IAG933/test6/raw/output_8237_IAG933_linker_design_.xyz
 48 51 0 0 0
SMALL
GASTEIGER

@<TRIPOS>ATOM
      1 C         -24.8550   -1.0120   30.1430 C.3     1  UNL1        0.0441
      2 C         -24.9730   -2.5050   29.7880 C.2     1  UNL1       -0.0210
      3 C         -23.9060   -3.1730   29.1460 C.2     1  UNL1       -0.0042
      4 C         -23.9890   -4.5490   28.8530 C.2     1  UNL1       -0.0003
      5 C         -25.1370   -5.2800   29.2050 C.2     1  UNL1       -0.0000
      6 C         -26.2320   -4.6110   29.7840 C.2     1  UNL1       -0.0003
      7 C         -26.1550   -3.2320   30.0650 C.2     1  UNL1       -0.0042
      8 C         -25.3870   -0.6790   31.5710 C.3     1  UNL1        0.0770
      9 C         -25.1890    0.7730   32.0280 C.3     1  UNL1        0.0192
     10 C         -25.3360    0.6840   33.5440 C.3     1  UNL1        0.0202
     11 C         -24.8290   -0.7150   33.9050 C.3     1  UNL1        0.0887
     12 N         -24.7580   -1.4810   32.6460 N.3     1  UNL1       -0.2191
     13 C         -25.6880    1.6140   26.4610 C.3     1  UNL1        0.0998
     14 C         -26.2500    2.9200   26.3950 C.2     1  UNL1        0.0573
     15 C         -25.6420    4.0930   27.1230 C.2     1  UNL1        0.2625
     16 N         -25.6140    5.2520   26.4490 N.am    1  UNL1       -0.2000
     17 C         -25.0260    6.4790   26.9630 C.3     1  UNL1        0.1388
     18 O         -25.1430    3.9660   28.2430 O.2     1  UNL1       -0.2687
     19 C         -27.4380    3.0910   25.6450 C.2     1  UNL1        0.1022
     20 N         -28.0750    2.0890   25.0030 N.2     1  UNL1       -0.2119
     21 C         -27.5430    0.8490   25.0790 C.2     1  UNL1        0.2342
     22 O         -28.1930   -0.2080   24.4770 O.2     1  UNL1       -0.4585
     23 C         -29.4600    0.0050   23.8660 C.3     1  UNL1        0.2423
     24 C         -30.0650   -1.3770   23.5730 C.3     1  UNL1        0.2292
     25 O         -30.7290   -1.8780   24.7210 O.3     1  UNL1       -0.2162
     26 C         -26.3540    0.5760   25.7770 C.3     1  UNL1        0.2424
     27 F         -25.8600   -0.6810   25.7950 F       1  UNL1       -0.2268
     28 C         -29.9913    2.0568   29.9683 C.3     1  UNL1        0.1887
     29 C         -28.9885    0.5600   32.4548 C.3     1  UNL1        0.1785
     30 C         -30.4263   -2.4697   30.7744 C.3     1  UNL1        0.1838
     31 O         -31.2261   -2.3031   29.6397 O.3     1  UNL1       -0.2204
     32 C         -23.2971    0.8128   28.6047 C.3     1  UNL1        0.2700
     33 N         -29.6274    0.6501   29.9718 N.am    1  UNL1       -0.2579
     34 C         -24.2002    1.3834   26.3708 C.3     1  UNL1        0.1526
     35 C         -31.9995   -0.7848   31.8317 C.3     1  UNL1        0.0045
     36 C         -30.5508   -1.2591   31.6507 C.3     1  UNL1        0.0538
     37 O         -29.8953    4.0574   31.4673 O.3     1  UNL1       -0.1439
     38 C         -24.6507    0.2200   29.2131 C.3     1  UNL1        0.0760
     39 C         -29.3368    0.0927   28.7605 C.2     1  UNL1        0.2770
     40 O         -30.1006   -0.0152   27.8896 O.2     1  UNL1       -0.2627
     41 C         -29.4940   -0.2007   31.1890 C.3     1  UNL1        0.1104
     42 S         -30.3281    2.6719   31.3076 S.3     1  UNL1        0.0468
     43 O         -29.6481    1.8728   32.4094 O.3     1  UNL1       -0.2910
     44 O         -23.1708    0.6981   27.1966 O.3     1  UNL1       -0.3280
     45 C         -25.9496    0.1886   28.3471 C.3     1  UNL1        0.0720
     46 O         -22.1296    0.3430   29.2891 O.3     1  UNL1       -0.1899
     47 C         -31.9564    2.8330   31.6697 C.3     1  UNL1        0.1099
     48 S         -27.7018   -0.5877   28.5545 S.3     1  UNL1       -0.0570
@<TRIPOS>BOND
     1     1    38    1
     2     2     7    1
     3     2     1    1
     4     3     2    2
     5     4     3    1
     6     4     5    2
     7     5     6    1
     8     6     7    2
     9     8     1    1
    10     8     9    1
    11     8    12    1
    12     9    10    1
    13    10    11    1
    14    12    11    1
    15    13    34    1
    16    14    13    1
    17    14    15    1
    18    15    18    2
    19    16    17    1
    20    16    15    1
    21    19    14    2
    22    20    21    2
    23    20    19    1
    24    21    26    1
    25    22    21    1
    26    23    22    1
    27    24    23    1
    28    24    25    1
    29    26    27    1
    30    26    13    1
    31    28    33    1
    32    28    42    1
    33    30    36    1
    34    31    30    1
    35    32    38    1
    36    32    46    1
    37    33    41    1
    38    34    44    1
    39    36    35    1
    40    38    45    1
    41    39    33   am
    42    40    39    2
    43    41    36    1
    44    41    29    1
    45    42    37    1
    46    42    47    1
    47    42    43    1
    48    43    29    1
    49    44    32    1
    50    45    48    1
    51    48    39    1
