@<TRIPOS>MOLECULE
outputs/IAG933/test6/raw/output_8239_IAG933_linker_design_.xyz
 48 51 0 0 0
SMALL
GASTEIGER

@<TRIPOS>ATOM
      1 C         -24.8550   -1.0120   30.1430 C.3     1  UNL1        0.0400
      2 C         -24.9730   -2.5050   29.7880 C.2     1  UNL1       -0.0211
      3 C         -23.9060   -3.1730   29.1460 C.2     1  UNL1       -0.0042
      4 C         -23.9890   -4.5490   28.8530 C.2     1  UNL1       -0.0003
      5 C         -25.1370   -5.2800   29.2050 C.2     1  UNL1       -0.0000
      6 C         -26.2320   -4.6110   29.7840 C.2     1  UNL1       -0.0003
      7 C         -26.1550   -3.2320   30.0650 C.2     1  UNL1       -0.0042
      8 C         -25.3870   -0.6790   31.5710 C.3     1  UNL1        0.0769
      9 C         -25.1890    0.7730   32.0280 C.3     1  UNL1        0.0192
     10 C         -25.3360    0.6840   33.5440 C.3     1  UNL1        0.0202
     11 C         -24.8290   -0.7150   33.9050 C.3     1  UNL1        0.0887
     12 N         -24.7580   -1.4810   32.6460 N.3     1  UNL1       -0.2191
     13 C         -25.6880    1.6140   26.4610 C.3     1  UNL1        0.0899
     14 C         -26.2500    2.9200   26.3950 C.2     1  UNL1        0.0565
     15 C         -25.6420    4.0930   27.1230 C.2     1  UNL1        0.2625
     16 N         -25.6140    5.2520   26.4490 N.am    1  UNL1       -0.2000
     17 C         -25.0260    6.4790   26.9630 C.3     1  UNL1        0.1388
     18 O         -25.1430    3.9660   28.2430 O.2     1  UNL1       -0.2687
     19 C         -27.4380    3.0910   25.6450 C.2     1  UNL1        0.1022
     20 N         -28.0750    2.0890   25.0030 N.2     1  UNL1       -0.2119
     21 C         -27.5430    0.8490   25.0790 C.2     1  UNL1        0.2341
     22 O         -28.1930   -0.2080   24.4770 O.2     1  UNL1       -0.4585
     23 C         -29.4600    0.0050   23.8660 C.3     1  UNL1        0.2423
     24 C         -30.0650   -1.3770   23.5730 C.3     1  UNL1        0.2292
     25 O         -30.7290   -1.8780   24.7210 O.3     1  UNL1       -0.2162
     26 C         -26.3540    0.5760   25.7770 C.3     1  UNL1        0.2417
     27 F         -25.8600   -0.6810   25.7950 F       1  UNL1       -0.2268
     28 C         -21.3216    1.8287   26.9718 C.3     1  UNL1        0.0948
     29 C         -31.2578    2.9032   30.4003 C.2     1  UNL1        0.0994
     30 N         -30.3298    3.9694   30.2678 N.2     1  UNL1       -0.2453
     31 C         -25.3054    0.0060   29.1046 C.3     1  UNL1        0.0256
     32 O         -21.7355    0.8255   29.0871 O.2     1  UNL1       -0.2749
     33 C         -24.1694    1.5638   26.4581 C.3     1  UNL1        0.1012
     34 C         -29.5815    1.4311   29.3296 C.2     1  UNL1        0.0565
     35 C         -26.8657    0.3041   29.1543 C.3     1  UNL1        0.0068
     36 CL        -29.5942    0.3706   28.0856 Cl      1  UNL1       -0.0825
     37 N         -23.6074    1.3856   27.7775 N.am    1  UNL1       -0.2791
     38 C         -24.0645   -0.0121   28.0883 C.3     1  UNL1        0.0937
     39 O         -25.8857    5.6527   30.3626 O.co2   1  UNL1       -0.2424
     40 C         -28.1373    4.8521   29.8555 C.3     1  UNL1        0.2932
     41 C         -29.0030    3.6937   29.8990 C.2     1  UNL1        0.0971
     42 C         -27.1506    1.8410   29.1759 C.3     1  UNL1        0.0286
     43 C         -22.2211    1.3606   28.1235 C.2     1  UNL1        0.2261
     44 C         -30.8392    1.5990   30.0257 C.2     1  UNL1        0.0317
     45 O         -28.4553    5.7354   28.9440 O.3     1  UNL1       -0.2043
     46 C         -28.5746    2.3160   29.4811 C.2     1  UNL1        0.0050
     47 C         -26.9584    5.1225   30.7446 C.2     1  UNL1        0.4005
     48 O         -27.0642    4.9413   31.9422 O.co2   1  UNL1       -0.2424
@<TRIPOS>BOND
     1     1    31    1
     2     2     7    1
     3     2     1    1
     4     3     2    2
     5     4     3    1
     6     4     5    2
     7     5     6    1
     8     6     7    2
     9     8     1    1
    10     8     9    1
    11     8    12    1
    12     9    10    1
    13    10    11    1
    14    12    11    1
    15    13    33    1
    16    14    13    1
    17    14    15    1
    18    15    18    2
    19    16    17    1
    20    16    15    1
    21    19    14    2
    22    20    21    2
    23    20    19    1
    24    21    26    1
    25    22    21    1
    26    23    22    1
    27    24    23    1
    28    24    25    1
    29    26    27    1
    30    26    13    1
    31    28    43    1
    32    30    29    1
    33    31    38    1
    34    31    35    1
    35    33    37    1
    36    34    46    2
    37    34    44    1
    38    35    42    1
    39    36    34    1
    40    37    38    1
    41    37    43   am
    42    39    47   ar
    43    40    45    1
    44    40    41    1
    45    40    47    1
    46    41    30    2
    47    42    46    1
    48    43    32    2
    49    44    29    2
    50    46    41    1
    51    47    48   ar
