@<TRIPOS>MOLECULE
outputs/IAG933/test6/raw/output_8241_IAG933_linker_design_.xyz
 47 51 0 0 0
SMALL
GASTEIGER

@<TRIPOS>ATOM
      1 C         -24.8550   -1.0120   30.1430 C.3     1  UNL1        0.0633
      2 C         -24.9730   -2.5050   29.7880 C.2     1  UNL1       -0.0189
      3 C         -23.9060   -3.1730   29.1460 C.2     1  UNL1       -0.0042
      4 C         -23.9890   -4.5490   28.8530 C.2     1  UNL1       -0.0003
      5 C         -25.1370   -5.2800   29.2050 C.2     1  UNL1       -0.0000
      6 C         -26.2320   -4.6110   29.7840 C.2     1  UNL1       -0.0003
      7 C         -26.1550   -3.2320   30.0650 C.2     1  UNL1       -0.0042
      8 C         -25.3870   -0.6790   31.5710 C.3     1  UNL1        0.0791
      9 C         -25.1890    0.7730   32.0280 C.3     1  UNL1        0.0193
     10 C         -25.3360    0.6840   33.5440 C.3     1  UNL1        0.0202
     11 C         -24.8290   -0.7150   33.9050 C.3     1  UNL1        0.0887
     12 N         -24.7580   -1.4810   32.6460 N.3     1  UNL1       -0.2191
     13 C         -25.6880    1.6140   26.4610 C.2     1  UNL1        0.0500
     14 C         -26.2500    2.9200   26.3950 C.2     1  UNL1        0.0753
     15 C         -25.6420    4.0930   27.1230 C.2     1  UNL1        0.2662
     16 N         -25.6140    5.2520   26.4490 N.am    1  UNL1       -0.1997
     17 C         -25.0260    6.4790   26.9630 C.3     1  UNL1        0.1388
     18 O         -25.1430    3.9660   28.2430 O.2     1  UNL1       -0.2683
     19 C         -27.4380    3.0910   25.6450 C.2     1  UNL1        0.1065
     20 N         -28.0750    2.0890   25.0030 N.2     1  UNL1       -0.2081
     21 C         -27.5430    0.8490   25.0790 C.2     1  UNL1        0.2531
     22 O         -28.1930   -0.2080   24.4770 O.2     1  UNL1       -0.4558
     23 C         -29.4600    0.0050   23.8660 C.3     1  UNL1        0.2426
     24 C         -30.0650   -1.3770   23.5730 C.3     1  UNL1        0.2292
     25 O         -30.7290   -1.8780   24.7210 O.3     1  UNL1       -0.2162
     26 C         -26.3540    0.5760   25.7770 C.2     1  UNL1        0.1918
     27 F         -25.8600   -0.6810   25.7950 F       1  UNL1       -0.1995
     28 O         -24.3417    0.3984   28.0466 O.3     1  UNL1       -0.3484
     29 C         -26.6217    6.7303   33.0066 C.2     1  UNL1       -0.0183
     30 C         -25.1834    4.8412   33.7587 C.2     1  UNL1       -0.0216
     31 C         -23.1049    0.3148   28.8120 C.3     1  UNL1        0.0323
     32 C         -25.2958    4.0384   32.7355 C.2     1  UNL1       -0.0055
     33 C         -21.2799    1.7306   27.4636 C.2     1  UNL1       -0.0230
     34 C         -24.3322    0.3083   29.4840 C.3     1  UNL1        0.0992
     35 C         -27.3114    6.2846   31.8149 C.2     1  UNL1        0.0323
     36 C         -25.7786    6.1071   33.9175 C.3     1  UNL1        0.0521
     37 C         -21.7828    0.8863   28.4416 C.3     1  UNL1        0.0286
     38 O         -23.6388    1.9902   24.8281 O.2     1  UNL1       -0.2884
     39 C         -27.1820    5.0644   31.2178 C.2     1  UNL1        0.1344
     40 C         -29.5099    5.3043   30.3554 C.3     1  UNL1        0.2525
     41 O         -28.2049    4.5940   30.3526 O.2     1  UNL1       -0.4718
     42 C         -24.8629    1.9588   29.9090 C.3     1  UNL1        0.0324
     43 C         -26.0177    4.1378   31.5304 C.2     1  UNL1        0.0115
     44 C         -23.4583    1.8518   26.0136 C.2     1  UNL1        0.2040
     45 C         -24.4331    1.3666   26.9702 C.3     1  UNL1        0.2008
     46 C         -22.0276    2.2205   26.4644 C.2     1  UNL1        0.0358
     47 C         -25.5329    3.3416   30.4867 C.3     1  UNL1        0.0318
@<TRIPOS>BOND
     1     1     2    1
     2     2     7    1
     3     3     2    2
     4     4     3    1
     5     4     5    2
     6     5     6    1
     7     6     7    2
     8     8     1    1
     9     8     9    1
    10     8    12    1
    11     9    10    1
    12    10    11    1
    13    12    11    1
    14    14    13    1
    15    14    15    1
    16    15    18    2
    17    16    17    1
    18    16    15    1
    19    19    14    2
    20    20    21    2
    21    20    19    1
    22    21    26    1
    23    22    21    1
    24    23    22    1
    25    24    23    1
    26    24    25    1
    27    26    27    1
    28    26    13    2
    29    28    34    1
    30    29    36    1
    31    30    36    1
    32    31    34    1
    33    32    30    2
    34    33    37    1
    35    34    42    1
    36    34     1    1
    37    35    29    2
    38    37    31    1
    39    38    44    2
    40    39    43    2
    41    39    35    1
    42    41    40    1
    43    41    39    1
    44    42    47    1
    45    43    32    1
    46    44    46    1
    47    44    45    1
    48    45    13    1
    49    45    28    1
    50    46    33    2
    51    47    43    1
