@<TRIPOS>MOLECULE
outputs/IAG933/test6/raw/output_8243_IAG933_linker_design_.xyz
 42 46 0 0 0
SMALL
GASTEIGER

@<TRIPOS>ATOM
      1 C         -24.8550   -1.0120   30.1430 C.3     1  UNL1        0.0440
      2 C         -24.9730   -2.5050   29.7880 C.2     1  UNL1       -0.0208
      3 C         -23.9060   -3.1730   29.1460 C.2     1  UNL1       -0.0042
      4 C         -23.9890   -4.5490   28.8530 C.2     1  UNL1       -0.0003
      5 C         -25.1370   -5.2800   29.2050 C.2     1  UNL1       -0.0000
      6 C         -26.2320   -4.6110   29.7840 C.2     1  UNL1       -0.0003
      7 C         -26.1550   -3.2320   30.0650 C.2     1  UNL1       -0.0042
      8 C         -25.3870   -0.6790   31.5710 C.3     1  UNL1        0.0809
      9 C         -25.1890    0.7730   32.0280 C.3     1  UNL1        0.0374
     10 C         -25.3360    0.6840   33.5440 C.3     1  UNL1        0.0243
     11 C         -24.8290   -0.7150   33.9050 C.3     1  UNL1        0.0890
     12 N         -24.7580   -1.4810   32.6460 N.3     1  UNL1       -0.2188
     13 C         -25.6880    1.6140   26.4610 C.2     1  UNL1        0.0206
     14 C         -26.2500    2.9200   26.3950 C.2     1  UNL1        0.0727
     15 C         -25.6420    4.0930   27.1230 C.2     1  UNL1        0.2661
     16 N         -25.6140    5.2520   26.4490 N.am    1  UNL1       -0.1997
     17 C         -25.0260    6.4790   26.9630 C.3     1  UNL1        0.1388
     18 O         -25.1430    3.9660   28.2430 O.2     1  UNL1       -0.2683
     19 C         -27.4380    3.0910   25.6450 C.2     1  UNL1        0.1064
     20 N         -28.0750    2.0890   25.0030 N.2     1  UNL1       -0.2081
     21 C         -27.5430    0.8490   25.0790 C.2     1  UNL1        0.2530
     22 O         -28.1930   -0.2080   24.4770 O.2     1  UNL1       -0.4558
     23 C         -29.4600    0.0050   23.8660 C.3     1  UNL1        0.2426
     24 C         -30.0650   -1.3770   23.5730 C.3     1  UNL1        0.2292
     25 O         -30.7290   -1.8780   24.7210 O.3     1  UNL1       -0.2162
     26 C         -26.3540    0.5760   25.7770 C.2     1  UNL1        0.1893
     27 F         -25.8600   -0.6810   25.7950 F       1  UNL1       -0.1996
     28 C         -25.0725    2.3885   31.6322 C.2     1  UNL1       -0.0274
     29 C         -23.6039    4.2287   30.6216 C.2     1  UNL1       -0.0093
     30 C         -21.1141    2.0215   27.0470 C.2     1  UNL1        0.2996
     31 C         -26.8112    5.6214   30.8433 C.3     1  UNL1        0.0087
     32 C         -23.4303    2.1739   27.5096 C.3     1  UNL1        0.1894
     33 O         -22.3710    2.0933   26.2582 O.2     1  UNL1       -0.4580
     34 C         -24.3026    5.3006   31.1381 C.2     1  UNL1       -0.0256
     35 C         -25.8819    3.6032   32.1603 C.2     1  UNL1       -0.0295
     36 C         -24.1306    1.8410   28.4424 C.3     1  UNL1        0.1213
     37 N         -24.3070    1.7003   29.9521 N.3     1  UNL1       -0.2082
     38 C         -25.6320    5.0594   31.7506 C.3     1  UNL1        0.0363
     39 C         -25.6272    5.9201   33.0452 C.3     1  UNL1        0.0087
     40 N         -20.9057    1.6271   28.2215 N.2     1  UNL1       -0.1022
     41 C         -24.2699    2.8534   30.7567 C.3     1  UNL1        0.1125
     42 C         -24.4579    1.1528   27.1364 C.3     1  UNL1        0.0859
@<TRIPOS>BOND
     1     2     7    1
     2     2     1    1
     3     3     2    2
     4     4     3    1
     5     4     5    2
     6     5     6    1
     7     6     7    2
     8     8     1    1
     9     8     9    1
    10     8    12    1
    11     9    28    1
    12     9    10    1
    13    10    11    1
    14    12    11    1
    15    14    13    1
    16    14    15    1
    17    15    18    2
    18    16    17    1
    19    16    15    1
    20    19    14    2
    21    20    21    2
    22    20    19    1
    23    21    26    1
    24    22    21    1
    25    23    22    1
    26    24    23    1
    27    24    25    1
    28    26    27    1
    29    26    13    2
    30    28    35    2
    31    29    41    1
    32    29    34    2
    33    30    40    2
    34    31    38    1
    35    32    33    1
    36    32    36    1
    37    33    30    1
    38    34    38    1
    39    36    37    1
    40    38    35    1
    41    38    39    1
    42    41    37    1
    43    41    28    1
    44    42    13    1
    45    42    32    1
    46    42    36    1
