@<TRIPOS>MOLECULE
outputs/IAG933/test6/raw/output_8248_IAG933_linker_design_.xyz
 59 66 0 0 0
SMALL
GASTEIGER

@<TRIPOS>ATOM
      1 C         -24.8550   -1.0120   30.1430 C.3     1  UNL1        0.0571
      2 C         -24.9730   -2.5050   29.7880 C.2     1  UNL1       -0.0195
      3 C         -23.9060   -3.1730   29.1460 C.2     1  UNL1       -0.0042
      4 C         -23.9890   -4.5490   28.8530 C.2     1  UNL1       -0.0003
      5 C         -25.1370   -5.2800   29.2050 C.2     1  UNL1       -0.0000
      6 C         -26.2320   -4.6110   29.7840 C.2     1  UNL1       -0.0003
      7 C         -26.1550   -3.2320   30.0650 C.2     1  UNL1       -0.0042
      8 C         -25.3870   -0.6790   31.5710 C.3     1  UNL1        0.0784
      9 C         -25.1890    0.7730   32.0280 C.3     1  UNL1        0.0192
     10 C         -25.3360    0.6840   33.5440 C.3     1  UNL1        0.0202
     11 C         -24.8290   -0.7150   33.9050 C.3     1  UNL1        0.0887
     12 N         -24.7580   -1.4810   32.6460 N.3     1  UNL1       -0.2191
     13 C         -25.6880    1.6140   26.4610 C.2     1  UNL1        0.0344
     14 C         -26.2500    2.9200   26.3950 C.2     1  UNL1        0.0742
     15 C         -25.6420    4.0930   27.1230 C.2     1  UNL1        0.2662
     16 N         -25.6140    5.2520   26.4490 N.am    1  UNL1       -0.1997
     17 C         -25.0260    6.4790   26.9630 C.3     1  UNL1        0.1388
     18 O         -25.1430    3.9660   28.2430 O.2     1  UNL1       -0.2683
     19 C         -27.4380    3.0910   25.6450 C.2     1  UNL1        0.1065
     20 N         -28.0750    2.0890   25.0030 N.2     1  UNL1       -0.2081
     21 C         -27.5430    0.8490   25.0790 C.2     1  UNL1        0.2530
     22 O         -28.1930   -0.2080   24.4770 O.2     1  UNL1       -0.4560
     23 C         -29.4600    0.0050   23.8660 C.3     1  UNL1        0.2392
     24 C         -30.0650   -1.3770   23.5730 C.3     1  UNL1        0.1923
     25 O         -30.7290   -1.8780   24.7210 O.3     1  UNL1       -0.3230
     26 C         -26.3540    0.5760   25.7770 C.2     1  UNL1        0.1907
     27 F         -25.8600   -0.6810   25.7950 F       1  UNL1       -0.1995
     28 N         -29.0510   -4.0277   30.7775 N.2     1  UNL1       -0.2665
     29 C         -24.4084    1.2959   27.1843 C.3     1  UNL1        0.1052
     30 C         -31.2170   -0.5751   27.2813 C.2     1  UNL1        0.0656
     31 C         -30.7071   -0.8178   28.7056 C.2     1  UNL1        0.1352
     32 C         -27.6027    1.5350   29.3214 C.2     1  UNL1       -0.0247
     33 C         -29.4812   -0.1258   28.9275 C.2     1  UNL1        0.0083
     34 O         -32.9692   -3.6628   31.2885 O.3     1  UNL1       -0.3492
     35 C         -34.2961   -3.5642   30.8615 C.3     1  UNL1        0.1745
     36 C         -28.7349    2.2126   29.0407 C.3     1  UNL1        0.0518
     37 C         -29.7319    1.2605   28.5911 C.2     1  UNL1       -0.0191
     38 C         -21.4206    1.3250   27.9140 C.3     1  UNL1        0.0272
     39 C         -23.3741   -0.0466   28.4380 C.3     1  UNL1        0.0732
     40 C         -25.4821    0.0313   29.1484 C.3     1  UNL1        0.0853
     41 N         -24.5218    0.9691   28.5678 N.3     1  UNL1       -0.2641
     42 C         -28.6151   -0.9954   29.9358 C.3     1  UNL1        0.0339
     43 C         -30.3580   -3.5267   31.1276 C.2     1  UNL1        0.0957
     44 C         -31.6877    0.7102   27.3015 C.2     1  UNL1        0.0107
     45 C         -22.1356    1.9117   26.7456 C.2     1  UNL1       -0.0290
     46 C         -26.8035    0.4153   28.6927 C.2     1  UNL1       -0.0143
     47 C         -23.4640    2.0593   26.3951 C.2     1  UNL1       -0.0105
     48 C         -31.0282    1.6342   28.1565 C.2     1  UNL1       -0.0061
     49 C         -32.4732   -4.8440   31.8760 C.3     1  UNL1        0.1386
     50 C         -30.8021   -2.0704   30.8684 C.3     1  UNL1        0.2501
     51 C         -30.0193   -5.7462   32.0060 C.2     1  UNL1       -0.0007
     52 C         -30.9459   -4.7267   31.7862 C.2     1  UNL1        0.0189
     53 C         -22.2974    0.7924   29.0245 C.3     1  UNL1        0.0220
     54 C         -33.3208   -4.6468   33.1320 C.3     1  UNL1        0.0370
     55 O         -32.4521   -0.4431   25.3269 O.3     1  UNL1       -0.3222
     56 O         -31.0729   -1.7402   29.5324 O.2     1  UNL1       -0.4695
     57 C         -32.7125    0.7172   26.1479 C.3     1  UNL1        0.1715
     58 C         -31.3462   -1.1482   25.8529 C.3     1  UNL1        0.2631
     59 C         -28.8440   -5.3244   31.3187 C.3     1  UNL1        0.1511
@<TRIPOS>BOND
     1     1     2    1
     2     2     7    1
     3     3     2    2
     4     4     3    1
     5     4     5    2
     6     5     6    1
     7     6     7    2
     8     8     1    1
     9     8     9    1
    10     8    12    1
    11     9    10    1
    12    10    11    1
    13    12    11    1
    14    13    29    1
    15    14    13    1
    16    14    15    1
    17    15    18    2
    18    16    17    1
    19    16    15    1
    20    19    14    2
    21    20    21    2
    22    20    19    1
    23    21    26    1
    24    22    21    1
    25    23    22    1
    26    24    23    1
    27    24    25    1
    28    26    27    1
    29    26    13    2
    30    28    43    2
    31    28    59    1
    32    29    47    1
    33    29    41    1
    34    30    44    2
    35    30    31    1
    36    31    33    2
    37    31    56    1
    38    33    42    1
    39    34    49    1
    40    35    34    1
    41    36    32    1
    42    37    33    1
    43    37    36    1
    44    38    53    1
    45    39    53    1
    46    40     1    1
    47    41    39    1
    48    41    40    1
    49    43    52    1
    50    44    48    1
    51    45    38    1
    52    46    40    1
    53    46    32    2
    54    47    45    2
    55    48    37    2
    56    49    54    1
    57    50    43    1
    58    52    49    1
    59    52    51    2
    60    55    58    1
    61    55    57    1
    62    56    50    1
    63    57    44    1
    64    58    25    1
    65    58    30    1
    66    59    51    1
