@<TRIPOS>MOLECULE
outputs/IAG933/test6/raw/output_8249_IAG933_linker_design_.xyz
 43 47 0 0 0
SMALL
GASTEIGER

@<TRIPOS>ATOM
      1 C         -24.8550   -1.0120   30.1430 C.3     1  UNL1        0.0454
      2 C         -24.9730   -2.5050   29.7880 C.2     1  UNL1       -0.0207
      3 C         -23.9060   -3.1730   29.1460 C.2     1  UNL1       -0.0042
      4 C         -23.9890   -4.5490   28.8530 C.2     1  UNL1       -0.0003
      5 C         -25.1370   -5.2800   29.2050 C.2     1  UNL1       -0.0000
      6 C         -26.2320   -4.6110   29.7840 C.2     1  UNL1       -0.0003
      7 C         -26.1550   -3.2320   30.0650 C.2     1  UNL1       -0.0042
      8 C         -25.3870   -0.6790   31.5710 C.3     1  UNL1        0.0952
      9 C         -25.1890    0.7730   32.0280 C.3     1  UNL1        0.0917
     10 C         -25.3360    0.6840   33.5440 C.3     1  UNL1        0.0400
     11 C         -24.8290   -0.7150   33.9050 C.3     1  UNL1        0.0905
     12 N         -24.7580   -1.4810   32.6460 N.3     1  UNL1       -0.2174
     13 C         -25.6880    1.6140   26.4610 C.3     1  UNL1        0.1644
     14 C         -26.2500    2.9200   26.3950 C.2     1  UNL1        0.0747
     15 C         -25.6420    4.0930   27.1230 C.2     1  UNL1        0.2641
     16 N         -25.6140    5.2520   26.4490 N.am    1  UNL1       -0.1999
     17 C         -25.0260    6.4790   26.9630 C.3     1  UNL1        0.1388
     18 O         -25.1430    3.9660   28.2430 O.2     1  UNL1       -0.2686
     19 C         -27.4380    3.0910   25.6450 C.2     1  UNL1        0.1038
     20 N         -28.0750    2.0890   25.0030 N.2     1  UNL1       -0.2118
     21 C         -27.5430    0.8490   25.0790 C.2     1  UNL1        0.2359
     22 O         -28.1930   -0.2080   24.4770 O.2     1  UNL1       -0.4585
     23 C         -29.4600    0.0050   23.8660 C.3     1  UNL1        0.2423
     24 C         -30.0650   -1.3770   23.5730 C.3     1  UNL1        0.2292
     25 O         -30.7290   -1.8780   24.7210 O.3     1  UNL1       -0.2162
     26 C         -26.3540    0.5760   25.7770 C.3     1  UNL1        0.2597
     27 F         -25.8600   -0.6810   25.7950 F       1  UNL1       -0.2250
     28 N         -24.4105    1.3356   26.8265 N.am    1  UNL1       -0.1842
     29 C         -25.1970    4.6622   33.0764 C.2     1  UNL1        0.0013
     30 C         -22.2044    1.8542   27.4130 C.3     1  UNL1        0.2551
     31 N         -24.3731    0.3089   27.6945 N.3     1  UNL1       -0.0476
     32 C         -26.3387    3.9389   30.6136 C.2     1  UNL1        0.0145
     33 N         -24.0206    0.8352   28.6881 N.3     1  UNL1       -0.1628
     34 F         -20.8797    2.1119   27.1577 F       1  UNL1       -0.2258
     35 C         -25.8837    5.5760   32.3321 C.2     1  UNL1        0.0001
     36 C         -25.0613    3.4288   32.5233 C.2     1  UNL1        0.0145
     37 C         -25.3386    1.1428   29.4095 C.3     1  UNL1        0.1859
     38 O         -23.2526    2.7610   25.4711 O.2     1  UNL1       -0.2705
     39 N         -25.0941    1.7167   30.7786 N.pl3   1  UNL1       -0.2930
     40 C         -23.3021    1.9616   26.5513 C.2     1  UNL1        0.2754
     41 C         -22.5986    1.3626   28.6980 C.3     1  UNL1        0.1384
     42 C         -26.4875    5.2035   31.1446 C.2     1  UNL1        0.0013
     43 C         -25.5403    2.9562   31.2011 C.2     1  UNL1        0.0488
@<TRIPOS>BOND
     1     2     7    1
     2     2     1    1
     3     3     2    2
     4     4     3    1
     5     4     5    2
     6     5     6    1
     7     6     7    2
     8     8     1    1
     9     8     9    1
    10     8    12    1
    11     9    39    1
    12     9    10    1
    13    10    11    1
    14    12    11    1
    15    13    28    1
    16    14    13    1
    17    14    15    1
    18    15    18    2
    19    16    17    1
    20    16    15    1
    21    19    14    2
    22    20    21    2
    23    20    19    1
    24    21    26    1
    25    22    21    1
    26    23    22    1
    27    24    23    1
    28    24    25    1
    29    26    27    1
    30    26    13    1
    31    28    31    1
    32    30    34    1
    33    30    41    1
    34    31    33    1
    35    32    42    2
    36    32    43    1
    37    33    41    1
    38    33    37    1
    39    35    29    2
    40    36    29    1
    41    37    39    1
    42    38    40    2
    43    39    43    1
    44    40    28   am
    45    40    30    1
    46    42    35    1
    47    43    36    2
