@<TRIPOS>MOLECULE
No_825-gen_results/8p0m/2024-11-27-11-27-31/
 16 17 0 0 0
SMALL
GASTEIGER

@<TRIPOS>ATOM
      1 C         -28.0162   -0.8135   28.8779 C.ar    1  UNL1        0.0056
      2 C         -28.4690   -0.7850   29.8287 C.ar    1  UNL1        0.0678
      3 C         -26.5042   -0.7777   28.8766 C.ar    1  UNL1        0.0002
      4 C         -25.8103   -0.8531   30.1028 C.ar    1  UNL1        0.0000
      5 C         -27.9906   -0.8916   31.2257 C.ar    1  UNL1        0.0056
      6 C         -26.6042   -0.8676   31.2652 C.ar    1  UNL1        0.0002
      7 C         -30.0739   -0.8360   29.8615 C.2     1  UNL1        0.3334
      8 O         -30.5608   -0.4417   28.9417 O.2     1  UNL1       -0.2541
      9 F         -30.7204   -0.8543   30.9949 F       1  UNL1       -0.1586
     10 C         -24.3711   -0.8036   30.1344 C.ar    1  UNL1        0.0008
     11 C         -23.6437   -1.4256   30.6731 C.ar    1  UNL1        0.0001
     12 C         -23.7815    0.2846   29.2794 C.ar    1  UNL1        0.0114
     13 C         -22.3899    0.3744   29.1493 C.ar    1  UNL1        0.0577
     14 C         -22.1888   -1.4296   30.7214 C.ar    1  UNL1        0.0009
     15 C         -21.6369   -0.5223   29.8597 C.ar    1  UNL1        0.0114
     16 CL        -21.7493    1.5296   28.0762 Cl      1  UNL1       -0.0822
@<TRIPOS>BOND
     1     2     7    1
     2     7     8    2
     3     7     9    1
     4     4    10    1
     5    13    16    1
     6    10    11   ar
     7    11    14   ar
     8    14    15   ar
     9    15    13   ar
    10    13    12   ar
    11    12    10   ar
    12     1     2   ar
    13     2     5   ar
    14     5     6   ar
    15     6     4   ar
    16     4     3   ar
    17     3     1   ar
