@<TRIPOS>MOLECULE
outputs/IAG933/test6/raw/output_8251_IAG933_linker_design_.xyz
 40 43 0 0 0
SMALL
GASTEIGER

@<TRIPOS>ATOM
      1 C         -24.8550   -1.0120   30.1430 C.3     1  UNL1        0.1016
      2 C         -24.9730   -2.5050   29.7880 C.2     1  UNL1       -0.0138
      3 C         -23.9060   -3.1730   29.1460 C.2     1  UNL1       -0.0038
      4 C         -23.9890   -4.5490   28.8530 C.2     1  UNL1       -0.0003
      5 C         -25.1370   -5.2800   29.2050 C.2     1  UNL1       -0.0000
      6 C         -26.2320   -4.6110   29.7840 C.2     1  UNL1       -0.0003
      7 C         -26.1550   -3.2320   30.0650 C.2     1  UNL1       -0.0038
      8 C         -25.3870   -0.6790   31.5710 C.3     1  UNL1        0.0842
      9 C         -25.1890    0.7730   32.0280 C.3     1  UNL1        0.0196
     10 C         -25.3360    0.6840   33.5440 C.3     1  UNL1        0.0203
     11 C         -24.8290   -0.7150   33.9050 C.3     1  UNL1        0.0887
     12 N         -24.7580   -1.4810   32.6460 N.3     1  UNL1       -0.2187
     13 C         -25.6880    1.6140   26.4610 C.2     1  UNL1        0.0415
     14 C         -26.2500    2.9200   26.3950 C.2     1  UNL1        0.0765
     15 C         -25.6420    4.0930   27.1230 C.2     1  UNL1        0.2664
     16 N         -25.6140    5.2520   26.4490 N.am    1  UNL1       -0.1997
     17 C         -25.0260    6.4790   26.9630 C.3     1  UNL1        0.1388
     18 O         -25.1430    3.9660   28.2430 O.2     1  UNL1       -0.2683
     19 C         -27.4380    3.0910   25.6450 C.2     1  UNL1        0.1067
     20 N         -28.0750    2.0890   25.0030 N.2     1  UNL1       -0.2081
     21 C         -27.5430    0.8490   25.0790 C.2     1  UNL1        0.2533
     22 O         -28.1930   -0.2080   24.4770 O.2     1  UNL1       -0.4558
     23 C         -29.4600    0.0050   23.8660 C.3     1  UNL1        0.2426
     24 C         -30.0650   -1.3770   23.5730 C.3     1  UNL1        0.2292
     25 O         -30.7290   -1.8780   24.7210 O.3     1  UNL1       -0.2162
     26 C         -26.3540    0.5760   25.7770 C.2     1  UNL1        0.1930
     27 F         -25.8600   -0.6810   25.7950 F       1  UNL1       -0.1992
     28 C         -20.9562   -0.8889   29.4663 C.2     1  UNL1        0.0244
     29 C         -25.4784   -0.0682   29.1750 C.2     1  UNL1        0.1955
     30 N         -23.2685    0.4064   28.8882 N.2     1  UNL1       -0.2077
     31 C         -24.5159    1.2898   27.2411 C.2     1  UNL1        0.0703
     32 O         -26.6597    0.0399   29.0135 O.2     1  UNL1       -0.2894
     33 C         -22.2482    0.6780   28.3056 C.2     1  UNL1        0.2442
     34 C         -23.1979    1.7114   26.6875 C.3     1  UNL1        0.3155
     35 O         -22.0794    1.3393   27.3088 O.2     1  UNL1       -0.4313
     36 C         -20.6711    0.0956   28.6216 C.2     1  UNL1        0.1421
     37 C         -22.5449    1.0698   24.4041 C.3     1  UNL1        0.1783
     38 O         -22.9934    2.1455   25.3076 O.3     1  UNL1       -0.3143
     39 N         -19.7185    1.0938   28.4402 N.pl3   1  UNL1       -0.1232
     40 C         -24.4346    0.6170   28.4392 C.2     1  UNL1        0.1213
@<TRIPOS>BOND
     1     1    29    1
     2     2     7    1
     3     2     1    1
     4     3     2    2
     5     4     3    1
     6     4     5    2
     7     5     6    1
     8     6     7    2
     9     8     1    1
    10     8     9    1
    11     8    12    1
    12     9    10    1
    13    10    11    1
    14    12    11    1
    15    13    31    1
    16    14    13    1
    17    14    15    1
    18    15    18    2
    19    16    17    1
    20    16    15    1
    21    19    14    2
    22    20    21    2
    23    20    19    1
    24    21    26    1
    25    22    21    1
    26    23    22    1
    27    24    23    1
    28    24    25    1
    29    26    27    1
    30    26    13    2
    31    31    40    2
    32    32    29    2
    33    33    36    1
    34    33    30    2
    35    34    38    1
    36    34    31    1
    37    34    35    1
    38    35    33    1
    39    36    28    2
    40    37    38    1
    41    39    36    1
    42    40    30    1
    43    40    29    1
