@<TRIPOS>MOLECULE
outputs/IAG933/test6/raw/output_8256_IAG933_linker_design_.xyz
 45 49 0 0 0
SMALL
GASTEIGER

@<TRIPOS>ATOM
      1 C         -24.8550   -1.0120   30.1430 C.3     1  UNL1        0.0619
      2 C         -24.9730   -2.5050   29.7880 C.2     1  UNL1       -0.0170
      3 C         -23.9060   -3.1730   29.1460 C.2     1  UNL1       -0.0039
      4 C         -23.9890   -4.5490   28.8530 C.2     1  UNL1       -0.0003
      5 C         -25.1370   -5.2800   29.2050 C.2     1  UNL1       -0.0000
      6 C         -26.2320   -4.6110   29.7840 C.2     1  UNL1       -0.0003
      7 C         -26.1550   -3.2320   30.0650 C.2     1  UNL1       -0.0039
      8 C         -25.3870   -0.6790   31.5710 C.3     1  UNL1        0.0809
      9 C         -25.1890    0.7730   32.0280 C.3     1  UNL1        0.0195
     10 C         -25.3360    0.6840   33.5440 C.3     1  UNL1        0.0203
     11 C         -24.8290   -0.7150   33.9050 C.3     1  UNL1        0.0887
     12 N         -24.7580   -1.4810   32.6460 N.3     1  UNL1       -0.2188
     13 C         -25.6880    1.6140   26.4610 C.2     1  UNL1        0.0402
     14 C         -26.2500    2.9200   26.3950 C.2     1  UNL1        0.0766
     15 C         -25.6420    4.0930   27.1230 C.2     1  UNL1        0.2664
     16 N         -25.6140    5.2520   26.4490 N.am    1  UNL1       -0.1997
     17 C         -25.0260    6.4790   26.9630 C.3     1  UNL1        0.1388
     18 O         -25.1430    3.9660   28.2430 O.2     1  UNL1       -0.2683
     19 C         -27.4380    3.0910   25.6450 C.2     1  UNL1        0.1067
     20 N         -28.0750    2.0890   25.0030 N.2     1  UNL1       -0.2081
     21 C         -27.5430    0.8490   25.0790 C.2     1  UNL1        0.2533
     22 O         -28.1930   -0.2080   24.4770 O.2     1  UNL1       -0.4558
     23 C         -29.4600    0.0050   23.8660 C.3     1  UNL1        0.2426
     24 C         -30.0650   -1.3770   23.5730 C.3     1  UNL1        0.2292
     25 O         -30.7290   -1.8780   24.7210 O.3     1  UNL1       -0.2162
     26 C         -26.3540    0.5760   25.7770 C.2     1  UNL1        0.1931
     27 F         -25.8600   -0.6810   25.7950 F       1  UNL1       -0.1992
     28 C         -28.8113    0.9412   29.1806 C.3     1  UNL1        0.1928
     29 N         -26.3592    1.1346   29.0859 N.am    1  UNL1       -0.1775
     30 C         -22.7941    0.2912   29.0561 C.2     1  UNL1        0.0279
     31 F         -21.0871    1.4695   27.8218 F       1  UNL1       -0.2033
     32 C         -29.7328    3.3187   31.0786 C.3     1  UNL1        0.0321
     33 C         -30.7941    3.4074   29.9588 C.3     1  UNL1        0.0027
     34 C         -24.7128    1.3162   27.2779 C.2     1  UNL1        0.0303
     35 O         -27.3671   -0.8630   28.6374 O.2     1  UNL1       -0.2704
     36 C         -28.8752    2.3673   28.7264 C.3     1  UNL1        0.0391
     37 C         -24.1953    0.0247   29.2855 C.2     1  UNL1        0.0006
     38 C         -30.2572    2.9477   28.5984 C.3     1  UNL1        0.0031
     39 C         -29.4491    1.8337   31.5090 C.3     1  UNL1        0.1427
     40 C         -27.4575    0.3084   28.9557 C.2     1  UNL1        0.2727
     41 CL        -22.7313    2.1943   25.6166 Cl      1  UNL1       -0.0799
     42 C         -25.0755    0.8037   28.5672 C.2     1  UNL1        0.0708
     43 C         -22.3699    1.0875   27.9735 C.2     1  UNL1        0.1504
     44 C         -23.2749    1.4797   26.9985 C.2     1  UNL1        0.0863
     45 O         -29.1949    0.7243   30.5044 O.3     1  UNL1       -0.3470
@<TRIPOS>BOND
     1     1    37    1
     2     2     7    1
     3     2     1    1
     4     3     2    2
     5     4     3    1
     6     4     5    2
     7     5     6    1
     8     6     7    2
     9     8     1    1
    10     8     9    1
    11     8    12    1
    12     9    10    1
    13    10    11    1
    14    12    11    1
    15    13    34    1
    16    14    13    1
    17    14    15    1
    18    15    18    2
    19    16    17    1
    20    16    15    1
    21    19    14    2
    22    20    21    2
    23    20    19    1
    24    21    26    1
    25    22    21    1
    26    23    22    1
    27    24    23    1
    28    24    25    1
    29    26    27    1
    30    26    13    2
    31    28    40    1
    32    28    45    1
    33    30    37    1
    34    31    43    1
    35    32    39    1
    36    33    32    1
    37    34    42    1
    38    35    40    2
    39    36    28    1
    40    38    36    1
    41    38    33    1
    42    40    29    1
    43    41    44    1
    44    42    29    1
    45    42    37    2
    46    43    30    2
    47    44    34    2
    48    44    43    1
    49    45    39    1
