@<TRIPOS>MOLECULE
outputs/IAG933/test6/raw/output_8259_IAG933_linker_design_.xyz
 41 45 0 0 0
SMALL
GASTEIGER

@<TRIPOS>ATOM
      1 C         -24.8550   -1.0120   30.1430 C.3     1  UNL1        0.0981
      2 C         -24.9730   -2.5050   29.7880 C.2     1  UNL1       -0.0064
      3 C         -23.9060   -3.1730   29.1460 C.2     1  UNL1       -0.0029
      4 C         -23.9890   -4.5490   28.8530 C.2     1  UNL1       -0.0003
      5 C         -25.1370   -5.2800   29.2050 C.2     1  UNL1       -0.0000
      6 C         -26.2320   -4.6110   29.7840 C.2     1  UNL1       -0.0003
      7 C         -26.1550   -3.2320   30.0650 C.2     1  UNL1       -0.0029
      8 C         -25.3870   -0.6790   31.5710 C.3     1  UNL1        0.0916
      9 C         -25.1890    0.7730   32.0280 C.3     1  UNL1        0.0206
     10 C         -25.3360    0.6840   33.5440 C.3     1  UNL1        0.0203
     11 C         -24.8290   -0.7150   33.9050 C.3     1  UNL1        0.0888
     12 N         -24.7580   -1.4810   32.6460 N.3     1  UNL1       -0.2178
     13 C         -25.6880    1.6140   26.4610 C.3     1  UNL1        0.0911
     14 C         -26.2500    2.9200   26.3950 C.2     1  UNL1        0.0587
     15 C         -25.6420    4.0930   27.1230 C.2     1  UNL1        0.2627
     16 N         -25.6140    5.2520   26.4490 N.am    1  UNL1       -0.2000
     17 C         -25.0260    6.4790   26.9630 C.3     1  UNL1        0.1388
     18 O         -25.1430    3.9660   28.2430 O.2     1  UNL1       -0.2686
     19 C         -27.4380    3.0910   25.6450 C.2     1  UNL1        0.1025
     20 N         -28.0750    2.0890   25.0030 N.2     1  UNL1       -0.2118
     21 C         -27.5430    0.8490   25.0790 C.2     1  UNL1        0.2344
     22 O         -28.1930   -0.2080   24.4770 O.2     1  UNL1       -0.4585
     23 C         -29.4600    0.0050   23.8660 C.3     1  UNL1        0.2423
     24 C         -30.0650   -1.3770   23.5730 C.3     1  UNL1        0.2292
     25 O         -30.7290   -1.8780   24.7210 O.3     1  UNL1       -0.2162
     26 C         -26.3540    0.5760   25.7770 C.3     1  UNL1        0.2438
     27 F         -25.8600   -0.6810   25.7950 F       1  UNL1       -0.2265
     28 C         -28.0617    2.6978   30.1054 C.3     1  UNL1        0.0083
     29 O         -21.4404    1.6963   26.3189 O.3     1  UNL1       -0.3015
     30 C         -23.2547    0.3682   29.3059 C.3     1  UNL1        0.1713
     31 O         -27.4885   -0.4723   28.9808 O.2     1  UNL1       -0.2943
     32 C         -21.2918    1.4277   27.7475 C.3     1  UNL1        0.2436
     33 C         -24.8337    1.2077   27.4950 C.2     1  UNL1       -0.0013
     34 C         -22.7485    1.6261   26.0393 C.3     1  UNL1        0.3162
     35 N         -24.7009    0.1360   29.2528 N.3     1  UNL1       -0.2437
     36 N         -22.6567    0.9880   28.1737 N.pl3   1  UNL1       -0.2679
     37 F         -23.2065    1.8624   24.8264 F       1  UNL1       -0.1973
     38 C         -25.4881    0.7185   28.6403 C.3     1  UNL1        0.1374
     39 C         -23.5533    1.2730   27.1435 C.2     1  UNL1        0.0836
     40 C         -27.8487    1.8758   28.8506 C.3     1  UNL1        0.0663
     41 C         -27.0056    0.6412   28.9121 C.2     1  UNL1        0.1689
@<TRIPOS>BOND
     1     1     2    1
     2     2     7    1
     3     3     2    2
     4     4     3    1
     5     4     5    2
     6     5     6    1
     7     6     7    2
     8     8     1    1
     9     8     9    1
    10     8    12    1
    11     9    10    1
    12    10    11    1
    13    12    11    1
    14    13    33    1
    15    14    13    1
    16    14    15    1
    17    15    18    2
    18    16    17    1
    19    16    15    1
    20    19    14    2
    21    20    21    2
    22    20    19    1
    23    21    26    1
    24    22    21    1
    25    23    22    1
    26    24    23    1
    27    24    25    1
    28    26    27    1
    29    26    13    1
    30    29    32    1
    31    32    36    1
    32    33    38    1
    33    34    37    1
    34    34    29    1
    35    34    39    1
    36    35    30    1
    37    35     1    1
    38    36    30    1
    39    38    41    1
    40    38    35    1
    41    39    33    2
    42    39    36    1
    43    40    41    1
    44    40    28    1
    45    41    31    2
