@<TRIPOS>MOLECULE
outputs/IAG933/test6/raw/output_8260_IAG933_linker_design_.xyz
 42 46 0 0 0
SMALL
GASTEIGER

@<TRIPOS>ATOM
      1 C         -24.8550   -1.0120   30.1430 C.3     1  UNL1        0.1156
      2 C         -24.9730   -2.5050   29.7880 C.2     1  UNL1       -0.0029
      3 C         -23.9060   -3.1730   29.1460 C.2     1  UNL1       -0.0026
      4 C         -23.9890   -4.5490   28.8530 C.2     1  UNL1       -0.0003
      5 C         -25.1370   -5.2800   29.2050 C.2     1  UNL1       -0.0000
      6 C         -26.2320   -4.6110   29.7840 C.2     1  UNL1       -0.0003
      7 C         -26.1550   -3.2320   30.0650 C.2     1  UNL1       -0.0026
      8 C         -25.3870   -0.6790   31.5710 C.3     1  UNL1        0.0952
      9 C         -25.1890    0.7730   32.0280 C.3     1  UNL1        0.0209
     10 C         -25.3360    0.6840   33.5440 C.3     1  UNL1        0.0203
     11 C         -24.8290   -0.7150   33.9050 C.3     1  UNL1        0.0888
     12 N         -24.7580   -1.4810   32.6460 N.3     1  UNL1       -0.2174
     13 C         -25.6880    1.6140   26.4610 C.3     1  UNL1        0.0921
     14 C         -26.2500    2.9200   26.3950 C.2     1  UNL1        0.0589
     15 C         -25.6420    4.0930   27.1230 C.2     1  UNL1        0.2628
     16 N         -25.6140    5.2520   26.4490 N.am    1  UNL1       -0.2000
     17 C         -25.0260    6.4790   26.9630 C.3     1  UNL1        0.1388
     18 O         -25.1430    3.9660   28.2430 O.2     1  UNL1       -0.2686
     19 C         -27.4380    3.0910   25.6450 C.2     1  UNL1        0.1025
     20 N         -28.0750    2.0890   25.0030 N.2     1  UNL1       -0.2118
     21 C         -27.5430    0.8490   25.0790 C.2     1  UNL1        0.2344
     22 O         -28.1930   -0.2080   24.4770 O.2     1  UNL1       -0.4585
     23 C         -29.4600    0.0050   23.8660 C.3     1  UNL1        0.2423
     24 C         -30.0650   -1.3770   23.5730 C.3     1  UNL1        0.2292
     25 O         -30.7290   -1.8780   24.7210 O.3     1  UNL1       -0.2162
     26 C         -26.3540    0.5760   25.7770 C.3     1  UNL1        0.2440
     27 F         -25.8600   -0.6810   25.7950 F       1  UNL1       -0.2265
     28 C         -23.6013    0.8578   27.6852 C.2     1  UNL1       -0.0058
     29 C         -28.7350    3.1988   29.1489 C.3     1  UNL1        0.0233
     30 C         -23.3396    1.8192   25.6016 C.2     1  UNL1       -0.0041
     31 C         -26.6171    0.0876   28.8994 C.2     1  UNL1        0.3076
     32 N         -27.2453    1.2768   29.2798 N.am    1  UNL1       -0.2640
     33 C         -22.0107    2.0942   25.9297 C.2     1  UNL1       -0.0003
     34 C         -28.3966    1.8504   28.5250 C.3     1  UNL1        0.0950
     35 C         -28.0717    3.2088   30.4928 C.3     1  UNL1        0.0233
     36 C         -24.2314    1.4243   26.5821 C.2     1  UNL1       -0.0174
     37 C         -24.1710   -0.4228   28.1429 C.3     1  UNL1        0.1217
     38 C         -27.0467    2.1422   30.4348 C.3     1  UNL1        0.0950
     39 C         -22.4132    1.3897   28.1909 C.2     1  UNL1       -0.0029
     40 O         -27.3546   -0.7085   28.3919 O.2     1  UNL1       -0.2523
     41 N         -25.2952   -0.2378   29.0443 N.am    1  UNL1       -0.2564
     42 C         -21.5683    1.9748   27.2461 C.2     1  UNL1       -0.0003
@<TRIPOS>BOND
     1     1    41    1
     2     2     7    1
     3     2     1    1
     4     3     2    2
     5     4     3    1
     6     4     5    2
     7     5     6    1
     8     6     7    2
     9     8     1    1
    10     8     9    1
    11     8    12    1
    12     9    10    1
    13    10    11    1
    14    12    11    1
    15    13    36    1
    16    14    13    1
    17    14    15    1
    18    15    18    2
    19    16    17    1
    20    16    15    1
    21    19    14    2
    22    20    21    2
    23    20    19    1
    24    21    26    1
    25    22    21    1
    26    23    22    1
    27    24    23    1
    28    24    25    1
    29    26    27    1
    30    26    13    1
    31    28    37    1
    32    28    39    1
    33    29    35    1
    34    30    33    2
    35    30    36    1
    36    31    41   am
    37    31    32   am
    38    32    38    1
    39    33    42    1
    40    34    29    1
    41    34    32    1
    42    36    28    2
    43    37    41    1
    44    38    35    1
    45    40    31    2
    46    42    39    2
