@<TRIPOS>MOLECULE
outputs/IAG933/test6/raw/output_8262_IAG933_linker_design_.xyz
 48 52 0 0 0
SMALL
GASTEIGER

@<TRIPOS>ATOM
      1 C         -24.8550   -1.0120   30.1430 C.3     1  UNL1        0.1195
      2 C         -24.9730   -2.5050   29.7880 C.2     1  UNL1       -0.0024
      3 C         -23.9060   -3.1730   29.1460 C.2     1  UNL1       -0.0026
      4 C         -23.9890   -4.5490   28.8530 C.2     1  UNL1       -0.0003
      5 C         -25.1370   -5.2800   29.2050 C.2     1  UNL1       -0.0000
      6 C         -26.2320   -4.6110   29.7840 C.2     1  UNL1       -0.0003
      7 C         -26.1550   -3.2320   30.0650 C.2     1  UNL1       -0.0026
      8 C         -25.3870   -0.6790   31.5710 C.3     1  UNL1        0.0957
      9 C         -25.1890    0.7730   32.0280 C.3     1  UNL1        0.0209
     10 C         -25.3360    0.6840   33.5440 C.3     1  UNL1        0.0203
     11 C         -24.8290   -0.7150   33.9050 C.3     1  UNL1        0.0888
     12 N         -24.7580   -1.4810   32.6460 N.3     1  UNL1       -0.2174
     13 C         -25.6880    1.6140   26.4610 C.2     1  UNL1        0.0180
     14 C         -26.2500    2.9200   26.3950 C.2     1  UNL1        0.0726
     15 C         -25.6420    4.0930   27.1230 C.2     1  UNL1        0.2661
     16 N         -25.6140    5.2520   26.4490 N.am    1  UNL1       -0.1997
     17 C         -25.0260    6.4790   26.9630 C.3     1  UNL1        0.1388
     18 O         -25.1430    3.9660   28.2430 O.2     1  UNL1       -0.2683
     19 C         -27.4380    3.0910   25.6450 C.2     1  UNL1        0.1064
     20 N         -28.0750    2.0890   25.0030 N.2     1  UNL1       -0.2081
     21 C         -27.5430    0.8490   25.0790 C.2     1  UNL1        0.2530
     22 O         -28.1930   -0.2080   24.4770 O.2     1  UNL1       -0.4558
     23 C         -29.4600    0.0050   23.8660 C.3     1  UNL1        0.2426
     24 C         -30.0650   -1.3770   23.5730 C.3     1  UNL1        0.2292
     25 O         -30.7290   -1.8780   24.7210 O.3     1  UNL1       -0.2162
     26 C         -26.3540    0.5760   25.7770 C.2     1  UNL1        0.1892
     27 F         -25.8600   -0.6810   25.7950 F       1  UNL1       -0.1996
     28 C         -29.2454    5.1499   30.2792 C.3     1  UNL1        0.1595
     29 C         -28.6175    4.2811   29.6339 C.3     1  UNL1        0.1053
     30 C         -26.0832    4.6672   32.9924 C.3     1  UNL1        0.0360
     31 O         -22.3830   -0.1191   29.7198 O.2     1  UNL1       -0.2896
     32 C         -27.8962    3.6775   31.5479 C.3     1  UNL1        0.0756
     33 C         -24.5166    1.3491   26.9811 C.3     1  UNL1        0.0573
     34 O         -29.0000    6.0554   31.1926 O.3     1  UNL1       -0.3522
     35 C         -27.0754    6.9135   33.4780 C.3     1  UNL1        0.1715
     36 C         -21.5669    1.9856   26.7989 C.2     1  UNL1        0.0031
     37 C         -24.1563    0.7847   28.2220 C.3     1  UNL1        0.1471
     38 C         -27.1247    1.4635   29.3001 C.1     1  UNL1       -0.0534
     39 C         -28.2183    2.1801   29.5422 C.3     1  UNL1        0.1515
     40 C         -22.6331    0.6184   28.7273 C.2     1  UNL1        0.1919
     41 C         -27.5287    4.5895   32.6527 C.3     1  UNL1        0.0482
     42 C         -21.4736    1.2875   27.9684 C.2     1  UNL1        0.0392
     43 O         -25.8144    7.0491   32.9319 O.3     1  UNL1       -0.3512
     44 C         -26.0859    0.8327   29.1669 C.1     1  UNL1        0.0022
     45 C         -25.3528    5.8713   32.3373 C.3     1  UNL1        0.1424
     46 C         -28.0163    6.0800   32.4801 C.3     1  UNL1        0.1461
     47 N         -25.0627   -0.0176   29.1335 N.pl3   1  UNL1       -0.2589
     48 N         -28.1651    3.2786   30.2589 N.3     1  UNL1       -0.2594
@<TRIPOS>BOND
     1     1    47    1
     2     2     7    1
     3     2     1    1
     4     3     2    2
     5     4     3    1
     6     4     5    2
     7     5     6    1
     8     6     7    2
     9     8     1    1
    10     8     9    1
    11     8    12    1
    12     9    10    1
    13    10    11    1
    14    12    11    1
    15    13    33    1
    16    14    13    1
    17    14    15    1
    18    15    18    2
    19    16    17    1
    20    16    15    1
    21    19    14    2
    22    20    21    2
    23    20    19    1
    24    21    26    1
    25    22    21    1
    26    23    22    1
    27    24    23    1
    28    24    25    1
    29    26    27    1
    30    26    13    2
    31    28    34    1
    32    29    48    1
    33    29    28    1
    34    34    46    1
    35    36    42    2
    36    37    33    1
    37    37    40    1
    38    37    47    1
    39    38    39    1
    40    39    48    1
    41    40    31    2
    42    41    32    1
    43    41    30    1
    44    42    40    1
    45    43    35    1
    46    44    38    3
    47    45    43    1
    48    45    30    1
    49    46    41    1
    50    46    35    1
    51    47    44    1
    52    48    32    1
