@<TRIPOS>MOLECULE
outputs/IAG933/test6/raw/output_8264_IAG933_linker_design_.xyz
 46 50 0 0 0
SMALL
GASTEIGER

@<TRIPOS>ATOM
      1 C         -24.8550   -1.0120   30.1430 C.3     1  UNL1        0.0514
      2 C         -24.9730   -2.5050   29.7880 C.2     1  UNL1       -0.0203
      3 C         -23.9060   -3.1730   29.1460 C.2     1  UNL1       -0.0042
      4 C         -23.9890   -4.5490   28.8530 C.2     1  UNL1       -0.0003
      5 C         -25.1370   -5.2800   29.2050 C.2     1  UNL1       -0.0000
      6 C         -26.2320   -4.6110   29.7840 C.2     1  UNL1       -0.0003
      7 C         -26.1550   -3.2320   30.0650 C.2     1  UNL1       -0.0042
      8 C         -25.3870   -0.6790   31.5710 C.3     1  UNL1        0.0776
      9 C         -25.1890    0.7730   32.0280 C.3     1  UNL1        0.0192
     10 C         -25.3360    0.6840   33.5440 C.3     1  UNL1        0.0202
     11 C         -24.8290   -0.7150   33.9050 C.3     1  UNL1        0.0887
     12 N         -24.7580   -1.4810   32.6460 N.3     1  UNL1       -0.2191
     13 C         -25.6880    1.6140   26.4610 C.2     1  UNL1        0.0263
     14 C         -26.2500    2.9200   26.3950 C.2     1  UNL1        0.0733
     15 C         -25.6420    4.0930   27.1230 C.2     1  UNL1        0.2661
     16 N         -25.6140    5.2520   26.4490 N.am    1  UNL1       -0.1997
     17 C         -25.0260    6.4790   26.9630 C.3     1  UNL1        0.1388
     18 O         -25.1430    3.9660   28.2430 O.2     1  UNL1       -0.2683
     19 C         -27.4380    3.0910   25.6450 C.2     1  UNL1        0.1064
     20 N         -28.0750    2.0890   25.0030 N.2     1  UNL1       -0.2081
     21 C         -27.5430    0.8490   25.0790 C.2     1  UNL1        0.2530
     22 O         -28.1930   -0.2080   24.4770 O.2     1  UNL1       -0.4558
     23 C         -29.4600    0.0050   23.8660 C.3     1  UNL1        0.2426
     24 C         -30.0650   -1.3770   23.5730 C.3     1  UNL1        0.2292
     25 O         -30.7290   -1.8780   24.7210 O.3     1  UNL1       -0.2162
     26 C         -26.3540    0.5760   25.7770 C.2     1  UNL1        0.1898
     27 F         -25.8600   -0.6810   25.7950 F       1  UNL1       -0.1996
     28 C         -27.0098    0.4051   29.2024 C.2     1  UNL1        0.2461
     29 C         -24.3425    1.2729   27.0392 C.3     1  UNL1        0.1003
     30 C         -30.3129    2.1685   29.3306 C.3     1  UNL1        0.1250
     31 N         -30.2273    3.6336   31.3209 N.am    1  UNL1       -0.1260
     32 O         -28.2493    2.7866   32.0744 O.2     1  UNL1       -0.2700
     33 C         -22.2381    0.4593   28.9229 C.2     1  UNL1        0.0193
     34 C         -32.5093    3.4419   30.1723 C.3     1  UNL1        0.1131
     35 O         -27.8258   -0.4402   28.9191 O.2     1  UNL1       -0.2730
     36 C         -21.8251    1.3609   26.6709 C.2     1  UNL1        0.0050
     37 C         -28.7988    2.3421   29.7902 C.3     1  UNL1        0.1916
     38 F         -23.0665    1.7564   24.9539 F       1  UNL1       -0.2085
     39 C         -23.1021    1.4816   26.2442 C.2     1  UNL1        0.1219
     40 C         -21.3890    0.8856   27.9239 C.3     1  UNL1        0.0624
     41 C         -29.0134    2.9941   31.2051 C.2     1  UNL1        0.2777
     42 N         -31.0573    3.1567   30.2296 N.3     1  UNL1       -0.1806
     43 C         -24.6374    0.6800   28.2681 C.2     1  UNL1        0.0087
     44 C         -23.5574    0.5542   28.6321 C.1     1  UNL1       -0.1129
     45 C         -25.5099   -0.0890   29.0600 C.3     1  UNL1        0.1095
     46 N         -27.4953    1.7016   29.5369 N.am    1  UNL1       -0.1959
@<TRIPOS>BOND
     1     1    45    1
     2     2     7    1
     3     2     1    1
     4     3     2    2
     5     4     3    1
     6     4     5    2
     7     5     6    1
     8     6     7    2
     9     8     1    1
    10     8     9    1
    11     8    12    1
    12     9    10    1
    13    10    11    1
    14    12    11    1
    15    14    13    1
    16    14    15    1
    17    15    18    2
    18    16    17    1
    19    16    15    1
    20    19    14    2
    21    20    21    2
    22    20    19    1
    23    21    26    1
    24    22    21    1
    25    23    22    1
    26    24    23    1
    27    24    25    1
    28    26    27    1
    29    26    13    2
    30    28    46    1
    31    29    13    1
    32    29    43    1
    33    30    37    1
    34    30    42    1
    35    34    42    1
    36    35    28    2
    37    36    40    1
    38    37    46    1
    39    37    41    1
    40    38    39    1
    41    39    36    2
    42    39    29    1
    43    40    33    1
    44    41    31    1
    45    41    32    2
    46    42    31    1
    47    43    44    2
    48    43    45    1
    49    44    33    2
    50    45    28    1
