@<TRIPOS>MOLECULE
outputs/IAG933/test6/raw/output_8266_IAG933_linker_design_.xyz
 41 44 0 0 0
SMALL
GASTEIGER

@<TRIPOS>ATOM
      1 C         -24.8550   -1.0120   30.1430 C.3     1  UNL1        0.1149
      2 C         -24.9730   -2.5050   29.7880 C.2     1  UNL1       -0.0125
      3 C         -23.9060   -3.1730   29.1460 C.2     1  UNL1       -0.0038
      4 C         -23.9890   -4.5490   28.8530 C.2     1  UNL1       -0.0003
      5 C         -25.1370   -5.2800   29.2050 C.2     1  UNL1       -0.0000
      6 C         -26.2320   -4.6110   29.7840 C.2     1  UNL1       -0.0003
      7 C         -26.1550   -3.2320   30.0650 C.2     1  UNL1       -0.0038
      8 C         -25.3870   -0.6790   31.5710 C.3     1  UNL1        0.0855
      9 C         -25.1890    0.7730   32.0280 C.3     1  UNL1        0.0197
     10 C         -25.3360    0.6840   33.5440 C.3     1  UNL1        0.0203
     11 C         -24.8290   -0.7150   33.9050 C.3     1  UNL1        0.0887
     12 N         -24.7580   -1.4810   32.6460 N.3     1  UNL1       -0.2186
     13 C         -25.6880    1.6140   26.4610 C.2     1  UNL1        0.0934
     14 C         -26.2500    2.9200   26.3950 C.2     1  UNL1        0.0903
     15 C         -25.6420    4.0930   27.1230 C.2     1  UNL1        0.2676
     16 N         -25.6140    5.2520   26.4490 N.am    1  UNL1       -0.1997
     17 C         -25.0260    6.4790   26.9630 C.3     1  UNL1        0.1388
     18 O         -25.1430    3.9660   28.2430 O.2     1  UNL1       -0.2683
     19 C         -27.4380    3.0910   25.6450 C.2     1  UNL1        0.1080
     20 N         -28.0750    2.0890   25.0030 N.2     1  UNL1       -0.2080
     21 C         -27.5430    0.8490   25.0790 C.2     1  UNL1        0.2546
     22 O         -28.1930   -0.2080   24.4770 O.2     1  UNL1       -0.4558
     23 C         -29.4600    0.0050   23.8660 C.3     1  UNL1        0.2426
     24 C         -30.0650   -1.3770   23.5730 C.3     1  UNL1        0.2292
     25 O         -30.7290   -1.8780   24.7210 O.3     1  UNL1       -0.2162
     26 C         -26.3540    0.5760   25.7770 C.2     1  UNL1        0.2067
     27 F         -25.8600   -0.6810   25.7950 F       1  UNL1       -0.1979
     28 O         -23.3645    2.8613   25.5424 O.2     1  UNL1       -0.2715
     29 C         -22.1218    1.4373   26.8342 C.3     1  UNL1        0.2540
     30 O         -22.5869   -0.3969   30.3317 O.2     1  UNL1       -0.2744
     31 N         -20.8779   -0.4529   28.1393 N.3     1  UNL1       -0.2131
     32 N         -24.1447    0.7923   28.9706 N.am    1  UNL1       -0.2329
     33 F         -20.9883    1.4667   25.9668 F       1  UNL1       -0.2258
     34 C         -24.3698    0.4866   27.6620 C.3     1  UNL1        0.2113
     35 C         -23.5893   -0.2903   29.7259 C.2     1  UNL1        0.2337
     36 C         -21.6118    0.7709   28.0610 C.3     1  UNL1        0.1335
     37 N         -24.4785    1.3539   26.8300 N.am    1  UNL1       -0.2349
     38 C         -25.4465    1.0247   28.8593 C.3     1  UNL1        0.2694
     39 C         -23.4565    1.9471   26.3998 C.2     1  UNL1        0.2649
     40 C         -20.2684    0.3041   28.6532 C.3     1  UNL1        0.1076
     41 O         -26.4903    0.2860   29.2072 O.3     1  UNL1       -0.1968
@<TRIPOS>BOND
     1     1    35    1
     2     2     7    1
     3     2     1    1
     4     3     2    2
     5     4     3    1
     6     4     5    2
     7     5     6    1
     8     6     7    2
     9     8     1    1
    10     8     9    1
    11     8    12    1
    12     9    10    1
    13    10    11    1
    14    12    11    1
    15    13    37    1
    16    14    13    1
    17    14    15    1
    18    15    18    2
    19    16    17    1
    20    16    15    1
    21    19    14    2
    22    20    21    2
    23    20    19    1
    24    21    26    1
    25    22    21    1
    26    23    22    1
    27    24    23    1
    28    24    25    1
    29    26    27    1
    30    26    13    2
    31    28    39    2
    32    29    33    1
    33    29    36    1
    34    31    40    1
    35    32    35   am
    36    34    37    1
    37    34    38    1
    38    34    32    1
    39    35    30    2
    40    36    31    1
    41    38    32    1
    42    38    41    1
    43    39    37   am
    44    39    29    1
