@<TRIPOS>MOLECULE
outputs/IAG933/test6/raw/output_8269_IAG933_linker_design_.xyz
 48 52 0 0 0
SMALL
GASTEIGER

@<TRIPOS>ATOM
      1 C         -24.8550   -1.0120   30.1430 C.3     1  UNL1        0.0412
      2 C         -24.9730   -2.5050   29.7880 C.2     1  UNL1       -0.0211
      3 C         -23.9060   -3.1730   29.1460 C.2     1  UNL1       -0.0042
      4 C         -23.9890   -4.5490   28.8530 C.2     1  UNL1       -0.0003
      5 C         -25.1370   -5.2800   29.2050 C.2     1  UNL1       -0.0000
      6 C         -26.2320   -4.6110   29.7840 C.2     1  UNL1       -0.0003
      7 C         -26.1550   -3.2320   30.0650 C.2     1  UNL1       -0.0042
      8 C         -25.3870   -0.6790   31.5710 C.3     1  UNL1        0.0769
      9 C         -25.1890    0.7730   32.0280 C.3     1  UNL1        0.0192
     10 C         -25.3360    0.6840   33.5440 C.3     1  UNL1        0.0202
     11 C         -24.8290   -0.7150   33.9050 C.3     1  UNL1        0.0887
     12 N         -24.7580   -1.4810   32.6460 N.3     1  UNL1       -0.2191
     13 C         -25.6880    1.6140   26.4610 C.2     1  UNL1        0.1763
     14 C         -26.2500    2.9200   26.3950 C.2     1  UNL1        0.1105
     15 C         -25.6420    4.0930   27.1230 C.2     1  UNL1        0.2694
     16 N         -25.6140    5.2520   26.4490 N.am    1  UNL1       -0.1996
     17 C         -25.0260    6.4790   26.9630 C.3     1  UNL1        0.1388
     18 O         -25.1430    3.9660   28.2430 O.2     1  UNL1       -0.2682
     19 C         -27.4380    3.0910   25.6450 C.2     1  UNL1        0.1098
     20 N         -28.0750    2.0890   25.0030 N.2     1  UNL1       -0.2079
     21 C         -27.5430    0.8490   25.0790 C.2     1  UNL1        0.2564
     22 O         -28.1930   -0.2080   24.4770 O.2     1  UNL1       -0.4558
     23 C         -29.4600    0.0050   23.8660 C.3     1  UNL1        0.2426
     24 C         -30.0650   -1.3770   23.5730 C.3     1  UNL1        0.2292
     25 O         -30.7290   -1.8780   24.7210 O.3     1  UNL1       -0.2162
     26 C         -26.3540    0.5760   25.7770 C.2     1  UNL1        0.2267
     27 F         -25.8600   -0.6810   25.7950 F       1  UNL1       -0.1960
     28 C         -30.0300   -1.0766   31.3062 C.3     1  UNL1        0.2263
     29 CL        -22.5772    2.2399   25.3394 Cl      1  UNL1       -0.1111
     30 C         -22.3214    1.4988   26.9680 C.3     1  UNL1        0.1223
     31 N         -30.0956   -1.1806   29.7875 N.am    1  UNL1       -0.2314
     32 C         -28.1200    0.7506   30.6507 C.3     1  UNL1        0.0573
     33 C         -31.3868   -1.1739   29.1606 C.2     1  UNL1        0.2615
     34 C         -26.4965    0.3074   28.9331 C.3     1  UNL1        0.0264
     35 C         -23.5997    0.4749   28.8565 C.3     1  UNL1        0.1934
     36 C         -33.2468   -0.3551   27.5650 C.3     1  UNL1        0.0456
     37 O         -32.3408   -1.8113   29.6697 O.2     1  UNL1       -0.2717
     38 C         -27.8327   -0.0148   29.4673 C.2     1  UNL1       -0.0266
     39 C         -28.8982   -0.8627   28.9744 C.2     1  UNL1        0.0613
     40 C         -21.0349    1.2535   27.5649 C.3     1  UNL1        0.0214
     41 O         -24.7227    1.4331   27.1210 O.2     1  UNL1       -0.4726
     42 O         -28.7620   -1.1265   31.7661 O.3     1  UNL1       -0.3332
     43 C         -25.0335   -0.0465   28.9648 C.3     1  UNL1        0.0436
     44 C         -31.7473   -0.3659   27.9202 C.3     1  UNL1        0.2280
     45 O         -22.8529    0.4717   29.9868 O.3     1  UNL1       -0.2192
     46 C         -28.9677   -0.0193   31.5391 C.3     1  UNL1        0.1681
     47 C         -23.6024    1.2834   27.7792 C.3     1  UNL1        0.2109
     48 O         -30.6919   -0.7083   27.0059 O.3     1  UNL1       -0.2132
@<TRIPOS>BOND
     1     1    43    1
     2     2     7    1
     3     2     1    1
     4     3     2    2
     5     4     3    1
     6     4     5    2
     7     5     6    1
     8     6     7    2
     9     8     1    1
    10     8     9    1
    11     8    12    1
    12     9    10    1
    13    10    11    1
    14    12    11    1
    15    13    41    1
    16    14    13    1
    17    14    15    1
    18    15    18    2
    19    16    17    1
    20    16    15    1
    21    19    14    2
    22    20    21    2
    23    20    19    1
    24    21    26    1
    25    22    21    1
    26    23    22    1
    27    24    23    1
    28    24    25    1
    29    26    27    1
    30    26    13    2
    31    28    46    1
    32    28    42    1
    33    29    30    1
    34    30    40    1
    35    30    47    1
    36    31    28    1
    37    33    37    2
    38    33    31   am
    39    34    38    1
    40    35    43    1
    41    35    45    1
    42    38    32    1
    43    39    38    2
    44    39    31    1
    45    43    34    1
    46    44    36    1
    47    44    33    1
    48    46    32    1
    49    46    42    1
    50    47    41    1
    51    47    35    1
    52    48    44    1
