@<TRIPOS>MOLECULE
outputs/IAG933/test6/raw/output_827_IAG933_linker_design_.xyz
 48 54 0 0 0
SMALL
GASTEIGER

@<TRIPOS>ATOM
      1 C         -24.8550   -1.0120   30.1430 C.3     1  UNL1        0.1144
      2 C         -24.9730   -2.5050   29.7880 C.2     1  UNL1       -0.0124
      3 C         -23.9060   -3.1730   29.1460 C.2     1  UNL1       -0.0038
      4 C         -23.9890   -4.5490   28.8530 C.2     1  UNL1       -0.0003
      5 C         -25.1370   -5.2800   29.2050 C.2     1  UNL1       -0.0000
      6 C         -26.2320   -4.6110   29.7840 C.2     1  UNL1       -0.0003
      7 C         -26.1550   -3.2320   30.0650 C.2     1  UNL1       -0.0038
      8 C         -25.3870   -0.6790   31.5710 C.3     1  UNL1        0.0856
      9 C         -25.1890    0.7730   32.0280 C.3     1  UNL1        0.0197
     10 C         -25.3360    0.6840   33.5440 C.3     1  UNL1        0.0203
     11 C         -24.8290   -0.7150   33.9050 C.3     1  UNL1        0.0887
     12 N         -24.7580   -1.4810   32.6460 N.3     1  UNL1       -0.2186
     13 C         -25.6880    1.6140   26.4610 C.2     1  UNL1        0.0394
     14 C         -26.2500    2.9200   26.3950 C.2     1  UNL1        0.0746
     15 C         -25.6420    4.0930   27.1230 C.2     1  UNL1        0.2662
     16 N         -25.6140    5.2520   26.4490 N.am    1  UNL1       -0.1997
     17 C         -25.0260    6.4790   26.9630 C.3     1  UNL1        0.1388
     18 O         -25.1430    3.9660   28.2430 O.2     1  UNL1       -0.2683
     19 C         -27.4380    3.0910   25.6450 C.2     1  UNL1        0.1065
     20 N         -28.0750    2.0890   25.0030 N.2     1  UNL1       -0.2081
     21 C         -27.5430    0.8490   25.0790 C.2     1  UNL1        0.2531
     22 O         -28.1930   -0.2080   24.4770 O.2     1  UNL1       -0.4546
     23 C         -29.4600    0.0050   23.8660 C.3     1  UNL1        0.2543
     24 C         -30.0650   -1.3770   23.5730 C.3     1  UNL1        0.2537
     25 O         -30.7290   -1.8780   24.7210 O.2     1  UNL1       -0.4609
     26 C         -26.3540    0.5760   25.7770 C.2     1  UNL1        0.1911
     27 F         -25.8600   -0.6810   25.7950 F       1  UNL1       -0.1995
     28 C         -28.7712   -1.8913   30.8049 C.2     1  UNL1        0.0865
     29 C         -29.8479   -0.9936   28.7151 C.2     1  UNL1        0.1077
     30 O         -30.3083   -3.1915   29.4656 O.2     1  UNL1       -0.4639
     31 C         -22.8206    0.3434   29.4576 C.2     1  UNL1       -0.0070
     32 C         -30.4277   -2.2410   28.4720 C.3     1  UNL1        0.2055
     33 C         -28.7295   -0.9221   29.7420 C.2     1  UNL1        0.1546
     34 C         -21.8980    1.8911   26.2711 C.3     1  UNL1        0.0070
     35 C         -29.4513   -3.1379   30.5301 C.2     1  UNL1        0.2007
     36 C         -23.4113    2.1385   26.2328 C.3     1  UNL1        0.0311
     37 CL        -29.2200   -4.4602   31.5881 Cl      1  UNL1       -0.0428
     38 C         -31.0690   -2.5466   27.2419 C.3     1  UNL1        0.1305
     39 C         -21.5599    1.1292   27.5725 C.3     1  UNL1        0.0242
     40 C         -22.9908    0.7108   28.2017 C.2     1  UNL1       -0.0205
     41 N         -25.5323    0.7379   28.3430 N.2     1  UNL1       -0.2368
     42 C         -24.2361    1.2257   27.3043 C.3     1  UNL1        0.1234
     43 C         -30.7401   -1.6003   26.0686 C.2     1  UNL1        0.1960
     44 C         -25.9723   -0.2533   29.1061 C.2     1  UNL1        0.2067
     45 N         -30.7250   -0.4033   26.6417 N.am    1  UNL1       -0.1449
     46 C         -30.2730    0.0674   27.8834 C.2     1  UNL1        0.2736
     47 O         -30.2066    1.2520   28.1775 O.2     1  UNL1       -0.2680
     48 O         -27.5337   -0.1820   29.5619 O.2     1  UNL1       -0.4398
@<TRIPOS>BOND
     1     1    44    1
     2     2     7    1
     3     2     1    1
     4     3     2    2
     5     4     3    1
     6     4     5    2
     7     5     6    1
     8     6     7    2
     9     8     1    1
    10     8     9    1
    11     8    12    1
    12     9    10    1
    13    10    11    1
    14    12    11    1
    15    13    42    1
    16    14    13    1
    17    14    15    1
    18    15    18    2
    19    16    17    1
    20    16    15    1
    21    19    14    2
    22    20    21    2
    23    20    19    1
    24    21    26    1
    25    22    21    1
    26    23    22    1
    27    24    23    1
    28    24    25    1
    29    25    43    1
    30    26    27    1
    31    26    13    2
    32    29    33    2
    33    30    35    1
    34    32    38    1
    35    32    29    1
    36    32    30    1
    37    33    28    1
    38    34    39    1
    39    35    28    2
    40    35    37    1
    41    36    34    1
    42    39    40    1
    43    40    31    2
    44    41    44    2
    45    42    36    1
    46    42    40    1
    47    42    41    1
    48    43    45    2
    49    43    38    1
    50    44    48    1
    51    45    46    1
    52    46    47    2
    53    46    29    1
    54    48    33    1
