@<TRIPOS>MOLECULE
outputs/IAG933/test6/raw/output_8275_IAG933_linker_design_.xyz
 40 43 0 0 0
SMALL
GASTEIGER

@<TRIPOS>ATOM
      1 C         -24.8550   -1.0120   30.1430 C.3     1  UNL1        0.1173
      2 C         -24.9730   -2.5050   29.7880 C.2     1  UNL1       -0.0028
      3 C         -23.9060   -3.1730   29.1460 C.2     1  UNL1       -0.0026
      4 C         -23.9890   -4.5490   28.8530 C.2     1  UNL1       -0.0003
      5 C         -25.1370   -5.2800   29.2050 C.2     1  UNL1       -0.0000
      6 C         -26.2320   -4.6110   29.7840 C.2     1  UNL1       -0.0003
      7 C         -26.1550   -3.2320   30.0650 C.2     1  UNL1       -0.0026
      8 C         -25.3870   -0.6790   31.5710 C.3     1  UNL1        0.0952
      9 C         -25.1890    0.7730   32.0280 C.3     1  UNL1        0.0209
     10 C         -25.3360    0.6840   33.5440 C.3     1  UNL1        0.0203
     11 C         -24.8290   -0.7150   33.9050 C.3     1  UNL1        0.0888
     12 N         -24.7580   -1.4810   32.6460 N.3     1  UNL1       -0.2174
     13 C         -25.6880    1.6140   26.4610 C.3     1  UNL1        0.0927
     14 C         -26.2500    2.9200   26.3950 C.2     1  UNL1        0.0568
     15 C         -25.6420    4.0930   27.1230 C.2     1  UNL1        0.2625
     16 N         -25.6140    5.2520   26.4490 N.am    1  UNL1       -0.2000
     17 C         -25.0260    6.4790   26.9630 C.3     1  UNL1        0.1388
     18 O         -25.1430    3.9660   28.2430 O.2     1  UNL1       -0.2687
     19 C         -27.4380    3.0910   25.6450 C.2     1  UNL1        0.1022
     20 N         -28.0750    2.0890   25.0030 N.2     1  UNL1       -0.2119
     21 C         -27.5430    0.8490   25.0790 C.2     1  UNL1        0.2341
     22 O         -28.1930   -0.2080   24.4770 O.2     1  UNL1       -0.4585
     23 C         -29.4600    0.0050   23.8660 C.3     1  UNL1        0.2423
     24 C         -30.0650   -1.3770   23.5730 C.3     1  UNL1        0.2292
     25 O         -30.7290   -1.8780   24.7210 O.3     1  UNL1       -0.2162
     26 C         -26.3540    0.5760   25.7770 C.3     1  UNL1        0.2419
     27 F         -25.8600   -0.6810   25.7950 F       1  UNL1       -0.2268
     28 C         -25.0191    1.1377   27.7249 C.3     1  UNL1        0.1118
     29 O         -27.4030   -0.9883   28.6504 O.co2   1  UNL1       -0.2223
     30 O         -23.6928    2.4247   25.4230 O.2     1  UNL1       -0.2922
     31 C         -26.8517    0.0779   28.9721 C.2     1  UNL1        0.4477
     32 C         -20.8824    1.5941   27.5258 C.2     1  UNL1        0.0032
     33 C         -23.6083    1.3590   27.5854 C.2     1  UNL1        0.0345
     34 C         -23.0489    1.9693   26.4861 C.2     1  UNL1        0.1864
     35 C         -21.6991    2.1132   26.5151 C.2     1  UNL1        0.0410
     36 F         -22.4895    2.5464   24.5595 F       1  UNL1        0.0138
     37 C         -22.8474    0.8736   28.6373 C.2     1  UNL1        0.0005
     38 O         -27.4654    1.1116   29.2149 O.co2   1  UNL1       -0.2223
     39 N         -25.4251    0.0276   29.0139 N.am    1  UNL1       -0.2370
     40 C         -21.4525    0.9536   28.6074 C.2     1  UNL1       -0.0001
@<TRIPOS>BOND
     1     1    39    1
     2     2     7    1
     3     2     1    1
     4     3     2    2
     5     4     3    1
     6     4     5    2
     7     5     6    1
     8     6     7    2
     9     8     1    1
    10     8     9    1
    11     8    12    1
    12     9    10    1
    13    10    11    1
    14    12    11    1
    15    13    28    1
    16    14    13    1
    17    14    15    1
    18    15    18    2
    19    16    17    1
    20    16    15    1
    21    19    14    2
    22    20    21    2
    23    20    19    1
    24    21    26    1
    25    22    21    1
    26    23    22    1
    27    24    23    1
    28    24    25    1
    29    26    27    1
    30    26    13    1
    31    28    39    1
    32    29    31   ar
    33    30    34    1
    34    31    39   am
    35    31    38   ar
    36    32    40    1
    37    33    28    1
    38    33    37    1
    39    34    35    1
    40    34    33    2
    41    35    32    2
    42    36    30    1
    43    40    37    2
