@<TRIPOS>MOLECULE
outputs/IAG933/test6/raw/output_828_IAG933_linker_design_.xyz
 40 42 0 0 0
SMALL
GASTEIGER

@<TRIPOS>ATOM
      1 C         -24.8550   -1.0120   30.1430 C.3     1  UNL1        0.1372
      2 C         -24.9730   -2.5050   29.7880 C.2     1  UNL1       -0.0011
      3 C         -23.9060   -3.1730   29.1460 C.2     1  UNL1       -0.0026
      4 C         -23.9890   -4.5490   28.8530 C.2     1  UNL1       -0.0003
      5 C         -25.1370   -5.2800   29.2050 C.2     1  UNL1       -0.0000
      6 C         -26.2320   -4.6110   29.7840 C.2     1  UNL1       -0.0003
      7 C         -26.1550   -3.2320   30.0650 C.2     1  UNL1       -0.0026
      8 C         -25.3870   -0.6790   31.5710 C.3     1  UNL1        0.0970
      9 C         -25.1890    0.7730   32.0280 C.3     1  UNL1        0.0210
     10 C         -25.3360    0.6840   33.5440 C.3     1  UNL1        0.0203
     11 C         -24.8290   -0.7150   33.9050 C.3     1  UNL1        0.0888
     12 N         -24.7580   -1.4810   32.6460 N.3     1  UNL1       -0.2174
     13 C         -25.6880    1.6140   26.4610 C.3     1  UNL1        0.2373
     14 C         -26.2500    2.9200   26.3950 C.2     1  UNL1        0.0975
     15 C         -25.6420    4.0930   27.1230 C.2     1  UNL1        0.2662
     16 N         -25.6140    5.2520   26.4490 N.am    1  UNL1       -0.1999
     17 C         -25.0260    6.4790   26.9630 C.3     1  UNL1        0.1388
     18 O         -25.1430    3.9660   28.2430 O.2     1  UNL1       -0.2685
     19 C         -27.4380    3.0910   25.6450 C.2     1  UNL1        0.1060
     20 N         -28.0750    2.0890   25.0030 N.2     1  UNL1       -0.2116
     21 C         -27.5430    0.8490   25.0790 C.2     1  UNL1        0.2384
     22 O         -28.1930   -0.2080   24.4770 O.2     1  UNL1       -0.4584
     23 C         -29.4600    0.0050   23.8660 C.3     1  UNL1        0.2423
     24 C         -30.0650   -1.3770   23.5730 C.3     1  UNL1        0.2292
     25 O         -30.7290   -1.8780   24.7210 O.3     1  UNL1       -0.2162
     26 C         -26.3540    0.5760   25.7770 C.3     1  UNL1        0.2826
     27 F         -25.8600   -0.6810   25.7950 F       1  UNL1       -0.2224
     28 O         -21.3981    0.9381   27.9585 O.3     1  UNL1       -0.3397
     29 N         -23.4639   -0.7519   30.0511 N.am    1  UNL1       -0.1591
     30 N         -24.1911    0.5377   28.3987 N.am    1  UNL1        0.0442
     31 F         -24.0120    3.0707   24.8445 F       1  UNL1       -0.1311
     32 C         -23.6280    1.3501   27.5322 C.2     1  UNL1        0.3318
     33 F         -22.2451    2.1300   25.3275 F       1  UNL1       -0.1311
     34 C         -22.4676    1.8865   27.9315 C.3     1  UNL1        0.2580
     35 C         -23.6152    0.4415   29.5717 C.2     1  UNL1        0.4536
     36 F         -23.7445    1.1029   24.2245 F       1  UNL1       -0.1311
     37 C         -23.5752    1.9177   25.2479 C.3     1  UNL1        0.5589
     38 O         -23.3049    1.5984   30.1004 O.2     1  UNL1       -0.2178
     39 N         -24.3045    1.5775   26.3977 N.pl3   1  UNL1       -0.1129
     40 C         -20.0918    1.3652   27.7771 C.3     1  UNL1        0.1749
@<TRIPOS>BOND
     1     1    29    1
     2     2     7    1
     3     2     1    1
     4     3     2    2
     5     4     3    1
     6     4     5    2
     7     5     6    1
     8     6     7    2
     9     8     1    1
    10     8     9    1
    11     8    12    1
    12     9    10    1
    13    10    11    1
    14    12    11    1
    15    13    39    1
    16    14    13    1
    17    14    15    1
    18    15    18    2
    19    16    17    1
    20    16    15    1
    21    19    14    2
    22    20    21    2
    23    20    19    1
    24    21    26    1
    25    22    21    1
    26    23    22    1
    27    24    23    1
    28    24    25    1
    29    26    27    1
    30    26    13    1
    31    30    35    1
    32    31    37    1
    33    32    34    1
    34    32    30    2
    35    34    28    1
    36    35    29    1
    37    35    38    2
    38    36    37    1
    39    37    33    1
    40    37    39    1
    41    39    32    1
    42    40    28    1
