@<TRIPOS>MOLECULE
outputs/IAG933/test6/raw/output_8284_IAG933_linker_design_.xyz
 46 49 0 0 0
SMALL
GASTEIGER

@<TRIPOS>ATOM
      1 C         -24.8550   -1.0120   30.1430 C.3     1  UNL1        0.1111
      2 C         -24.9730   -2.5050   29.7880 C.2     1  UNL1       -0.0030
      3 C         -23.9060   -3.1730   29.1460 C.2     1  UNL1       -0.0026
      4 C         -23.9890   -4.5490   28.8530 C.2     1  UNL1       -0.0003
      5 C         -25.1370   -5.2800   29.2050 C.2     1  UNL1       -0.0000
      6 C         -26.2320   -4.6110   29.7840 C.2     1  UNL1       -0.0003
      7 C         -26.1550   -3.2320   30.0650 C.2     1  UNL1       -0.0026
      8 C         -25.3870   -0.6790   31.5710 C.3     1  UNL1        0.0950
      9 C         -25.1890    0.7730   32.0280 C.3     1  UNL1        0.0209
     10 C         -25.3360    0.6840   33.5440 C.3     1  UNL1        0.0203
     11 C         -24.8290   -0.7150   33.9050 C.3     1  UNL1        0.0888
     12 N         -24.7580   -1.4810   32.6460 N.3     1  UNL1       -0.2174
     13 C         -25.6880    1.6140   26.4610 C.3     1  UNL1        0.1059
     14 C         -26.2500    2.9200   26.3950 C.2     1  UNL1        0.0601
     15 C         -25.6420    4.0930   27.1230 C.2     1  UNL1        0.2628
     16 N         -25.6140    5.2520   26.4490 N.am    1  UNL1       -0.2000
     17 C         -25.0260    6.4790   26.9630 C.3     1  UNL1        0.1388
     18 O         -25.1430    3.9660   28.2430 O.2     1  UNL1       -0.2686
     19 C         -27.4380    3.0910   25.6450 C.2     1  UNL1        0.1025
     20 N         -28.0750    2.0890   25.0030 N.2     1  UNL1       -0.2118
     21 C         -27.5430    0.8490   25.0790 C.2     1  UNL1        0.2345
     22 O         -28.1930   -0.2080   24.4770 O.2     1  UNL1       -0.4585
     23 C         -29.4600    0.0050   23.8660 C.3     1  UNL1        0.2423
     24 C         -30.0650   -1.3770   23.5730 C.3     1  UNL1        0.2292
     25 O         -30.7290   -1.8780   24.7210 O.3     1  UNL1       -0.2162
     26 C         -26.3540    0.5760   25.7770 C.3     1  UNL1        0.2452
     27 F         -25.8600   -0.6810   25.7950 F       1  UNL1       -0.2265
     28 C         -28.0765    5.7286   33.2188 C.3     1  UNL1        0.1848
     29 O         -23.5245    2.0359   25.1084 O.2     1  UNL1       -0.2445
     30 C         -27.3903    1.3621   29.1128 C.3     1  UNL1        0.0402
     31 C         -24.8399    0.9448   27.6289 C.2     1  UNL1        0.0383
     32 C         -26.6192    6.2110   32.6940 C.3     1  UNL1        0.0699
     33 C         -26.2888    5.8580   31.2652 C.3     1  UNL1        0.1719
     34 O         -21.7140    2.0127   26.4942 O.3     1  UNL1       -0.4182
     35 C         -23.5990    1.1947   27.4167 C.2     1  UNL1        0.0847
     36 C         -22.3211    0.0984   29.6459 C.3     1  UNL1        0.0346
     37 C         -27.6909    2.2605   30.3898 C.3     1  UNL1        0.0906
     38 N         -27.7058    3.7586   30.5384 N.3     1  UNL1       -0.2153
     39 C         -26.5959    0.0540   28.9784 C.3     1  UNL1        0.0923
     40 O         -29.1380    5.6968   32.2254 O.3     1  UNL1       -0.2203
     41 C         -23.0152    1.7664   26.2433 C.2     1  UNL1        0.3465
     42 O         -25.0455    6.5014   30.8859 O.3     1  UNL1       -0.2215
     43 N         -25.1518   -0.0145   28.8328 N.pl3   1  UNL1       -0.3068
     44 C         -22.4695    0.9219   28.3313 C.2     1  UNL1        0.0230
     45 C         -21.3865    1.5233   27.8102 C.2     1  UNL1        0.1790
     46 C         -26.3379    4.2883   31.0200 C.3     1  UNL1        0.1215
@<TRIPOS>BOND
     1     1    43    1
     2     2     7    1
     3     2     1    1
     4     3     2    2
     5     4     3    1
     6     4     5    2
     7     5     6    1
     8     6     7    2
     9     8     1    1
    10     8     9    1
    11     8    12    1
    12     9    10    1
    13    10    11    1
    14    12    11    1
    15    13    31    1
    16    14    13    1
    17    14    15    1
    18    15    18    2
    19    16    17    1
    20    16    15    1
    21    19    14    2
    22    20    21    2
    23    20    19    1
    24    21    26    1
    25    22    21    1
    26    23    22    1
    27    24    23    1
    28    24    25    1
    29    26    27    1
    30    26    13    1
    31    29    41    2
    32    30    37    1
    33    31    43    1
    34    32    28    1
    35    33    42    1
    36    33    32    1
    37    34    45    1
    38    35    31    2
    39    35    44    1
    40    37    38    1
    41    38    46    1
    42    39    30    1
    43    40    28    1
    44    41    34    1
    45    41    35    1
    46    43    39    1
    47    44    36    1
    48    45    44    2
    49    46    33    1
