@<TRIPOS>MOLECULE
outputs/IAG933/test6/raw/output_8286_IAG933_linker_design_.xyz
 40 44 0 0 0
SMALL
GASTEIGER

@<TRIPOS>ATOM
      1 C         -24.8550   -1.0120   30.1430 C.3     1  UNL1        0.1148
      2 C         -24.9730   -2.5050   29.7880 C.2     1  UNL1       -0.0029
      3 C         -23.9060   -3.1730   29.1460 C.2     1  UNL1       -0.0026
      4 C         -23.9890   -4.5490   28.8530 C.2     1  UNL1       -0.0003
      5 C         -25.1370   -5.2800   29.2050 C.2     1  UNL1       -0.0000
      6 C         -26.2320   -4.6110   29.7840 C.2     1  UNL1       -0.0003
      7 C         -26.1550   -3.2320   30.0650 C.2     1  UNL1       -0.0026
      8 C         -25.3870   -0.6790   31.5710 C.3     1  UNL1        0.0952
      9 C         -25.1890    0.7730   32.0280 C.3     1  UNL1        0.0209
     10 C         -25.3360    0.6840   33.5440 C.3     1  UNL1        0.0203
     11 C         -24.8290   -0.7150   33.9050 C.3     1  UNL1        0.0888
     12 N         -24.7580   -1.4810   32.6460 N.3     1  UNL1       -0.2174
     13 C         -25.6880    1.6140   26.4610 C.3     1  UNL1        0.0922
     14 C         -26.2500    2.9200   26.3950 C.2     1  UNL1        0.0589
     15 C         -25.6420    4.0930   27.1230 C.2     1  UNL1        0.2628
     16 N         -25.6140    5.2520   26.4490 N.am    1  UNL1       -0.2000
     17 C         -25.0260    6.4790   26.9630 C.3     1  UNL1        0.1388
     18 O         -25.1430    3.9660   28.2430 O.2     1  UNL1       -0.2686
     19 C         -27.4380    3.0910   25.6450 C.2     1  UNL1        0.1025
     20 N         -28.0750    2.0890   25.0030 N.2     1  UNL1       -0.2118
     21 C         -27.5430    0.8490   25.0790 C.2     1  UNL1        0.2344
     22 O         -28.1930   -0.2080   24.4770 O.2     1  UNL1       -0.4585
     23 C         -29.4600    0.0050   23.8660 C.3     1  UNL1        0.2423
     24 C         -30.0650   -1.3770   23.5730 C.3     1  UNL1        0.2292
     25 O         -30.7290   -1.8780   24.7210 O.3     1  UNL1       -0.2162
     26 C         -26.3540    0.5760   25.7770 C.3     1  UNL1        0.2440
     27 F         -25.8600   -0.6810   25.7950 F       1  UNL1       -0.2265
     28 S         -22.3203   -0.1730   29.4683 S.3     1  UNL1       -0.0893
     29 O         -27.4468   -0.8369   28.9331 O.2     1  UNL1       -0.2748
     30 N         -25.2184   -0.0848   29.0302 N.am    1  UNL1       -0.2646
     31 C         -22.2038    1.1674   27.2787 C.2     1  UNL1        0.0318
     32 C         -23.4249    2.0372   25.5053 C.2     1  UNL1        0.0256
     33 C         -24.2910    1.5054   26.4646 C.2     1  UNL1       -0.0143
     34 C         -23.6079    0.9074   27.5166 C.2     1  UNL1        0.0055
     35 C         -23.9567    0.2722   28.5953 C.3     1  UNL1        0.1505
     36 C         -26.7015    0.0826   29.0319 C.2     1  UNL1        0.2272
     37 C         -22.1346    1.8179   25.9799 C.2     1  UNL1        0.1400
     38 C         -21.3928    0.7686   28.3236 C.2     1  UNL1        0.0347
     39 C         -27.2740    1.4795   29.2797 C.3     1  UNL1        0.0949
     40 F         -21.0968    2.1636   25.2886 F       1  UNL1       -0.2042
@<TRIPOS>BOND
     1     1    30    1
     2     2     7    1
     3     2     1    1
     4     3     2    2
     5     4     3    1
     6     4     5    2
     7     5     6    1
     8     6     7    2
     9     8     1    1
    10     8     9    1
    11     8    12    1
    12     9    10    1
    13    10    11    1
    14    12    11    1
    15    13    33    1
    16    14    13    1
    17    14    15    1
    18    15    18    2
    19    16    17    1
    20    16    15    1
    21    19    14    2
    22    20    21    2
    23    20    19    1
    24    21    26    1
    25    22    21    1
    26    23    22    1
    27    24    23    1
    28    24    25    1
    29    26    27    1
    30    26    13    1
    31    29    36    2
    32    30    36   am
    33    31    34    1
    34    31    38    2
    35    32    37    2
    36    32    33    1
    37    33    34    2
    38    34    35    1
    39    35    30    1
    40    35    28    1
    41    36    39    1
    42    37    31    1
    43    38    28    1
    44    40    37    1
