@<TRIPOS>MOLECULE
outputs/IAG933/test6/raw/output_8292_IAG933_linker_design_.xyz
 44 48 0 0 0
SMALL
GASTEIGER

@<TRIPOS>ATOM
      1 C         -24.8550   -1.0120   30.1430 C.3     1  UNL1        0.1141
      2 C         -24.9730   -2.5050   29.7880 C.2     1  UNL1       -0.0029
      3 C         -23.9060   -3.1730   29.1460 C.2     1  UNL1       -0.0026
      4 C         -23.9890   -4.5490   28.8530 C.2     1  UNL1       -0.0003
      5 C         -25.1370   -5.2800   29.2050 C.2     1  UNL1       -0.0000
      6 C         -26.2320   -4.6110   29.7840 C.2     1  UNL1       -0.0003
      7 C         -26.1550   -3.2320   30.0650 C.2     1  UNL1       -0.0026
      8 C         -25.3870   -0.6790   31.5710 C.3     1  UNL1        0.0951
      9 C         -25.1890    0.7730   32.0280 C.3     1  UNL1        0.0209
     10 C         -25.3360    0.6840   33.5440 C.3     1  UNL1        0.0203
     11 C         -24.8290   -0.7150   33.9050 C.3     1  UNL1        0.0888
     12 N         -24.7580   -1.4810   32.6460 N.3     1  UNL1       -0.2174
     13 C         -25.6880    1.6140   26.4610 C.3     1  UNL1        0.1464
     14 C         -26.2500    2.9200   26.3950 C.2     1  UNL1        0.0731
     15 C         -25.6420    4.0930   27.1230 C.2     1  UNL1        0.2640
     16 N         -25.6140    5.2520   26.4490 N.am    1  UNL1       -0.1999
     17 C         -25.0260    6.4790   26.9630 C.3     1  UNL1        0.1388
     18 O         -25.1430    3.9660   28.2430 O.2     1  UNL1       -0.2686
     19 C         -27.4380    3.0910   25.6450 C.2     1  UNL1        0.1038
     20 N         -28.0750    2.0890   25.0030 N.2     1  UNL1       -0.2118
     21 C         -27.5430    0.8490   25.0790 C.2     1  UNL1        0.2358
     22 O         -28.1930   -0.2080   24.4770 O.2     1  UNL1       -0.4585
     23 C         -29.4600    0.0050   23.8660 C.3     1  UNL1        0.2423
     24 C         -30.0650   -1.3770   23.5730 C.3     1  UNL1        0.2292
     25 O         -30.7290   -1.8780   24.7210 O.3     1  UNL1       -0.2162
     26 C         -26.3540    0.5760   25.7770 C.3     1  UNL1        0.2581
     27 F         -25.8600   -0.6810   25.7950 F       1  UNL1       -0.2251
     28 C         -23.4629    0.4205   28.7149 C.2     1  UNL1        0.1322
     29 N         -25.0733    1.0436   27.4814 N.pl3   1  UNL1       -0.2639
     30 O         -21.8296   -0.4633   30.0244 O.2     1  UNL1       -0.2652
     31 C         -30.3882    2.2952   29.6353 C.3     1  UNL1        0.0029
     32 N         -29.3192   -0.0399   28.7642 N.3     1  UNL1       -0.2579
     33 N         -21.0656    0.8372   28.2741 N.am    1  UNL1       -0.0825
     34 C         -29.7371    0.0079   30.1700 C.3     1  UNL1        0.0734
     35 C         -30.3672    2.0774   28.1158 C.3     1  UNL1        0.0174
     36 N         -26.9254   -0.0320   28.3687 N.3     1  UNL1       -0.1643
     37 C         -22.0592    0.3149   29.0179 C.2     1  UNL1        0.2997
     38 C         -23.8255    1.1511   27.5478 C.2     1  UNL1        0.1274
     39 C         -28.1175   -0.8779   28.4860 C.3     1  UNL1        0.1670
     40 C         -29.3467    1.4729   30.4456 C.3     1  UNL1        0.0174
     41 C         -29.9793    0.6361   27.6416 C.3     1  UNL1        0.0734
     42 N         -24.6784   -0.1337   29.1171 N.pl3   1  UNL1       -0.2704
     43 CL        -22.7723    1.8319   26.2664 Cl      1  UNL1       -0.0645
     44 C         -25.6095    0.1865   28.3162 C.3     1  UNL1        0.2335
@<TRIPOS>BOND
     1     1     2    1
     2     2     7    1
     3     3     2    2
     4     4     3    1
     5     4     5    2
     6     5     6    1
     7     6     7    2
     8     8     1    1
     9     8     9    1
    10     8    12    1
    11     9    10    1
    12    10    11    1
    13    12    11    1
    14    13    29    1
    15    14    13    1
    16    14    15    1
    17    15    18    2
    18    16    17    1
    19    16    15    1
    20    19    14    2
    21    20    21    2
    22    20    19    1
    23    21    26    1
    24    22    21    1
    25    23    22    1
    26    24    23    1
    27    24    25    1
    28    26    27    1
    29    26    13    1
    30    28    37    1
    31    28    42    1
    32    29    38    1
    33    29    44    1
    34    31    40    1
    35    32    34    1
    36    33    37    1
    37    34    40    1
    38    35    31    1
    39    36    39    1
    40    37    30    2
    41    38    28    2
    42    39    32    1
    43    41    35    1
    44    41    32    1
    45    42     1    1
    46    43    38    1
    47    44    36    1
    48    44    42    1
