@<TRIPOS>MOLECULE
outputs/IAG933/test6/raw/output_8294_IAG933_linker_design_.xyz
 40 44 0 0 0
SMALL
GASTEIGER

@<TRIPOS>ATOM
      1 C         -24.8550   -1.0120   30.1430 C.3     1  UNL1        0.2060
      2 C         -24.9730   -2.5050   29.7880 C.2     1  UNL1        0.0218
      3 C         -23.9060   -3.1730   29.1460 C.2     1  UNL1       -0.0004
      4 C         -23.9890   -4.5490   28.8530 C.2     1  UNL1       -0.0002
      5 C         -25.1370   -5.2800   29.2050 C.2     1  UNL1       -0.0000
      6 C         -26.2320   -4.6110   29.7840 C.2     1  UNL1       -0.0002
      7 C         -26.1550   -3.2320   30.0650 C.2     1  UNL1       -0.0004
      8 C         -25.3870   -0.6790   31.5710 C.3     1  UNL1        0.1202
      9 C         -25.1890    0.7730   32.0280 C.3     1  UNL1        0.0233
     10 C         -25.3360    0.6840   33.5440 C.3     1  UNL1        0.0204
     11 C         -24.8290   -0.7150   33.9050 C.3     1  UNL1        0.0889
     12 N         -24.7580   -1.4810   32.6460 N.3     1  UNL1       -0.2150
     13 C         -25.6880    1.6140   26.4610 C.3     1  UNL1        0.0854
     14 C         -26.2500    2.9200   26.3950 C.2     1  UNL1        0.0557
     15 C         -25.6420    4.0930   27.1230 C.2     1  UNL1        0.2625
     16 N         -25.6140    5.2520   26.4490 N.am    1  UNL1       -0.2000
     17 C         -25.0260    6.4790   26.9630 C.3     1  UNL1        0.1388
     18 O         -25.1430    3.9660   28.2430 O.2     1  UNL1       -0.2687
     19 C         -27.4380    3.0910   25.6450 C.2     1  UNL1        0.1022
     20 N         -28.0750    2.0890   25.0030 N.2     1  UNL1       -0.2119
     21 C         -27.5430    0.8490   25.0790 C.2     1  UNL1        0.2341
     22 O         -28.1930   -0.2080   24.4770 O.2     1  UNL1       -0.4585
     23 C         -29.4600    0.0050   23.8660 C.3     1  UNL1        0.2423
     24 C         -30.0650   -1.3770   23.5730 C.3     1  UNL1        0.2292
     25 O         -30.7290   -1.8780   24.7210 O.3     1  UNL1       -0.2162
     26 C         -26.3540    0.5760   25.7770 C.3     1  UNL1        0.2409
     27 F         -25.8600   -0.6810   25.7950 F       1  UNL1       -0.2269
     28 N         -24.4065   -0.1738   29.2485 N.am    1  UNL1       -0.1354
     29 C         -23.0645    0.0008   29.2250 C.2     1  UNL1        0.3868
     30 C         -22.7750    2.0348   26.2789 C.ar    1  UNL1        0.2856
     31 C         -21.3621    0.9160   27.6402 C.ar    1  UNL1        0.2443
     32 C         -25.3253    0.3462   28.3892 C.2     1  UNL1        0.3178
     33 C         -24.8739    1.1564   27.3958 C.3     1  UNL1        0.1371
     34 N         -22.2337   -0.5543   30.0411 N.2     1  UNL1        0.1939
     35 C         -23.4907    1.3473   27.3007 C.ar    1  UNL1        0.0644
     36 N         -20.1710    0.4167   28.0463 N.pl3   1  UNL1       -0.0874
     37 O         -21.4985    1.6654   26.4207 O.2     1  UNL1       -0.4119
     38 O         -26.5390    0.0325   28.4124 O.2     1  UNL1       -0.2464
     39 F         -23.2513    2.6320   25.3138 F       1  UNL1       -0.1632
     40 C         -22.5971    0.7468   28.1391 C.ar    1  UNL1        0.1412
@<TRIPOS>BOND
     1     1     2    1
     2     2     7    1
     3     3     2    2
     4     4     3    1
     5     4     5    2
     6     5     6    1
     7     6     7    2
     8     8     1    1
     9     8     9    1
    10     8    12    1
    11     9    10    1
    12    10    11    1
    13    12    11    1
    14    13    14    1
    15    13    33    1
    16    14    15    1
    17    15    18    2
    18    16    17    1
    19    16    15    1
    20    19    14    2
    21    20    21    2
    22    20    19    1
    23    21    26    1
    24    22    21    1
    25    23    22    1
    26    24    23    1
    27    24    25    1
    28    26    27    1
    29    26    13    1
    30    28     1    1
    31    29    28    1
    32    29    34    2
    33    30    37   ar
    34    30    35   ar
    35    31    36    1
    36    31    40   ar
    37    32    38    2
    38    32    28   am
    39    33    35    1
    40    33    32    1
    41    35    40   ar
    42    37    31   ar
    43    39    30    1
    44    40    29    1
