@<TRIPOS>MOLECULE
outputs/IAG933/test6/raw/output_83_IAG933_linker_design_.xyz
 40 42 0 0 0
SMALL
GASTEIGER

@<TRIPOS>ATOM
      1 C         -24.8550   -1.0120   30.1430 C.3     1  UNL1        0.1163
      2 C         -24.9730   -2.5050   29.7880 C.2     1  UNL1       -0.0125
      3 C         -23.9060   -3.1730   29.1460 C.2     1  UNL1       -0.0038
      4 C         -23.9890   -4.5490   28.8530 C.2     1  UNL1       -0.0003
      5 C         -25.1370   -5.2800   29.2050 C.2     1  UNL1       -0.0000
      6 C         -26.2320   -4.6110   29.7840 C.2     1  UNL1       -0.0003
      7 C         -26.1550   -3.2320   30.0650 C.2     1  UNL1       -0.0038
      8 C         -25.3870   -0.6790   31.5710 C.3     1  UNL1        0.0855
      9 C         -25.1890    0.7730   32.0280 C.3     1  UNL1        0.0197
     10 C         -25.3360    0.6840   33.5440 C.3     1  UNL1        0.0203
     11 C         -24.8290   -0.7150   33.9050 C.3     1  UNL1        0.0887
     12 N         -24.7580   -1.4810   32.6460 N.3     1  UNL1       -0.2186
     13 C         -25.6880    1.6140   26.4610 C.2     1  UNL1        0.0361
     14 C         -26.2500    2.9200   26.3950 C.2     1  UNL1        0.0742
     15 C         -25.6420    4.0930   27.1230 C.2     1  UNL1        0.2662
     16 N         -25.6140    5.2520   26.4490 N.am    1  UNL1       -0.1997
     17 C         -25.0260    6.4790   26.9630 C.3     1  UNL1        0.1388
     18 O         -25.1430    3.9660   28.2430 O.2     1  UNL1       -0.2683
     19 C         -27.4380    3.0910   25.6450 C.2     1  UNL1        0.1065
     20 N         -28.0750    2.0890   25.0030 N.2     1  UNL1       -0.2081
     21 C         -27.5430    0.8490   25.0790 C.2     1  UNL1        0.2530
     22 O         -28.1930   -0.2080   24.4770 O.2     1  UNL1       -0.4558
     23 C         -29.4600    0.0050   23.8660 C.3     1  UNL1        0.2426
     24 C         -30.0650   -1.3770   23.5730 C.3     1  UNL1        0.2292
     25 O         -30.7290   -1.8780   24.7210 O.3     1  UNL1       -0.2162
     26 C         -26.3540    0.5760   25.7770 C.2     1  UNL1        0.1907
     27 F         -25.8600   -0.6810   25.7950 F       1  UNL1       -0.1995
     28 O         -21.6881    2.0141   25.1662 O.co2   1  UNL1       -0.2456
     29 N         -24.7016    0.7836   28.6070 N.am    1  UNL1       -0.2017
     30 C         -23.1518    1.3413   26.8878 C.3     1  UNL1        0.1342
     31 C         -22.7719    2.1971   25.7198 C.2     1  UNL1        0.3668
     32 C         -24.5145    1.2631   27.3082 C.3     1  UNL1        0.1310
     33 O         -23.4761    3.1181   25.3384 O.co2   1  UNL1       -0.2456
     34 C         -22.0474   -0.0981   28.7335 C.2     1  UNL1       -0.0230
     35 C         -25.4643   -0.1754   29.0154 C.2     1  UNL1        0.2466
     36 O         -26.5715   -0.3278   28.5368 O.2     1  UNL1       -0.2729
     37 C         -20.8896    1.2240   27.5620 C.3     1  UNL1        0.1981
     38 F         -19.7962    1.5479   27.9607 F       1  UNL1       -0.2340
     39 C         -22.1138    0.8616   27.7469 C.3     1  UNL1        0.0701
     40 C         -20.9335   -0.4686   29.1187 C.2     1  UNL1       -0.0048
@<TRIPOS>BOND
     1     1    35    1
     2     2     7    1
     3     2     1    1
     4     3     2    2
     5     4     3    1
     6     4     5    2
     7     5     6    1
     8     6     7    2
     9     8     1    1
    10     8     9    1
    11     8    12    1
    12     9    10    1
    13    10    11    1
    14    12    11    1
    15    13    32    1
    16    14    13    1
    17    14    15    1
    18    15    18    2
    19    16    17    1
    20    16    15    1
    21    19    14    2
    22    20    21    2
    23    20    19    1
    24    21    26    1
    25    22    21    1
    26    23    22    1
    27    24    23    1
    28    24    25    1
    29    26    27    1
    30    26    13    2
    31    28    31   ar
    32    29    35    1
    33    30    31    1
    34    30    32    1
    35    30    39    1
    36    32    29    1
    37    33    31   ar
    38    34    40    2
    39    36    35    2
    40    37    38    1
    41    39    37    1
    42    39    34    1
