@<TRIPOS>MOLECULE
outputs/IAG933/test6/raw/output_8302_IAG933_linker_design_.xyz
 46 50 0 0 0
SMALL
GASTEIGER

@<TRIPOS>ATOM
      1 C         -24.8550   -1.0120   30.1430 C.3     1  UNL1        0.0636
      2 C         -24.9730   -2.5050   29.7880 C.2     1  UNL1       -0.0168
      3 C         -23.9060   -3.1730   29.1460 C.2     1  UNL1       -0.0039
      4 C         -23.9890   -4.5490   28.8530 C.2     1  UNL1       -0.0003
      5 C         -25.1370   -5.2800   29.2050 C.2     1  UNL1       -0.0000
      6 C         -26.2320   -4.6110   29.7840 C.2     1  UNL1       -0.0003
      7 C         -26.1550   -3.2320   30.0650 C.2     1  UNL1       -0.0039
      8 C         -25.3870   -0.6790   31.5710 C.3     1  UNL1        0.0811
      9 C         -25.1890    0.7730   32.0280 C.3     1  UNL1        0.0195
     10 C         -25.3360    0.6840   33.5440 C.3     1  UNL1        0.0203
     11 C         -24.8290   -0.7150   33.9050 C.3     1  UNL1        0.0887
     12 N         -24.7580   -1.4810   32.6460 N.3     1  UNL1       -0.2188
     13 C         -25.6880    1.6140   26.4610 C.2     1  UNL1        0.0455
     14 C         -26.2500    2.9200   26.3950 C.2     1  UNL1        0.0771
     15 C         -25.6420    4.0930   27.1230 C.2     1  UNL1        0.2664
     16 N         -25.6140    5.2520   26.4490 N.am    1  UNL1       -0.1997
     17 C         -25.0260    6.4790   26.9630 C.3     1  UNL1        0.1388
     18 O         -25.1430    3.9660   28.2430 O.2     1  UNL1       -0.2683
     19 C         -27.4380    3.0910   25.6450 C.2     1  UNL1        0.1067
     20 N         -28.0750    2.0890   25.0030 N.2     1  UNL1       -0.2081
     21 C         -27.5430    0.8490   25.0790 C.2     1  UNL1        0.2533
     22 O         -28.1930   -0.2080   24.4770 O.2     1  UNL1       -0.4558
     23 C         -29.4600    0.0050   23.8660 C.3     1  UNL1        0.2426
     24 C         -30.0650   -1.3770   23.5730 C.3     1  UNL1        0.2292
     25 O         -30.7290   -1.8780   24.7210 O.3     1  UNL1       -0.2162
     26 C         -26.3540    0.5760   25.7770 C.2     1  UNL1        0.1936
     27 F         -25.8600   -0.6810   25.7950 F       1  UNL1       -0.1992
     28 C         -22.3189    1.0077   27.9330 C.2     1  UNL1        0.4630
     29 C         -24.6544    1.3296   27.2354 C.2     1  UNL1        0.0470
     30 C         -28.7696   -0.3593   28.5532 C.3     1  UNL1        0.0030
     31 C         -30.7360    1.0861   28.7408 C.3     1  UNL1        0.1814
     32 C         -30.4394    2.5555   29.0484 C.3     1  UNL1        0.1748
     33 C         -29.7534    0.2656   29.5849 C.3     1  UNL1        0.0355
     34 C         -24.9967    0.6792   28.5856 C.1     1  UNL1       -0.1096
     35 N         -21.1963    1.5120   27.4530 N.2     1  UNL1        0.1689
     36 C         -27.9200    0.7742   27.9827 C.3     1  UNL1        0.0051
     37 C         -22.8093    2.0541   26.0289 C.2     1  UNL1        0.2504
     38 C         -29.7298    2.2674   31.3419 C.3     1  UNL1        0.1424
     39 C         -29.3670    0.8021   31.0317 C.3     1  UNL1        0.0347
     40 O         -21.4442    2.0886   26.1903 O.2     1  UNL1       -0.2507
     41 C         -23.3074    1.3794   27.1466 C.2     1  UNL1        0.1444
     42 O         -30.8888    0.3746   27.5047 O.3     1  UNL1       -0.2205
     43 C         -25.5534    0.0164   29.3124 C.2     1  UNL1       -0.0049
     44 N         -22.1924    0.0965   29.1373 N.pl3   1  UNL1        0.2207
     45 C         -26.6073    0.9266   28.8831 C.3     1  UNL1        0.0301
     46 O         -30.7651    2.7050   30.4778 O.3     1  UNL1       -0.3511
@<TRIPOS>BOND
     1     1    43    1
     2     2     7    1
     3     2     1    1
     4     3     2    2
     5     4     3    1
     6     4     5    2
     7     5     6    1
     8     6     7    2
     9     8     1    1
    10     8     9    1
    11     8    12    1
    12     9    10    1
    13    10    11    1
    14    12    11    1
    15    13    29    1
    16    14    13    1
    17    14    15    1
    18    15    18    2
    19    16    17    1
    20    16    15    1
    21    19    14    2
    22    20    21    2
    23    20    19    1
    24    21    26    1
    25    22    21    1
    26    23    22    1
    27    24    23    1
    28    24    25    1
    29    26    27    1
    30    26    13    2
    31    28    44    1
    32    29    34    2
    33    31    42    1
    34    31    32    1
    35    31    33    1
    36    32    46    1
    37    33    30    1
    38    33    39    1
    39    34    43    2
    40    35    28    2
    41    36    30    1
    42    36    45    1
    43    37    40    1
    44    37    41    2
    45    39    38    1
    46    40    35    1
    47    41    29    1
    48    41    28    1
    49    45    43    1
    50    46    38    1
