@<TRIPOS>MOLECULE
outputs/IAG933/test6/raw/output_8303_IAG933_linker_design_.xyz
 44 48 0 0 0
SMALL
GASTEIGER

@<TRIPOS>ATOM
      1 C         -24.8550   -1.0120   30.1430 C.3     1  UNL1        0.0698
      2 C         -24.9730   -2.5050   29.7880 C.2     1  UNL1       -0.0184
      3 C         -23.9060   -3.1730   29.1460 C.2     1  UNL1       -0.0041
      4 C         -23.9890   -4.5490   28.8530 C.2     1  UNL1       -0.0003
      5 C         -25.1370   -5.2800   29.2050 C.2     1  UNL1       -0.0000
      6 C         -26.2320   -4.6110   29.7840 C.2     1  UNL1       -0.0003
      7 C         -26.1550   -3.2320   30.0650 C.2     1  UNL1       -0.0041
      8 C         -25.3870   -0.6790   31.5710 C.3     1  UNL1        0.0795
      9 C         -25.1890    0.7730   32.0280 C.3     1  UNL1        0.0193
     10 C         -25.3360    0.6840   33.5440 C.3     1  UNL1        0.0202
     11 C         -24.8290   -0.7150   33.9050 C.3     1  UNL1        0.0887
     12 N         -24.7580   -1.4810   32.6460 N.3     1  UNL1       -0.2190
     13 C         -25.6880    1.6140   26.4610 C.2     1  UNL1        0.0410
     14 C         -26.2500    2.9200   26.3950 C.2     1  UNL1        0.0766
     15 C         -25.6420    4.0930   27.1230 C.2     1  UNL1        0.2664
     16 N         -25.6140    5.2520   26.4490 N.am    1  UNL1       -0.1997
     17 C         -25.0260    6.4790   26.9630 C.3     1  UNL1        0.1388
     18 O         -25.1430    3.9660   28.2430 O.2     1  UNL1       -0.2683
     19 C         -27.4380    3.0910   25.6450 C.2     1  UNL1        0.1067
     20 N         -28.0750    2.0890   25.0030 N.2     1  UNL1       -0.2081
     21 C         -27.5430    0.8490   25.0790 C.2     1  UNL1        0.2533
     22 O         -28.1930   -0.2080   24.4770 O.2     1  UNL1       -0.4558
     23 C         -29.4600    0.0050   23.8660 C.3     1  UNL1        0.2426
     24 C         -30.0650   -1.3770   23.5730 C.3     1  UNL1        0.2292
     25 O         -30.7290   -1.8780   24.7210 O.3     1  UNL1       -0.2162
     26 C         -26.3540    0.5760   25.7770 C.2     1  UNL1        0.1931
     27 F         -25.8600   -0.6810   25.7950 F       1  UNL1       -0.1992
     28 O         -28.2479    1.6111   31.6218 O.co2   1  UNL1       -0.2456
     29 C         -23.1964    1.8895   26.3298 C.2     1  UNL1        0.2226
     30 O         -28.9831   -0.2910   27.5591 O.3     1  UNL1       -0.3254
     31 C         -24.3541    1.3878   26.9881 C.2     1  UNL1        0.0421
     32 C         -28.9199    0.1757   28.8271 C.3     1  UNL1        0.1852
     33 C         -21.9383    1.6770   26.8426 C.2     1  UNL1        0.1788
     34 C         -29.3394    1.4760   31.0019 C.2     1  UNL1        0.3675
     35 F         -20.9234    2.1044   26.1493 F       1  UNL1       -0.2008
     36 C         -22.9508    0.5311   28.7294 C.2     1  UNL1        0.0006
     37 O         -26.7165    0.1390   29.3173 O.3     1  UNL1       -0.3263
     38 O         -30.3993    1.3568   31.5791 O.co2   1  UNL1       -0.2456
     39 C         -24.2121    0.6645   28.1958 C.2     1  UNL1        0.0083
     40 C         -21.7523    0.9759   28.0552 C.2     1  UNL1        0.0327
     41 C         -29.4736    1.3789   29.4771 C.3     1  UNL1        0.1488
     42 C         -27.6749   -0.3661   28.2614 C.3     1  UNL1        0.2643
     43 C         -25.3100   -0.0353   29.0721 C.3     1  UNL1        0.1454
     44 O         -23.2544    2.5686   25.1488 O.2     1  UNL1       -0.2842
@<TRIPOS>BOND
     1     1    43    1
     2     2     7    1
     3     2     1    1
     4     3     2    2
     5     4     3    1
     6     4     5    2
     7     5     6    1
     8     6     7    2
     9     8     1    1
    10     8     9    1
    11     8    12    1
    12     9    10    1
    13    10    11    1
    14    12    11    1
    15    13    31    1
    16    14    13    1
    17    14    15    1
    18    15    18    2
    19    16    17    1
    20    16    15    1
    21    19    14    2
    22    20    21    2
    23    20    19    1
    24    21    26    1
    25    22    21    1
    26    23    22    1
    27    24    23    1
    28    24    25    1
    29    26    27    1
    30    26    13    2
    31    29    33    2
    32    29    31    1
    33    30    42    1
    34    30    32    1
    35    31    39    2
    36    32    41    1
    37    33    40    1
    38    34    38   ar
    39    34    28   ar
    40    35    33    1
    41    39    36    1
    42    39    43    1
    43    40    36    2
    44    41    34    1
    45    42    32    1
    46    42    37    1
    47    43    37    1
    48    44    29    1
