@<TRIPOS>MOLECULE
outputs/IAG933/test6/raw/output_8307_IAG933_linker_design_.xyz
 46 51 0 0 0
SMALL
GASTEIGER

@<TRIPOS>ATOM
      1 C         -24.8550   -1.0120   30.1430 C.3     1  UNL1        0.0437
      2 C         -24.9730   -2.5050   29.7880 C.2     1  UNL1       -0.0208
      3 C         -23.9060   -3.1730   29.1460 C.2     1  UNL1       -0.0042
      4 C         -23.9890   -4.5490   28.8530 C.2     1  UNL1       -0.0003
      5 C         -25.1370   -5.2800   29.2050 C.2     1  UNL1       -0.0000
      6 C         -26.2320   -4.6110   29.7840 C.2     1  UNL1       -0.0003
      7 C         -26.1550   -3.2320   30.0650 C.2     1  UNL1       -0.0042
      8 C         -25.3870   -0.6790   31.5710 C.3     1  UNL1        0.0772
      9 C         -25.1890    0.7730   32.0280 C.3     1  UNL1        0.0208
     10 C         -25.3360    0.6840   33.5440 C.3     1  UNL1        0.0203
     11 C         -24.8290   -0.7150   33.9050 C.3     1  UNL1        0.0887
     12 N         -24.7580   -1.4810   32.6460 N.3     1  UNL1       -0.2191
     13 C         -25.6880    1.6140   26.4610 C.2     1  UNL1        0.0316
     14 C         -26.2500    2.9200   26.3950 C.2     1  UNL1        0.0739
     15 C         -25.6420    4.0930   27.1230 C.2     1  UNL1        0.2662
     16 N         -25.6140    5.2520   26.4490 N.am    1  UNL1       -0.1997
     17 C         -25.0260    6.4790   26.9630 C.3     1  UNL1        0.1388
     18 O         -25.1430    3.9660   28.2430 O.2     1  UNL1       -0.2683
     19 C         -27.4380    3.0910   25.6450 C.2     1  UNL1        0.1065
     20 N         -28.0750    2.0890   25.0030 N.2     1  UNL1       -0.2081
     21 C         -27.5430    0.8490   25.0790 C.2     1  UNL1        0.2530
     22 O         -28.1930   -0.2080   24.4770 O.2     1  UNL1       -0.4558
     23 C         -29.4600    0.0050   23.8660 C.3     1  UNL1        0.2426
     24 C         -30.0650   -1.3770   23.5730 C.3     1  UNL1        0.2292
     25 O         -30.7290   -1.8780   24.7210 O.3     1  UNL1       -0.2162
     26 C         -26.3540    0.5760   25.7770 C.2     1  UNL1        0.1904
     27 F         -25.8600   -0.6810   25.7950 F       1  UNL1       -0.1995
     28 C         -23.3384    1.6567   26.8314 C.3     1  UNL1        0.0220
     29 C         -28.2330    5.1032   33.1894 C.2     1  UNL1        0.0703
     30 C         -27.1132    4.8622   32.3035 C.2     1  UNL1        0.0574
     31 C         -24.6982    1.4751   27.3709 C.3     1  UNL1        0.0974
     32 C         -27.0123    5.6716   31.2043 C.2     1  UNL1        0.0329
     33 C         -22.6857    1.5251   29.3596 C.3     1  UNL1        0.0175
     34 N         -28.8564    7.0819   32.1308 N.am    1  UNL1       -0.1740
     35 O         -30.4831    5.8184   33.3701 O.2     1  UNL1       -0.2680
     36 C         -20.9865    1.8400   27.3650 C.3     1  UNL1        0.0001
     37 N         -26.2335    3.8591   32.6700 N.pl3   1  UNL1       -0.2857
     38 C         -24.1962    1.8944   29.7629 C.3     1  UNL1        0.0748
     39 C         -27.9033    6.7653   31.1209 C.2     1  UNL1        0.0902
     40 N         -25.1794    1.4409   28.9481 N.3     1  UNL1       -0.2163
     41 C         -22.3847    1.5971   27.8344 C.3     1  UNL1        0.0031
     42 C         -29.1915    6.0231   32.9450 C.2     1  UNL1        0.2703
     43 C         -27.9282    4.0514   34.2990 C.2     1  UNL1        0.0219
     44 C         -26.6403    3.4857   33.9400 C.2     1  UNL1        0.0656
     45 C         -25.1146    3.4032   31.7080 C.3     1  UNL1        0.0970
     46 C         -24.4822    1.9350   31.3179 C.3     1  UNL1        0.0376
@<TRIPOS>BOND
     1     2     7    1
     2     2     1    1
     3     3     2    2
     4     4     3    1
     5     4     5    2
     6     5     6    1
     7     6     7    2
     8     8     1    1
     9     8     9    1
    10     8    12    1
    11     9    46    1
    12     9    10    1
    13    10    11    1
    14    12    11    1
    15    14    13    1
    16    14    15    1
    17    15    18    2
    18    16    17    1
    19    16    15    1
    20    19    14    2
    21    20    21    2
    22    20    19    1
    23    21    26    1
    24    22    21    1
    25    23    22    1
    26    24    23    1
    27    24    25    1
    28    26    27    1
    29    26    13    2
    30    28    31    1
    31    28    41    1
    32    29    43    1
    33    30    37    1
    34    30    29    2
    35    31    13    1
    36    31    40    1
    37    32    30    1
    38    33    38    1
    39    34    42    1
    40    37    44    1
    41    38    46    1
    42    39    32    2
    43    39    34    1
    44    40    38    1
    45    41    36    1
    46    41    33    1
    47    42    29    1
    48    42    35    2
    49    44    43    2
    50    45    37    1
    51    46    45    1
