@<TRIPOS>MOLECULE
outputs/IAG933/test6/raw/output_8309_IAG933_linker_design_.xyz
 44 47 0 0 0
SMALL
GASTEIGER

@<TRIPOS>ATOM
      1 C         -24.8550   -1.0120   30.1430 C.3     1  UNL1        0.1226
      2 C         -24.9730   -2.5050   29.7880 C.2     1  UNL1       -0.0021
      3 C         -23.9060   -3.1730   29.1460 C.2     1  UNL1       -0.0026
      4 C         -23.9890   -4.5490   28.8530 C.2     1  UNL1       -0.0003
      5 C         -25.1370   -5.2800   29.2050 C.2     1  UNL1       -0.0000
      6 C         -26.2320   -4.6110   29.7840 C.2     1  UNL1       -0.0003
      7 C         -26.1550   -3.2320   30.0650 C.2     1  UNL1       -0.0026
      8 C         -25.3870   -0.6790   31.5710 C.3     1  UNL1        0.1290
      9 C         -25.1890    0.7730   32.0280 C.2     1  UNL1        0.0514
     10 C         -25.3360    0.6840   33.5440 C.3     1  UNL1        0.0592
     11 C         -24.8290   -0.7150   33.9050 C.3     1  UNL1        0.0949
     12 N         -24.7580   -1.4810   32.6460 N.3     1  UNL1       -0.2116
     13 C         -25.6880    1.6140   26.4610 C.3     1  UNL1        0.0924
     14 C         -26.2500    2.9200   26.3950 C.2     1  UNL1        0.0589
     15 C         -25.6420    4.0930   27.1230 C.2     1  UNL1        0.2628
     16 N         -25.6140    5.2520   26.4490 N.am    1  UNL1       -0.2000
     17 C         -25.0260    6.4790   26.9630 C.3     1  UNL1        0.1388
     18 O         -25.1430    3.9660   28.2430 O.2     1  UNL1       -0.2686
     19 C         -27.4380    3.0910   25.6450 C.2     1  UNL1        0.1025
     20 N         -28.0750    2.0890   25.0030 N.2     1  UNL1       -0.2118
     21 C         -27.5430    0.8490   25.0790 C.2     1  UNL1        0.2344
     22 O         -28.1930   -0.2080   24.4770 O.2     1  UNL1       -0.4585
     23 C         -29.4600    0.0050   23.8660 C.3     1  UNL1        0.2423
     24 C         -30.0650   -1.3770   23.5730 C.3     1  UNL1        0.2292
     25 O         -30.7290   -1.8780   24.7210 O.3     1  UNL1       -0.2162
     26 C         -26.3540    0.5760   25.7770 C.3     1  UNL1        0.2440
     27 F         -25.8600   -0.6810   25.7950 F       1  UNL1       -0.2265
     28 N         -25.0883    2.0258   31.3014 N.am    1  UNL1       -0.1496
     29 C         -21.8900    1.4781   27.3001 C.3     1  UNL1        0.3527
     30 C         -23.4740    0.5662   28.9385 C.2     1  UNL1        0.0934
     31 O         -22.5635    0.5708   29.8804 O.2     1  UNL1       -0.5375
     32 C         -24.9237    3.2300   31.9021 C.2     1  UNL1        0.4249
     33 C         -26.1076    6.2619   32.5149 C.3     1  UNL1        0.0513
     34 C         -23.2534    1.2432   27.6528 C.2     1  UNL1        0.0696
     35 C         -23.7484    2.1189   25.5046 C.2     1  UNL1        0.0363
     36 C         -25.7395    4.9936   33.2678 C.3     1  UNL1        0.2103
     37 O         -23.8242    3.7865   31.9427 O.2     1  UNL1       -0.2242
     38 F         -20.8358    1.1566   28.0788 F       1  UNL1       -0.1832
     39 O         -25.3420   -0.1981   28.0594 O.3     1  UNL1       -0.4193
     40 C         -24.2324    1.5902   26.6408 C.2     1  UNL1       -0.0080
     41 N         -24.5524   -0.1043   29.1295 N.am    1  UNL1       -0.2768
     42 O         -21.5119    1.9703   26.1381 O.2     1  UNL1       -0.4429
     43 O         -25.9505    3.8074   32.4696 O.3     1  UNL1       -0.4333
     44 C         -22.4018    2.2419   25.2124 C.2     1  UNL1        0.1753
@<TRIPOS>BOND
     1     1    41    1
     2     2     7    1
     3     2     1    1
     4     3     2    2
     5     4     3    1
     6     4     5    2
     7     5     6    1
     8     6     7    2
     9     8     1    1
    10     8     9    1
    11     8    12    1
    12     9    10    1
    13    10    11    1
    14    12    11    1
    15    13    40    1
    16    14    13    1
    17    14    15    1
    18    15    18    2
    19    16    17    1
    20    16    15    1
    21    19    14    2
    22    20    21    2
    23    20    19    1
    24    21    26    1
    25    22    21    1
    26    23    22    1
    27    24    23    1
    28    24    25    1
    29    26    27    1
    30    26    13    1
    31    28    32    1
    32    28     9    2
    33    29    34    1
    34    29    38    1
    35    30    41   am
    36    30    31    2
    37    32    37    2
    38    32    43    1
    39    33    36    1
    40    34    30    1
    41    35    40    1
    42    39    41    1
    43    40    34    2
    44    42    29    1
    45    43    36    1
    46    44    35    2
    47    44    42    1
