@<TRIPOS>MOLECULE
outputs/IAG933/test6/raw/output_8310_IAG933_linker_design_.xyz
 46 51 0 0 0
SMALL
GASTEIGER

@<TRIPOS>ATOM
      1 C         -24.8550   -1.0120   30.1430 C.3     1  UNL1        0.1532
      2 C         -24.9730   -2.5050   29.7880 C.2     1  UNL1        0.0059
      3 C         -23.9060   -3.1730   29.1460 C.2     1  UNL1       -0.0019
      4 C         -23.9890   -4.5490   28.8530 C.2     1  UNL1       -0.0002
      5 C         -25.1370   -5.2800   29.2050 C.2     1  UNL1       -0.0000
      6 C         -26.2320   -4.6110   29.7840 C.2     1  UNL1       -0.0002
      7 C         -26.1550   -3.2320   30.0650 C.2     1  UNL1       -0.0019
      8 C         -25.3870   -0.6790   31.5710 C.3     1  UNL1        0.1041
      9 C         -25.1890    0.7730   32.0280 C.3     1  UNL1        0.0217
     10 C         -25.3360    0.6840   33.5440 C.3     1  UNL1        0.0203
     11 C         -24.8290   -0.7150   33.9050 C.3     1  UNL1        0.0888
     12 N         -24.7580   -1.4810   32.6460 N.3     1  UNL1       -0.2166
     13 C         -25.6880    1.6140   26.4610 C.3     1  UNL1        0.0769
     14 C         -26.2500    2.9200   26.3950 C.2     1  UNL1        0.0529
     15 C         -25.6420    4.0930   27.1230 C.2     1  UNL1        0.2200
     16 N         -25.6140    5.2520   26.4490 N.2     1  UNL1       -0.2359
     17 C         -25.0260    6.4790   26.9630 C.3     1  UNL1        0.1550
     18 O         -25.1430    3.9660   28.2430 O.2     1  UNL1       -0.4367
     19 C         -27.4380    3.0910   25.6450 C.2     1  UNL1        0.1022
     20 N         -28.0750    2.0890   25.0030 N.2     1  UNL1       -0.2119
     21 C         -27.5430    0.8490   25.0790 C.2     1  UNL1        0.2341
     22 O         -28.1930   -0.2080   24.4770 O.2     1  UNL1       -0.4585
     23 C         -29.4600    0.0050   23.8660 C.3     1  UNL1        0.2423
     24 C         -30.0650   -1.3770   23.5730 C.3     1  UNL1        0.2292
     25 O         -30.7290   -1.8780   24.7210 O.3     1  UNL1       -0.2162
     26 C         -26.3540    0.5760   25.7770 C.3     1  UNL1        0.2402
     27 F         -25.8600   -0.6810   25.7950 F       1  UNL1       -0.2269
     28 C         -21.3997    0.2751   29.1943 C.2     1  UNL1        0.0171
     29 N         -27.2183    4.3216   32.5516 N.3     1  UNL1       -0.2705
     30 O         -21.1603    1.8501   27.4110 O.3     1  UNL1       -0.4213
     31 C         -25.5590    3.6478   30.8106 C.3     1  UNL1        0.1617
     32 O         -24.9116   -0.2922   28.9224 O.3     1  UNL1       -0.3520
     33 C         -23.6452    0.2892   28.6103 C.3     1  UNL1        0.1308
     34 C         -20.6319    1.0176   28.3803 C.2     1  UNL1        0.1783
     35 C         -28.4709    4.9163   30.9361 C.3     1  UNL1        0.0188
     36 C         -27.9540    3.4399   30.7113 C.3     1  UNL1        0.0200
     37 C         -22.3746    1.7002   26.8518 C.2     1  UNL1        0.3236
     38 C         -28.4453    3.9142   33.3490 C.3     1  UNL1        0.0897
     39 C         -22.7435    0.1868   29.4692 C.3     1  UNL1        0.0594
     40 C         -23.5217    1.2369   27.5918 C.3     1  UNL1        0.1333
     41 C         -26.7122    3.3496   31.7333 C.3     1  UNL1        0.0875
     42 C         -25.0377    2.7057   28.6526 C.3     1  UNL1        0.2899
     43 C         -24.6600    1.6744   27.5640 C.3     1  UNL1        0.0906
     44 O         -25.2909    2.4852   30.0595 O.3     1  UNL1       -0.3191
     45 C         -27.3844    5.5906   31.7462 C.3     1  UNL1        0.0722
     46 O         -22.4527    2.0566   25.6079 O.2     1  UNL1       -0.2496
@<TRIPOS>BOND
     1     1    32    1
     2     2     7    1
     3     2     1    1
     4     3     2    2
     5     4     3    1
     6     4     5    2
     7     5     6    1
     8     6     7    2
     9     8     1    1
    10     8     9    1
    11     8    12    1
    12     9    10    1
    13    10    11    1
    14    12    11    1
    15    13    14    1
    16    13    43    1
    17    14    15    1
    18    15    18    1
    19    16    17    1
    20    16    15    2
    21    18    42    1
    22    19    14    2
    23    20    21    2
    24    20    19    1
    25    21    26    1
    26    22    21    1
    27    23    22    1
    28    24    23    1
    29    24    25    1
    30    26    27    1
    31    26    13    1
    32    28    39    1
    33    29    38    1
    34    30    34    1
    35    33    32    1
    36    33    39    1
    37    34    28    2
    38    35    45    1
    39    36    35    1
    40    36    41    1
    41    37    30    1
    42    40    37    1
    43    40    33    1
    44    41    31    1
    45    41    29    1
    46    42    44    1
    47    43    40    1
    48    43    42    1
    49    44    31    1
    50    45    29    1
    51    46    37    2
