@<TRIPOS>MOLECULE
outputs/IAG933/test6/raw/output_8315_IAG933_linker_design_.xyz
 42 46 0 0 0
SMALL
GASTEIGER

@<TRIPOS>ATOM
      1 C         -24.8550   -1.0120   30.1430 C.3     1  UNL1        0.0531
      2 C         -24.9730   -2.5050   29.7880 C.2     1  UNL1       -0.0198
      3 C         -23.9060   -3.1730   29.1460 C.2     1  UNL1       -0.0042
      4 C         -23.9890   -4.5490   28.8530 C.2     1  UNL1       -0.0003
      5 C         -25.1370   -5.2800   29.2050 C.2     1  UNL1       -0.0000
      6 C         -26.2320   -4.6110   29.7840 C.2     1  UNL1       -0.0003
      7 C         -26.1550   -3.2320   30.0650 C.2     1  UNL1       -0.0042
      8 C         -25.3870   -0.6790   31.5710 C.3     1  UNL1        0.0781
      9 C         -25.1890    0.7730   32.0280 C.3     1  UNL1        0.0192
     10 C         -25.3360    0.6840   33.5440 C.3     1  UNL1        0.0202
     11 C         -24.8290   -0.7150   33.9050 C.3     1  UNL1        0.0887
     12 N         -24.7580   -1.4810   32.6460 N.3     1  UNL1       -0.2191
     13 C         -25.6880    1.6140   26.4610 C.2     1  UNL1        0.0602
     14 C         -26.2500    2.9200   26.3950 C.2     1  UNL1        0.0763
     15 C         -25.6420    4.0930   27.1230 C.2     1  UNL1        0.2662
     16 N         -25.6140    5.2520   26.4490 N.am    1  UNL1       -0.1997
     17 C         -25.0260    6.4790   26.9630 C.3     1  UNL1        0.1388
     18 O         -25.1430    3.9660   28.2430 O.2     1  UNL1       -0.2683
     19 C         -27.4380    3.0910   25.6450 C.2     1  UNL1        0.1065
     20 N         -28.0750    2.0890   25.0030 N.2     1  UNL1       -0.2081
     21 C         -27.5430    0.8490   25.0790 C.2     1  UNL1        0.2531
     22 O         -28.1930   -0.2080   24.4770 O.2     1  UNL1       -0.4558
     23 C         -29.4600    0.0050   23.8660 C.3     1  UNL1        0.2426
     24 C         -30.0650   -1.3770   23.5730 C.3     1  UNL1        0.2292
     25 O         -30.7290   -1.8780   24.7210 O.3     1  UNL1       -0.2162
     26 C         -26.3540    0.5760   25.7770 C.2     1  UNL1        0.1928
     27 F         -25.8600   -0.6810   25.7950 F       1  UNL1       -0.1994
     28 C         -29.4809    1.4828   32.0998 C.3     1  UNL1        0.0495
     29 C         -25.4237    0.0452   29.1320 C.3     1  UNL1        0.0680
     30 C         -30.7179    1.9838   31.2703 C.3     1  UNL1        0.1453
     31 N         -28.5592    0.5578   29.9199 N.3     1  UNL1       -0.2476
     32 N         -22.3181    1.5888   27.8158 N.3     1  UNL1       -0.1460
     33 O         -23.1926    1.7160   26.7161 O.3     1  UNL1       -0.2621
     34 C         -20.9129    1.2977   27.6262 C.3     1  UNL1        0.1225
     35 C         -27.9468   -0.4537   29.0867 C.3     1  UNL1        0.0757
     36 C         -26.7250   -0.2467   28.5280 C.3     1  UNL1        0.0339
     37 N         -24.4360    0.5494   28.2476 N.3     1  UNL1       -0.2306
     38 C         -24.3179    1.1415   27.0295 C.3     1  UNL1        0.2246
     39 C         -29.5660    1.3736   29.1219 C.3     1  UNL1        0.2199
     40 O         -30.1724    2.3815   29.9709 O.3     1  UNL1       -0.3373
     41 C         -29.0413    0.2304   31.3051 C.3     1  UNL1        0.0769
     42 C         -23.0249    0.5034   28.7247 C.3     1  UNL1        0.1777
@<TRIPOS>BOND
     1     1    29    1
     2     2     7    1
     3     2     1    1
     4     3     2    2
     5     4     3    1
     6     4     5    2
     7     5     6    1
     8     6     7    2
     9     8     1    1
    10     8     9    1
    11     8    12    1
    12     9    10    1
    13    10    11    1
    14    12    11    1
    15    14    13    1
    16    14    15    1
    17    15    18    2
    18    16    17    1
    19    16    15    1
    20    19    14    2
    21    20    21    2
    22    20    19    1
    23    21    26    1
    24    22    21    1
    25    23    22    1
    26    24    23    1
    27    24    25    1
    28    26    27    1
    29    26    13    2
    30    29    36    1
    31    30    28    1
    32    31    41    1
    33    32    42    1
    34    33    38    1
    35    33    32    1
    36    34    32    1
    37    35    31    1
    38    36    35    1
    39    37    42    1
    40    37    29    1
    41    38    13    1
    42    38    37    1
    43    39    31    1
    44    39    40    1
    45    40    30    1
    46    41    28    1
