@<TRIPOS>MOLECULE
outputs/IAG933/test6/raw/output_8317_IAG933_linker_design_.xyz
 41 45 0 0 0
SMALL
GASTEIGER

@<TRIPOS>ATOM
      1 C         -24.8550   -1.0120   30.1430 C.3     1  UNL1        0.0511
      2 C         -24.9730   -2.5050   29.7880 C.2     1  UNL1       -0.0204
      3 C         -23.9060   -3.1730   29.1460 C.2     1  UNL1       -0.0042
      4 C         -23.9890   -4.5490   28.8530 C.2     1  UNL1       -0.0003
      5 C         -25.1370   -5.2800   29.2050 C.2     1  UNL1       -0.0000
      6 C         -26.2320   -4.6110   29.7840 C.2     1  UNL1       -0.0003
      7 C         -26.1550   -3.2320   30.0650 C.2     1  UNL1       -0.0042
      8 C         -25.3870   -0.6790   31.5710 C.3     1  UNL1        0.0776
      9 C         -25.1890    0.7730   32.0280 C.3     1  UNL1        0.0192
     10 C         -25.3360    0.6840   33.5440 C.3     1  UNL1        0.0202
     11 C         -24.8290   -0.7150   33.9050 C.3     1  UNL1        0.0887
     12 N         -24.7580   -1.4810   32.6460 N.3     1  UNL1       -0.2191
     13 C         -25.6880    1.6140   26.4610 C.3     1  UNL1        0.1497
     14 C         -26.2500    2.9200   26.3950 C.2     1  UNL1        0.0734
     15 C         -25.6420    4.0930   27.1230 C.2     1  UNL1        0.2640
     16 N         -25.6140    5.2520   26.4490 N.am    1  UNL1       -0.1999
     17 C         -25.0260    6.4790   26.9630 C.3     1  UNL1        0.1388
     18 O         -25.1430    3.9660   28.2430 O.2     1  UNL1       -0.2686
     19 C         -27.4380    3.0910   25.6450 C.2     1  UNL1        0.1038
     20 N         -28.0750    2.0890   25.0030 N.2     1  UNL1       -0.2118
     21 C         -27.5430    0.8490   25.0790 C.2     1  UNL1        0.2359
     22 O         -28.1930   -0.2080   24.4770 O.2     1  UNL1       -0.4585
     23 C         -29.4600    0.0050   23.8660 C.3     1  UNL1        0.2423
     24 C         -30.0650   -1.3770   23.5730 C.3     1  UNL1        0.2292
     25 O         -30.7290   -1.8780   24.7210 O.3     1  UNL1       -0.2162
     26 C         -26.3540    0.5760   25.7770 C.3     1  UNL1        0.2584
     27 F         -25.8600   -0.6810   25.7950 F       1  UNL1       -0.2250
     28 C         -23.1731    2.0227   25.3074 C.2     1  UNL1        0.4671
     29 C         -21.1390   -0.0041   28.9050 C.2     1  UNL1        0.0011
     30 O         -23.9603    1.2089   24.7628 O.co2   1  UNL1       -0.2203
     31 N         -25.0070    1.1883   27.5620 N.am    1  UNL1       -0.2517
     32 C         -23.6086    1.0919   27.7004 C.2     1  UNL1        0.0661
     33 C         -22.2312    1.2717   27.2152 C.2     1  UNL1        0.0901
     34 N         -22.0221    1.7544   26.0389 N.am    1  UNL1       -0.1382
     35 O         -23.3191    3.2194   25.3878 O.co2   1  UNL1       -0.2203
     36 O         -26.9592    0.3890   28.6309 O.2     1  UNL1       -0.2742
     37 C         -21.0547    0.8661   27.8435 C.2     1  UNL1        0.0180
     38 C         -25.6974    0.5659   28.5960 C.2     1  UNL1        0.2337
     39 C         -23.5369    0.2583   28.7806 C.2     1  UNL1        0.0015
     40 C         -22.3802   -0.2930   29.3858 C.2     1  UNL1       -0.0025
     41 C         -24.7272   -0.0384   29.2782 C.3     1  UNL1        0.1058
@<TRIPOS>BOND
     1     1     2    1
     2     2     7    1
     3     3     2    2
     4     4     3    1
     5     4     5    2
     6     5     6    1
     7     6     7    2
     8     8     1    1
     9     8     9    1
    10     8    12    1
    11     9    10    1
    12    10    11    1
    13    12    11    1
    14    13    31    1
    15    14    13    1
    16    14    15    1
    17    15    18    2
    18    16    17    1
    19    16    15    1
    20    19    14    2
    21    20    21    2
    22    20    19    1
    23    21    26    1
    24    22    21    1
    25    23    22    1
    26    24    23    1
    27    24    25    1
    28    26    27    1
    29    26    13    1
    30    28    35   ar
    31    28    34    1
    32    29    40    1
    33    30    28   ar
    34    31    32    1
    35    31    38   am
    36    32    39    1
    37    33    32    2
    38    33    37    1
    39    34    33    1
    40    37    29    2
    41    38    36    2
    42    38    41    1
    43    39    41    1
    44    39    40    2
    45    41     1    1
