@<TRIPOS>MOLECULE
outputs/IAG933/test6/raw/output_8318_IAG933_linker_design_.xyz
 41 45 0 0 0
SMALL
GASTEIGER

@<TRIPOS>ATOM
      1 C         -24.8550   -1.0120   30.1430 C.3     1  UNL1        0.0883
      2 C         -24.9730   -2.5050   29.7880 C.2     1  UNL1       -0.0170
      3 C         -23.9060   -3.1730   29.1460 C.2     1  UNL1       -0.0041
      4 C         -23.9890   -4.5490   28.8530 C.2     1  UNL1       -0.0003
      5 C         -25.1370   -5.2800   29.2050 C.2     1  UNL1       -0.0000
      6 C         -26.2320   -4.6110   29.7840 C.2     1  UNL1       -0.0003
      7 C         -26.1550   -3.2320   30.0650 C.2     1  UNL1       -0.0041
      8 C         -25.3870   -0.6790   31.5710 C.3     1  UNL1        0.0810
      9 C         -25.1890    0.7730   32.0280 C.3     1  UNL1        0.0193
     10 C         -25.3360    0.6840   33.5440 C.3     1  UNL1        0.0202
     11 C         -24.8290   -0.7150   33.9050 C.3     1  UNL1        0.0887
     12 N         -24.7580   -1.4810   32.6460 N.3     1  UNL1       -0.2190
     13 C         -25.6880    1.6140   26.4610 C.3     1  UNL1        0.0791
     14 C         -26.2500    2.9200   26.3950 C.2     1  UNL1        0.0553
     15 C         -25.6420    4.0930   27.1230 C.2     1  UNL1        0.2625
     16 N         -25.6140    5.2520   26.4490 N.am    1  UNL1       -0.2000
     17 C         -25.0260    6.4790   26.9630 C.3     1  UNL1        0.1388
     18 O         -25.1430    3.9660   28.2430 O.2     1  UNL1       -0.2687
     19 C         -27.4380    3.0910   25.6450 C.2     1  UNL1        0.1022
     20 N         -28.0750    2.0890   25.0030 N.2     1  UNL1       -0.2119
     21 C         -27.5430    0.8490   25.0790 C.2     1  UNL1        0.2341
     22 O         -28.1930   -0.2080   24.4770 O.2     1  UNL1       -0.4585
     23 C         -29.4600    0.0050   23.8660 C.3     1  UNL1        0.2423
     24 C         -30.0650   -1.3770   23.5730 C.3     1  UNL1        0.2292
     25 O         -30.7290   -1.8780   24.7210 O.3     1  UNL1       -0.2162
     26 C         -26.3540    0.5760   25.7770 C.3     1  UNL1        0.2405
     27 F         -25.8600   -0.6810   25.7950 F       1  UNL1       -0.2269
     28 C         -22.2849    1.6804   27.0175 C.2     1  UNL1        0.1602
     29 C         -23.6235    1.2484   27.3705 C.2     1  UNL1        0.0650
     30 N         -24.1297    0.6937   28.5205 N.pl3   1  UNL1       -0.2588
     31 O         -22.5277    0.6195   29.9363 O.3     1  UNL1       -0.3335
     32 C         -23.5334    1.7477   25.3253 C.3     1  UNL1        0.2111
     33 C         -24.3220    1.4832   26.4392 C.3     1  UNL1        0.0897
     34 C         -21.9178    0.2620   28.7195 C.3     1  UNL1        0.1571
     35 O         -26.1376   -0.5112   28.1943 O.3     1  UNL1       -0.2002
     36 F         -20.1142    1.5488   27.8976 F       1  UNL1       -0.2264
     37 C         -23.3247    1.1630   29.5441 C.3     1  UNL1        0.2420
     38 C         -21.3881    1.2806   27.7622 C.3     1  UNL1        0.2445
     39 O         -22.1908    2.0257   25.7162 O.2     1  UNL1       -0.4756
     40 C         -25.2820   -0.0147   29.0904 C.3     1  UNL1        0.2350
     41 C         -20.6180   -0.4843   29.2795 C.3     1  UNL1        0.0355
@<TRIPOS>BOND
     1     1    40    1
     2     2     7    1
     3     2     1    1
     4     3     2    2
     5     4     3    1
     6     4     5    2
     7     5     6    1
     8     6     7    2
     9     8     1    1
    10     8     9    1
    11     8    12    1
    12     9    10    1
    13    10    11    1
    14    12    11    1
    15    13    14    1
    16    14    15    1
    17    15    18    2
    18    16    17    1
    19    16    15    1
    20    19    14    2
    21    20    21    2
    22    20    19    1
    23    21    26    1
    24    22    21    1
    25    23    22    1
    26    24    23    1
    27    24    25    1
    28    26    27    1
    29    26    13    1
    30    28    29    2
    31    28    38    1
    32    29    30    1
    33    30    40    1
    34    30    37    1
    35    32    39    1
    36    33    32    1
    37    33    13    1
    38    33    29    1
    39    34    41    1
    40    34    31    1
    41    37    31    1
    42    38    36    1
    43    38    34    1
    44    39    28    1
    45    40    35    1
