@<TRIPOS>MOLECULE
outputs/IAG933/test6/raw/output_8327_IAG933_linker_design_.xyz
 44 48 0 0 0
SMALL
GASTEIGER

@<TRIPOS>ATOM
      1 C         -24.8550   -1.0120   30.1430 C.3     1  UNL1        0.0698
      2 C         -24.9730   -2.5050   29.7880 C.2     1  UNL1       -0.0184
      3 C         -23.9060   -3.1730   29.1460 C.2     1  UNL1       -0.0041
      4 C         -23.9890   -4.5490   28.8530 C.2     1  UNL1       -0.0003
      5 C         -25.1370   -5.2800   29.2050 C.2     1  UNL1       -0.0000
      6 C         -26.2320   -4.6110   29.7840 C.2     1  UNL1       -0.0003
      7 C         -26.1550   -3.2320   30.0650 C.2     1  UNL1       -0.0041
      8 C         -25.3870   -0.6790   31.5710 C.3     1  UNL1        0.0795
      9 C         -25.1890    0.7730   32.0280 C.3     1  UNL1        0.0193
     10 C         -25.3360    0.6840   33.5440 C.3     1  UNL1        0.0202
     11 C         -24.8290   -0.7150   33.9050 C.3     1  UNL1        0.0887
     12 N         -24.7580   -1.4810   32.6460 N.3     1  UNL1       -0.2190
     13 C         -25.6880    1.6140   26.4610 C.2     1  UNL1        0.0388
     14 C         -26.2500    2.9200   26.3950 C.2     1  UNL1        0.0766
     15 C         -25.6420    4.0930   27.1230 C.2     1  UNL1        0.2664
     16 N         -25.6140    5.2520   26.4490 N.am    1  UNL1       -0.1997
     17 C         -25.0260    6.4790   26.9630 C.3     1  UNL1        0.1388
     18 O         -25.1430    3.9660   28.2430 O.2     1  UNL1       -0.2683
     19 C         -27.4380    3.0910   25.6450 C.2     1  UNL1        0.1067
     20 N         -28.0750    2.0890   25.0030 N.2     1  UNL1       -0.2081
     21 C         -27.5430    0.8490   25.0790 C.2     1  UNL1        0.2533
     22 O         -28.1930   -0.2080   24.4770 O.2     1  UNL1       -0.4558
     23 C         -29.4600    0.0050   23.8660 C.3     1  UNL1        0.2426
     24 C         -30.0650   -1.3770   23.5730 C.3     1  UNL1        0.2292
     25 O         -30.7290   -1.8780   24.7210 O.3     1  UNL1       -0.2162
     26 C         -26.3540    0.5760   25.7770 C.2     1  UNL1        0.1931
     27 F         -25.8600   -0.6810   25.7950 F       1  UNL1       -0.1992
     28 C         -30.2600    2.1474   28.4427 C.3     1  UNL1        0.0330
     29 C         -24.5014    1.3366   27.2847 C.2     1  UNL1        0.0146
     30 O         -22.3956   -0.0821   29.5993 O.2     1  UNL1       -0.2868
     31 C         -24.3842    0.5839   28.3848 C.2     1  UNL1        0.0448
     32 C         -22.9280    0.5489   28.6262 C.2     1  UNL1        0.1948
     33 CL        -22.8412    2.5453   25.2173 Cl      1  UNL1       -0.0821
     34 C         -29.1233   -0.0245   28.3644 C.3     1  UNL1        0.0028
     35 O         -32.2868    1.2476   27.7328 O.3     1  UNL1       -0.2232
     36 O         -26.7233    0.8629   29.0690 O.3     1  UNL1       -0.3514
     37 C         -22.1947    1.2768   27.7224 C.2     1  UNL1        0.0531
     38 C         -27.2204    1.9558   30.0116 C.3     1  UNL1        0.1425
     39 C         -30.9353    1.3163   27.4328 C.3     1  UNL1        0.1520
     40 C         -29.6209    1.0380   29.3904 C.3     1  UNL1        0.0051
     41 C         -30.2618   -0.0422   27.3469 C.3     1  UNL1        0.0329
     42 C         -25.5500   -0.0866   29.0950 C.3     1  UNL1        0.1458
     43 C         -23.1403    1.8261   26.8124 C.2     1  UNL1        0.0608
     44 C         -28.7155    1.8423   30.3606 C.3     1  UNL1        0.0322
@<TRIPOS>BOND
     1     1    42    1
     2     2     7    1
     3     2     1    1
     4     3     2    2
     5     4     3    1
     6     4     5    2
     7     5     6    1
     8     6     7    2
     9     8     1    1
    10     8     9    1
    11     8    12    1
    12     9    10    1
    13    10    11    1
    14    12    11    1
    15    13    29    1
    16    14    13    1
    17    14    15    1
    18    15    18    2
    19    16    17    1
    20    16    15    1
    21    19    14    2
    22    20    21    2
    23    20    19    1
    24    21    26    1
    25    22    21    1
    26    23    22    1
    27    24    23    1
    28    24    25    1
    29    26    27    1
    30    26    13    2
    31    28    40    1
    32    29    31    2
    33    31    32    1
    34    31    42    1
    35    32    30    2
    36    33    43    1
    37    34    40    1
    38    36    38    1
    39    37    32    1
    40    38    44    1
    41    39    35    1
    42    39    28    1
    43    40    44    1
    44    41    39    1
    45    41    34    1
    46    42    36    1
    47    43    29    1
    48    43    37    2
