@<TRIPOS>MOLECULE
outputs/IAG933/test6/raw/output_8328_IAG933_linker_design_.xyz
 40 43 0 0 0
SMALL
GASTEIGER

@<TRIPOS>ATOM
      1 C         -24.8550   -1.0120   30.1430 C.3     1  UNL1        0.0622
      2 C         -24.9730   -2.5050   29.7880 C.2     1  UNL1       -0.0192
      3 C         -23.9060   -3.1730   29.1460 C.2     1  UNL1       -0.0042
      4 C         -23.9890   -4.5490   28.8530 C.2     1  UNL1       -0.0003
      5 C         -25.1370   -5.2800   29.2050 C.2     1  UNL1       -0.0000
      6 C         -26.2320   -4.6110   29.7840 C.2     1  UNL1       -0.0003
      7 C         -26.1550   -3.2320   30.0650 C.2     1  UNL1       -0.0042
      8 C         -25.3870   -0.6790   31.5710 C.3     1  UNL1        0.0788
      9 C         -25.1890    0.7730   32.0280 C.3     1  UNL1        0.0193
     10 C         -25.3360    0.6840   33.5440 C.3     1  UNL1        0.0202
     11 C         -24.8290   -0.7150   33.9050 C.3     1  UNL1        0.0887
     12 N         -24.7580   -1.4810   32.6460 N.3     1  UNL1       -0.2191
     13 C         -25.6880    1.6140   26.4610 C.2     1  UNL1        0.0376
     14 C         -26.2500    2.9200   26.3950 C.2     1  UNL1        0.0765
     15 C         -25.6420    4.0930   27.1230 C.2     1  UNL1        0.2664
     16 N         -25.6140    5.2520   26.4490 N.am    1  UNL1       -0.1997
     17 C         -25.0260    6.4790   26.9630 C.3     1  UNL1        0.1388
     18 O         -25.1430    3.9660   28.2430 O.2     1  UNL1       -0.2683
     19 C         -27.4380    3.0910   25.6450 C.2     1  UNL1        0.1067
     20 N         -28.0750    2.0890   25.0030 N.2     1  UNL1       -0.2081
     21 C         -27.5430    0.8490   25.0790 C.2     1  UNL1        0.2533
     22 O         -28.1930   -0.2080   24.4770 O.2     1  UNL1       -0.4558
     23 C         -29.4600    0.0050   23.8660 C.3     1  UNL1        0.2426
     24 C         -30.0650   -1.3770   23.5730 C.3     1  UNL1        0.2292
     25 O         -30.7290   -1.8780   24.7210 O.3     1  UNL1       -0.2162
     26 C         -26.3540    0.5760   25.7770 C.2     1  UNL1        0.1930
     27 F         -25.8600   -0.6810   25.7950 F       1  UNL1       -0.1992
     28 O         -28.2782    1.7705   29.3993 O.2     1  UNL1       -0.2705
     29 O         -29.3342    0.0660   27.9933 O.3     1  UNL1       -0.2098
     30 F         -21.1298    1.9349   26.9511 F       1  UNL1       -0.2070
     31 C         -24.1135    0.7025   28.2944 C.2     1  UNL1       -0.0006
     32 C         -28.4784   -0.5238   29.0181 C.3     1  UNL1        0.2680
     33 C         -23.3237    1.8140   26.2673 C.2     1  UNL1        0.0265
     34 N         -26.3337    0.7041   29.2169 N.am    1  UNL1       -0.2004
     35 C         -24.4289    1.3906   26.9243 C.2     1  UNL1       -0.0001
     36 C         -25.0555    0.1287   29.1523 C.3     1  UNL1        0.1207
     37 C         -27.6644    0.7811   29.2842 C.2     1  UNL1        0.2753
     38 C         -22.8061    0.9338   28.3321 C.3     1  UNL1        0.1614
     39 N         -21.9688    0.6202   29.4301 N.3     1  UNL1       -0.1211
     40 C         -22.3990    1.5641   27.1679 C.2     1  UNL1        0.1389
@<TRIPOS>BOND
     1     1    36    1
     2     2     7    1
     3     2     1    1
     4     3     2    2
     5     4     3    1
     6     4     5    2
     7     5     6    1
     8     6     7    2
     9     8     1    1
    10     8     9    1
    11     8    12    1
    12     9    10    1
    13    10    11    1
    14    12    11    1
    15    13    35    1
    16    14    13    1
    17    14    15    1
    18    15    18    2
    19    16    17    1
    20    16    15    1
    21    19    14    2
    22    20    21    2
    23    20    19    1
    24    21    26    1
    25    22    21    1
    26    23    22    1
    27    24    23    1
    28    24    25    1
    29    26    27    1
    30    26    13    2
    31    29    32    1
    32    30    40    1
    33    31    38    1
    34    31    36    1
    35    32    37    1
    36    33    35    1
    37    33    40    2
    38    34    37    1
    39    35    31    2
    40    36    34    1
    41    37    28    2
    42    38    39    1
    43    40    38    1
