@<TRIPOS>MOLECULE
outputs/IAG933/test6/raw/output_8329_IAG933_linker_design_.xyz
 44 48 0 0 0
SMALL
GASTEIGER

@<TRIPOS>ATOM
      1 C         -24.8550   -1.0120   30.1430 C.3     1  UNL1        0.1121
      2 C         -24.9730   -2.5050   29.7880 C.2     1  UNL1       -0.0051
      3 C         -23.9060   -3.1730   29.1460 C.2     1  UNL1       -0.0029
      4 C         -23.9890   -4.5490   28.8530 C.2     1  UNL1       -0.0003
      5 C         -25.1370   -5.2800   29.2050 C.2     1  UNL1       -0.0000
      6 C         -26.2320   -4.6110   29.7840 C.2     1  UNL1       -0.0003
      7 C         -26.1550   -3.2320   30.0650 C.2     1  UNL1       -0.0029
      8 C         -25.3870   -0.6790   31.5710 C.3     1  UNL1        0.0929
      9 C         -25.1890    0.7730   32.0280 C.3     1  UNL1        0.0206
     10 C         -25.3360    0.6840   33.5440 C.3     1  UNL1        0.0203
     11 C         -24.8290   -0.7150   33.9050 C.3     1  UNL1        0.0888
     12 N         -24.7580   -1.4810   32.6460 N.3     1  UNL1       -0.2177
     13 C         -25.6880    1.6140   26.4610 C.2     1  UNL1        0.0407
     14 C         -26.2500    2.9200   26.3950 C.2     1  UNL1        0.0744
     15 C         -25.6420    4.0930   27.1230 C.2     1  UNL1        0.2219
     16 N         -25.6140    5.2520   26.4490 N.2     1  UNL1       -0.2357
     17 C         -25.0260    6.4790   26.9630 C.3     1  UNL1        0.1550
     18 O         -25.1430    3.9660   28.2430 O.2     1  UNL1       -0.4614
     19 C         -27.4380    3.0910   25.6450 C.2     1  UNL1        0.1068
     20 N         -28.0750    2.0890   25.0030 N.2     1  UNL1       -0.2081
     21 C         -27.5430    0.8490   25.0790 C.2     1  UNL1        0.2533
     22 O         -28.1930   -0.2080   24.4770 O.2     1  UNL1       -0.4558
     23 C         -29.4600    0.0050   23.8660 C.3     1  UNL1        0.2426
     24 C         -30.0650   -1.3770   23.5730 C.3     1  UNL1        0.2292
     25 O         -30.7290   -1.8780   24.7210 O.3     1  UNL1       -0.2162
     26 C         -26.3540    0.5760   25.7770 C.2     1  UNL1        0.1931
     27 F         -25.8600   -0.6810   25.7950 F       1  UNL1       -0.1992
     28 C         -23.7863    1.1640   29.0043 C.3     1  UNL1        0.0982
     29 N         -25.9858    7.1824   30.9813 N.2     1  UNL1       -0.1919
     30 C         -27.3345    7.1827   31.1451 C.2     1  UNL1        0.1971
     31 O         -22.6352    2.5022   27.0250 O.3     1  UNL1       -0.2188
     32 C         -24.1134    2.2908   29.9526 C.3     1  UNL1        0.0653
     33 C         -25.0147    3.4288   29.4577 C.3     1  UNL1        0.2015
     34 C         -22.3765    0.8054   28.8465 C.3     1  UNL1        0.1393
     35 C         -21.8239    1.3328   27.4582 C.3     1  UNL1        0.2023
     36 C         -25.5902    6.3918   30.6083 C.2     1  UNL1        0.2273
     37 O         -27.0748    2.8050   30.0064 O.3     1  UNL1       -0.2166
     38 C         -26.0282    3.6583   30.6164 C.3     1  UNL1        0.2228
     39 C         -26.4414    5.2154   30.5047 C.3     1  UNL1        0.2140
     40 N         -27.6578    5.8501   30.8816 N.2     1  UNL1       -0.2398
     41 N         -22.6431   -0.6694   29.0413 N.3     1  UNL1       -0.1439
     42 C         -24.1841    8.1648   30.8311 C.3     1  UNL1        0.2540
     43 O         -24.6941    6.8121   30.4924 O.2     1  UNL1       -0.4577
     44 N         -23.5975   -0.2128   29.7593 N.3     1  UNL1       -0.1994
@<TRIPOS>BOND
     1     1     2    1
     2     2     7    1
     3     3     2    2
     4     4     3    1
     5     4     5    2
     6     5     6    1
     7     6     7    2
     8     8     1    1
     9     8     9    1
    10     8    12    1
    11     9    10    1
    12    10    11    1
    13    12    11    1
    14    14    13    1
    15    14    15    1
    16    15    18    1
    17    16    17    1
    18    16    15    2
    19    18    33    1
    20    19    14    2
    21    20    21    2
    22    20    19    1
    23    21    26    1
    24    22    21    1
    25    23    22    1
    26    24    23    1
    27    24    25    1
    28    26    27    1
    29    26    13    2
    30    28    44    1
    31    28    32    1
    32    29    30    1
    33    31    35    1
    34    33    32    1
    35    33    38    1
    36    34    35    1
    37    34    28    1
    38    34    41    1
    39    36    29    2
    40    38    37    1
    41    39    36    1
    42    39    38    1
    43    39    40    1
    44    40    30    2
    45    41    44    1
    46    43    36    1
    47    43    42    1
    48    44     1    1
