@<TRIPOS>MOLECULE
outputs/IAG933/test6/raw/output_8331_IAG933_linker_design_.xyz
 45 49 0 0 0
SMALL
GASTEIGER

@<TRIPOS>ATOM
      1 C         -24.8550   -1.0120   30.1430 C.3     1  UNL1        0.0452
      2 C         -24.9730   -2.5050   29.7880 C.2     1  UNL1       -0.0207
      3 C         -23.9060   -3.1730   29.1460 C.2     1  UNL1       -0.0042
      4 C         -23.9890   -4.5490   28.8530 C.2     1  UNL1       -0.0003
      5 C         -25.1370   -5.2800   29.2050 C.2     1  UNL1       -0.0000
      6 C         -26.2320   -4.6110   29.7840 C.2     1  UNL1       -0.0003
      7 C         -26.1550   -3.2320   30.0650 C.2     1  UNL1       -0.0042
      8 C         -25.3870   -0.6790   31.5710 C.3     1  UNL1        0.0772
      9 C         -25.1890    0.7730   32.0280 C.3     1  UNL1        0.0192
     10 C         -25.3360    0.6840   33.5440 C.3     1  UNL1        0.0202
     11 C         -24.8290   -0.7150   33.9050 C.3     1  UNL1        0.0887
     12 N         -24.7580   -1.4810   32.6460 N.3     1  UNL1       -0.2191
     13 C         -25.6880    1.6140   26.4610 C.3     1  UNL1        0.0702
     14 C         -26.2500    2.9200   26.3950 C.2     1  UNL1        0.0526
     15 C         -25.6420    4.0930   27.1230 C.2     1  UNL1        0.2178
     16 N         -25.6140    5.2520   26.4490 N.2     1  UNL1       -0.2359
     17 C         -25.0260    6.4790   26.9630 C.3     1  UNL1        0.1550
     18 O         -25.1430    3.9660   28.2430 O.2     1  UNL1       -0.4606
     19 C         -27.4380    3.0910   25.6450 C.2     1  UNL1        0.1022
     20 N         -28.0750    2.0890   25.0030 N.2     1  UNL1       -0.2119
     21 C         -27.5430    0.8490   25.0790 C.2     1  UNL1        0.2341
     22 O         -28.1930   -0.2080   24.4770 O.2     1  UNL1       -0.4585
     23 C         -29.4600    0.0050   23.8660 C.3     1  UNL1        0.2423
     24 C         -30.0650   -1.3770   23.5730 C.3     1  UNL1        0.2292
     25 O         -30.7290   -1.8780   24.7210 O.3     1  UNL1       -0.2162
     26 C         -26.3540    0.5760   25.7770 C.3     1  UNL1        0.2400
     27 F         -25.8600   -0.6810   25.7950 F       1  UNL1       -0.2269
     28 O         -21.2997    1.5290   26.4459 O.3     1  UNL1       -0.3275
     29 C         -25.2182    0.9873   28.7180 C.3     1  UNL1        0.0113
     30 O         -27.9109   -1.3353   28.6817 O.2     1  UNL1       -0.2961
     31 C         -22.7252    1.6416   26.6781 C.3     1  UNL1        0.2379
     32 C         -24.8185    2.1484   29.5509 C.3     1  UNL1        0.0445
     33 C         -23.2991    2.1644   29.6911 C.3     1  UNL1        0.0116
     34 O         -23.5051    1.7843   25.4911 O.3     1  UNL1       -0.3277
     35 C         -28.1083    1.0400   29.2274 C.3     1  UNL1        0.0645
     36 F         -22.1864   -0.2536   29.5362 F       1  UNL1       -0.2344
     37 C         -25.7478   -0.0874   29.2477 C.3     1  UNL1        0.0631
     38 C         -27.3233   -0.3106   29.0379 C.2     1  UNL1        0.1506
     39 C         -22.9466    2.8423   24.6331 C.3     1  UNL1        0.1768
     40 C         -25.1898    1.3628   27.4309 C.3     1  UNL1        0.0084
     41 C         -25.1501    3.7011   29.6118 C.3     1  UNL1        0.2070
     42 C         -21.9004    0.5230   28.5109 C.3     1  UNL1        0.1952
     43 C         -28.9700    1.0065   27.9551 C.3     1  UNL1        0.0082
     44 C         -20.6802    0.6873   27.4656 C.3     1  UNL1        0.1800
     45 C         -22.7762    1.7734   28.2700 C.3     1  UNL1        0.0917
@<TRIPOS>BOND
     1     1    37    1
     2     2     7    1
     3     2     1    1
     4     3     2    2
     5     4     3    1
     6     4     5    2
     7     5     6    1
     8     6     7    2
     9     8     1    1
    10     8     9    1
    11     8    12    1
    12     9    10    1
    13    10    11    1
    14    12    11    1
    15    13    40    1
    16    14    13    1
    17    14    15    1
    18    15    18    1
    19    16    17    1
    20    16    15    2
    21    18    41    1
    22    19    14    2
    23    20    21    2
    24    20    19    1
    25    21    26    1
    26    22    21    1
    27    23    22    1
    28    24    23    1
    29    24    25    1
    30    26    27    1
    31    26    13    1
    32    28    31    1
    33    28    44    1
    34    29    37    1
    35    29    32    1
    36    30    38    2
    37    31    34    1
    38    31    45    1
    39    32    41    1
    40    32    33    1
    41    37    38    1
    42    38    35    1
    43    39    34    1
    44    40    29    1
    45    42    36    1
    46    43    35    1
    47    44    42    1
    48    45    42    1
    49    45    33    1
