@<TRIPOS>MOLECULE
outputs/IAG933/test6/raw/output_8333_IAG933_linker_design_.xyz
 45 48 0 0 0
SMALL
GASTEIGER

@<TRIPOS>ATOM
      1 C         -24.8550   -1.0120   30.1430 C.3     1  UNL1        0.0443
      2 C         -24.9730   -2.5050   29.7880 C.2     1  UNL1       -0.0210
      3 C         -23.9060   -3.1730   29.1460 C.2     1  UNL1       -0.0042
      4 C         -23.9890   -4.5490   28.8530 C.2     1  UNL1       -0.0003
      5 C         -25.1370   -5.2800   29.2050 C.2     1  UNL1       -0.0000
      6 C         -26.2320   -4.6110   29.7840 C.2     1  UNL1       -0.0003
      7 C         -26.1550   -3.2320   30.0650 C.2     1  UNL1       -0.0042
      8 C         -25.3870   -0.6790   31.5710 C.3     1  UNL1        0.0770
      9 C         -25.1890    0.7730   32.0280 C.3     1  UNL1        0.0192
     10 C         -25.3360    0.6840   33.5440 C.3     1  UNL1        0.0202
     11 C         -24.8290   -0.7150   33.9050 C.3     1  UNL1        0.0887
     12 N         -24.7580   -1.4810   32.6460 N.3     1  UNL1       -0.2191
     13 C         -25.6880    1.6140   26.4610 C.3     1  UNL1        0.0726
     14 C         -26.2500    2.9200   26.3950 C.2     1  UNL1        0.0549
     15 C         -25.6420    4.0930   27.1230 C.2     1  UNL1        0.2624
     16 N         -25.6140    5.2520   26.4490 N.am    1  UNL1       -0.2000
     17 C         -25.0260    6.4790   26.9630 C.3     1  UNL1        0.1388
     18 O         -25.1430    3.9660   28.2430 O.2     1  UNL1       -0.2687
     19 C         -27.4380    3.0910   25.6450 C.2     1  UNL1        0.1021
     20 N         -28.0750    2.0890   25.0030 N.2     1  UNL1       -0.2119
     21 C         -27.5430    0.8490   25.0790 C.2     1  UNL1        0.2341
     22 O         -28.1930   -0.2080   24.4770 O.2     1  UNL1       -0.4585
     23 C         -29.4600    0.0050   23.8660 C.3     1  UNL1        0.2423
     24 C         -30.0650   -1.3770   23.5730 C.3     1  UNL1        0.2292
     25 O         -30.7290   -1.8780   24.7210 O.3     1  UNL1       -0.2162
     26 C         -26.3540    0.5760   25.7770 C.3     1  UNL1        0.2401
     27 F         -25.8600   -0.6810   25.7950 F       1  UNL1       -0.2269
     28 C         -25.1327   -0.1721   28.8407 C.3     1  UNL1        0.0762
     29 O         -22.8192    0.2011   28.5222 O.3     1  UNL1       -0.3534
     30 C         -26.5949    0.2451   28.7935 C.3     1  UNL1        0.2077
     31 C         -30.3543    1.4388   28.2236 C.2     1  UNL1       -0.0174
     32 C         -28.4357    1.5574   29.4044 C.2     1  UNL1        0.1396
     33 C         -24.2601    1.2311   26.7761 C.3     1  UNL1        0.0375
     34 C         -21.7940    1.0114   28.0370 C.3     1  UNL1        0.1740
     35 O         -27.1933    1.0491   29.8864 O.2     1  UNL1       -0.4776
     36 C         -28.7012    2.8721   28.9464 C.2     1  UNL1        0.0339
     37 O         -29.2036   -2.4652   29.9117 O.2     1  UNL1       -0.2474
     38 C         -29.2759   -1.3220   30.1308 C.2     1  UNL1        0.3596
     39 N         -28.9680   -0.7560   31.2977 N.am    1  UNL1       -0.0679
     40 N         -29.6169   -0.5934   29.0522 N.am    1  UNL1       -0.1757
     41 C         -24.0944    0.7711   28.2492 C.3     1  UNL1        0.1197
     42 C         -31.4736    0.8621   27.4676 C.3     1  UNL1        0.0241
     43 C         -29.5112    0.7331   28.9839 C.3     1  UNL1        0.1714
     44 C         -29.8989    2.8026   28.1821 C.2     1  UNL1       -0.0036
     45 C         -32.4031    1.8660   26.8391 C.3     1  UNL1        0.0047
@<TRIPOS>BOND
     1     1    28    1
     2     2     7    1
     3     2     1    1
     4     3     2    2
     5     4     3    1
     6     4     5    2
     7     5     6    1
     8     6     7    2
     9     8     1    1
    10     8     9    1
    11     8    12    1
    12     9    10    1
    13    10    11    1
    14    12    11    1
    15    13    33    1
    16    14    13    1
    17    14    15    1
    18    15    18    2
    19    16    17    1
    20    16    15    1
    21    19    14    2
    22    20    21    2
    23    20    19    1
    24    21    26    1
    25    22    21    1
    26    23    22    1
    27    24    23    1
    28    24    25    1
    29    26    27    1
    30    26    13    1
    31    28    30    1
    32    30    35    1
    33    31    43    1
    34    32    35    1
    35    34    29    1
    36    36    32    2
    37    37    38    2
    38    38    39    1
    39    40    38    1
    40    41    33    1
    41    41    29    1
    42    41    28    1
    43    42    31    1
    44    43    40    1
    45    43    32    1
    46    44    31    2
    47    44    36    1
    48    45    42    1
