@<TRIPOS>MOLECULE
outputs/IAG933/test6/raw/output_834_IAG933_linker_design_.xyz
 43 46 0 0 0
SMALL
GASTEIGER

@<TRIPOS>ATOM
      1 C         -24.8550   -1.0120   30.1430 C.3     1  UNL1        0.0973
      2 C         -24.9730   -2.5050   29.7880 C.2     1  UNL1       -0.0064
      3 C         -23.9060   -3.1730   29.1460 C.2     1  UNL1       -0.0029
      4 C         -23.9890   -4.5490   28.8530 C.2     1  UNL1       -0.0003
      5 C         -25.1370   -5.2800   29.2050 C.2     1  UNL1       -0.0000
      6 C         -26.2320   -4.6110   29.7840 C.2     1  UNL1       -0.0003
      7 C         -26.1550   -3.2320   30.0650 C.2     1  UNL1       -0.0029
      8 C         -25.3870   -0.6790   31.5710 C.3     1  UNL1        0.0916
      9 C         -25.1890    0.7730   32.0280 C.3     1  UNL1        0.0206
     10 C         -25.3360    0.6840   33.5440 C.3     1  UNL1        0.0203
     11 C         -24.8290   -0.7150   33.9050 C.3     1  UNL1        0.0888
     12 N         -24.7580   -1.4810   32.6460 N.3     1  UNL1       -0.2178
     13 C         -25.6880    1.6140   26.4610 C.3     1  UNL1        0.1024
     14 C         -26.2500    2.9200   26.3950 C.2     1  UNL1        0.0576
     15 C         -25.6420    4.0930   27.1230 C.2     1  UNL1        0.2625
     16 N         -25.6140    5.2520   26.4490 N.am    1  UNL1       -0.2000
     17 C         -25.0260    6.4790   26.9630 C.3     1  UNL1        0.1388
     18 O         -25.1430    3.9660   28.2430 O.2     1  UNL1       -0.2687
     19 C         -27.4380    3.0910   25.6450 C.2     1  UNL1        0.1022
     20 N         -28.0750    2.0890   25.0030 N.2     1  UNL1       -0.2119
     21 C         -27.5430    0.8490   25.0790 C.2     1  UNL1        0.2342
     22 O         -28.1930   -0.2080   24.4770 O.2     1  UNL1       -0.4585
     23 C         -29.4600    0.0050   23.8660 C.3     1  UNL1        0.2423
     24 C         -30.0650   -1.3770   23.5730 C.3     1  UNL1        0.2292
     25 O         -30.7290   -1.8780   24.7210 O.3     1  UNL1       -0.2162
     26 C         -26.3540    0.5760   25.7770 C.3     1  UNL1        0.2427
     27 F         -25.8600   -0.6810   25.7950 F       1  UNL1       -0.2268
     28 N         -22.0853    0.2401   29.1496 N.3     1  UNL1       -0.1099
     29 C         -24.9800    1.1768   27.8898 C.3     1  UNL1        0.1524
     30 C         -30.5620    5.8682   27.1711 C.3     1  UNL1        0.1741
     31 C         -29.7611    3.3930   28.4525 C.3     1  UNL1        0.1424
     32 C         -29.4285    0.3103   28.5024 C.3     1  UNL1        0.1423
     33 C         -22.5945    0.8423   28.0044 C.3     1  UNL1        0.2076
     34 C         -21.6647    1.5580   26.9873 C.3     1  UNL1        0.2043
     35 O         -28.4722    0.9668   29.3740 O.3     1  UNL1       -0.3523
     36 C         -30.2898    2.4598   27.3774 C.3     1  UNL1        0.0346
     37 O         -30.0056    4.9852   28.2871 O.3     1  UNL1       -0.3511
     38 C         -27.4980   -0.0504   29.7799 C.3     1  UNL1        0.1595
     39 C         -30.5059    1.1355   27.8131 C.3     1  UNL1        0.0346
     40 O         -22.9937    1.2988   26.4577 O.3     1  UNL1       -0.2766
     41 C         -26.5517   -0.6142   28.6850 C.3     1  UNL1        0.1058
     42 N         -23.6234    1.1031   27.6289 N.3     1  UNL1       -0.1326
     43 N         -25.2222   -0.0388   29.0151 N.3     1  UNL1       -0.2531
@<TRIPOS>BOND
     1     1    43    1
     2     2     7    1
     3     2     1    1
     4     3     2    2
     5     4     3    1
     6     4     5    2
     7     5     6    1
     8     6     7    2
     9     8     1    1
    10     8     9    1
    11     8    12    1
    12     9    10    1
    13    10    11    1
    14    12    11    1
    15    13    29    1
    16    14    13    1
    17    14    15    1
    18    15    18    2
    19    16    17    1
    20    16    15    1
    21    19    14    2
    22    20    21    2
    23    20    19    1
    24    21    26    1
    25    22    21    1
    26    23    22    1
    27    24    23    1
    28    24    25    1
    29    26    27    1
    30    26    13    1
    31    29    43    1
    32    30    37    1
    33    32    35    1
    34    33    28    1
    35    34    33    1
    36    35    38    1
    37    36    39    1
    38    36    31    1
    39    37    31    1
    40    39    32    1
    41    40    34    1
    42    40    42    1
    43    41    43    1
    44    41    38    1
    45    42    29    1
    46    42    33    1
