@<TRIPOS>MOLECULE
outputs/IAG933/test6/raw/output_8340_IAG933_linker_design_.xyz
 42 45 0 0 0
SMALL
GASTEIGER

@<TRIPOS>ATOM
      1 C         -24.8550   -1.0120   30.1430 C.3     1  UNL1        0.1213
      2 C         -24.9730   -2.5050   29.7880 C.2     1  UNL1       -0.0025
      3 C         -23.9060   -3.1730   29.1460 C.2     1  UNL1       -0.0026
      4 C         -23.9890   -4.5490   28.8530 C.2     1  UNL1       -0.0003
      5 C         -25.1370   -5.2800   29.2050 C.2     1  UNL1       -0.0000
      6 C         -26.2320   -4.6110   29.7840 C.2     1  UNL1       -0.0003
      7 C         -26.1550   -3.2320   30.0650 C.2     1  UNL1       -0.0026
      8 C         -25.3870   -0.6790   31.5710 C.3     1  UNL1        0.0956
      9 C         -25.1890    0.7730   32.0280 C.3     1  UNL1        0.0209
     10 C         -25.3360    0.6840   33.5440 C.3     1  UNL1        0.0203
     11 C         -24.8290   -0.7150   33.9050 C.3     1  UNL1        0.0888
     12 N         -24.7580   -1.4810   32.6460 N.3     1  UNL1       -0.2174
     13 C         -25.6880    1.6140   26.4610 C.2     1  UNL1        0.0416
     14 C         -26.2500    2.9200   26.3950 C.2     1  UNL1        0.0767
     15 C         -25.6420    4.0930   27.1230 C.2     1  UNL1        0.2664
     16 N         -25.6140    5.2520   26.4490 N.am    1  UNL1       -0.1997
     17 C         -25.0260    6.4790   26.9630 C.3     1  UNL1        0.1388
     18 O         -25.1430    3.9660   28.2430 O.2     1  UNL1       -0.2683
     19 C         -27.4380    3.0910   25.6450 C.2     1  UNL1        0.1067
     20 N         -28.0750    2.0890   25.0030 N.2     1  UNL1       -0.2081
     21 C         -27.5430    0.8490   25.0790 C.2     1  UNL1        0.2533
     22 O         -28.1930   -0.2080   24.4770 O.2     1  UNL1       -0.4558
     23 C         -29.4600    0.0050   23.8660 C.3     1  UNL1        0.2426
     24 C         -30.0650   -1.3770   23.5730 C.3     1  UNL1        0.2292
     25 O         -30.7290   -1.8780   24.7210 O.3     1  UNL1       -0.2162
     26 C         -26.3540    0.5760   25.7770 C.2     1  UNL1        0.1932
     27 F         -25.8600   -0.6810   25.7950 F       1  UNL1       -0.1992
     28 C         -24.4992    1.2843   27.2114 C.ar    1  UNL1        0.0484
     29 C         -28.0146    1.9957   30.1405 C.3     1  UNL1        0.2574
     30 C         -22.2729    1.4851   26.8395 C.ar    1  UNL1        0.1969
     31 O         -27.6173   -0.6910   28.5489 O.2     1  UNL1       -0.2258
     32 C         -23.0244    0.4238   28.8479 C.ar    1  UNL1        0.1834
     33 C         -21.9562    0.9511   28.0523 C.ar    1  UNL1        0.1981
     34 C         -26.8747    0.0446   29.2712 C.2     1  UNL1        0.4091
     35 C         -24.3472    0.5500   28.3788 C.ar    1  UNL1        0.0893
     36 N         -25.4177   -0.0417   29.1807 N.am    1  UNL1       -0.2191
     37 O         -27.4453    0.7377   30.2739 O.3     1  UNL1       -0.4302
     38 F         -23.6051    3.0210   25.7600 F       1  UNL1       -0.2017
     39 F         -20.7126    1.0535   28.4803 F       1  UNL1       -0.1993
     40 F         -21.4518    1.7579   25.7967 F       1  UNL1       -0.1993
     41 F         -22.5675   -0.1408   30.0166 F       1  UNL1       -0.2004
     42 C         -23.4481    1.9655   26.5724 C.ar    1  UNL1        0.1710
@<TRIPOS>BOND
     1     1    36    1
     2     2     7    1
     3     2     1    1
     4     3     2    2
     5     4     3    1
     6     4     5    2
     7     5     6    1
     8     6     7    2
     9     8     1    1
    10     8     9    1
    11     8    12    1
    12     9    10    1
    13    10    11    1
    14    12    11    1
    15    13    28    1
    16    14    13    1
    17    14    15    1
    18    15    18    2
    19    16    17    1
    20    16    15    1
    21    19    14    2
    22    20    21    2
    23    20    19    1
    24    21    26    1
    25    22    21    1
    26    23    22    1
    27    24    23    1
    28    24    25    1
    29    26    27    1
    30    26    13    2
    31    28    35   ar
    32    29    37    1
    33    30    33   ar
    34    31    34    2
    35    32    41    1
    36    33    39    1
    37    33    32   ar
    38    34    37    1
    39    35    32   ar
    40    35    36    1
    41    36    34   am
    42    38    42    1
    43    40    30    1
    44    42    30   ar
    45    42    28   ar
