@<TRIPOS>MOLECULE
outputs/IAG933/test6/raw/output_8341_IAG933_linker_design_.xyz
 41 45 0 0 0
SMALL
GASTEIGER

@<TRIPOS>ATOM
      1 C         -24.8550   -1.0120   30.1430 C.3     1  UNL1        0.1016
      2 C         -24.9730   -2.5050   29.7880 C.2     1  UNL1       -0.0138
      3 C         -23.9060   -3.1730   29.1460 C.2     1  UNL1       -0.0038
      4 C         -23.9890   -4.5490   28.8530 C.2     1  UNL1       -0.0003
      5 C         -25.1370   -5.2800   29.2050 C.2     1  UNL1       -0.0000
      6 C         -26.2320   -4.6110   29.7840 C.2     1  UNL1       -0.0003
      7 C         -26.1550   -3.2320   30.0650 C.2     1  UNL1       -0.0038
      8 C         -25.3870   -0.6790   31.5710 C.3     1  UNL1        0.0842
      9 C         -25.1890    0.7730   32.0280 C.3     1  UNL1        0.0196
     10 C         -25.3360    0.6840   33.5440 C.3     1  UNL1        0.0203
     11 C         -24.8290   -0.7150   33.9050 C.3     1  UNL1        0.0887
     12 N         -24.7580   -1.4810   32.6460 N.3     1  UNL1       -0.2187
     13 C         -25.6880    1.6140   26.4610 C.2     1  UNL1        0.0409
     14 C         -26.2500    2.9200   26.3950 C.2     1  UNL1        0.0766
     15 C         -25.6420    4.0930   27.1230 C.2     1  UNL1        0.2664
     16 N         -25.6140    5.2520   26.4490 N.am    1  UNL1       -0.1997
     17 C         -25.0260    6.4790   26.9630 C.3     1  UNL1        0.1388
     18 O         -25.1430    3.9660   28.2430 O.2     1  UNL1       -0.2683
     19 C         -27.4380    3.0910   25.6450 C.2     1  UNL1        0.1067
     20 N         -28.0750    2.0890   25.0030 N.2     1  UNL1       -0.2081
     21 C         -27.5430    0.8490   25.0790 C.2     1  UNL1        0.2533
     22 O         -28.1930   -0.2080   24.4770 O.2     1  UNL1       -0.4558
     23 C         -29.4600    0.0050   23.8660 C.3     1  UNL1        0.2426
     24 C         -30.0650   -1.3770   23.5730 C.3     1  UNL1        0.2292
     25 O         -30.7290   -1.8780   24.7210 O.3     1  UNL1       -0.2162
     26 C         -26.3540    0.5760   25.7770 C.2     1  UNL1        0.1931
     27 F         -25.8600   -0.6810   25.7950 F       1  UNL1       -0.1992
     28 C         -21.4639    2.0901   26.7577 C.3     1  UNL1        0.1985
     29 O         -21.1166   -1.1040   29.0423 O.2     1  UNL1       -0.2815
     30 C         -24.6384    0.4057   28.1741 C.ar    1  UNL1        0.1175
     31 C         -22.4986    1.4376   27.2839 C.ar    1  UNL1        0.0453
     32 O         -20.4026    2.2710   27.4779 O.3     1  UNL1       -0.2163
     33 CA        -22.4138    0.5295   28.3469 C.ar    1  UNL1        0.1231
     34 O         -26.8549   -0.2474   28.9378 O.2     1  UNL1       -0.2894
     35 C         -25.6749   -0.1903   29.1148 C.2     1  UNL1        0.1955
     36 C         -21.2785    0.1095   28.8448 C.2     1  UNL1        0.2529
     37 C         -23.5394    1.6104   26.5894 C.ar    1  UNL1        0.0670
     38 N         -23.2174    2.1856   25.3637 N.pl3   1  UNL1       -0.2347
     39 N         -23.4786    0.0593   28.6178 N.ar    1  UNL1       -0.2393
     40 C         -24.6606    1.2308   27.1243 C.ar    1  UNL1        0.0376
     41 C         -21.9018    2.4703   25.4537 C.3     1  UNL1        0.1496
@<TRIPOS>BOND
     1     1    35    1
     2     2     7    1
     3     2     1    1
     4     3     2    2
     5     4     3    1
     6     4     5    2
     7     5     6    1
     8     6     7    2
     9     8     1    1
    10     8     9    1
    11     8    12    1
    12     9    10    1
    13    10    11    1
    14    12    11    1
    15    13    40    1
    16    14    13    1
    17    14    15    1
    18    15    18    2
    19    16    17    1
    20    16    15    1
    21    19    14    2
    22    20    21    2
    23    20    19    1
    24    21    26    1
    25    22    21    1
    26    23    22    1
    27    24    23    1
    28    24    25    1
    29    26    27    1
    30    26    13    2
    31    28    31    1
    32    28    32    1
    33    30    39   ar
    34    30    35    1
    35    31    33   ar
    36    33    39   ar
    37    33    36    1
    38    34    35    2
    39    36    29    2
    40    37    40   ar
    41    37    31   ar
    42    38    41    1
    43    38    37    1
    44    40    30   ar
    45    41    28    1
