@<TRIPOS>MOLECULE
outputs/IAG933/test6/raw/output_8344_IAG933_linker_design_.xyz
 45 48 0 0 0
SMALL
GASTEIGER

@<TRIPOS>ATOM
      1 C         -24.8550   -1.0120   30.1430 C.3     1  UNL1        0.0826
      2 C         -24.9730   -2.5050   29.7880 C.2     1  UNL1       -0.0173
      3 C         -23.9060   -3.1730   29.1460 C.2     1  UNL1       -0.0041
      4 C         -23.9890   -4.5490   28.8530 C.2     1  UNL1       -0.0003
      5 C         -25.1370   -5.2800   29.2050 C.2     1  UNL1       -0.0000
      6 C         -26.2320   -4.6110   29.7840 C.2     1  UNL1       -0.0003
      7 C         -26.1550   -3.2320   30.0650 C.2     1  UNL1       -0.0041
      8 C         -25.3870   -0.6790   31.5710 C.3     1  UNL1        0.0806
      9 C         -25.1890    0.7730   32.0280 C.3     1  UNL1        0.0193
     10 C         -25.3360    0.6840   33.5440 C.3     1  UNL1        0.0202
     11 C         -24.8290   -0.7150   33.9050 C.3     1  UNL1        0.0887
     12 N         -24.7580   -1.4810   32.6460 N.3     1  UNL1       -0.2190
     13 C         -25.6880    1.6140   26.4610 C.3     1  UNL1        0.1443
     14 C         -26.2500    2.9200   26.3950 C.2     1  UNL1        0.0708
     15 C         -25.6420    4.0930   27.1230 C.2     1  UNL1        0.2638
     16 N         -25.6140    5.2520   26.4490 N.am    1  UNL1       -0.2000
     17 C         -25.0260    6.4790   26.9630 C.3     1  UNL1        0.1388
     18 O         -25.1430    3.9660   28.2430 O.2     1  UNL1       -0.2686
     19 C         -27.4380    3.0910   25.6450 C.2     1  UNL1        0.1035
     20 N         -28.0750    2.0890   25.0030 N.2     1  UNL1       -0.2118
     21 C         -27.5430    0.8490   25.0790 C.2     1  UNL1        0.2356
     22 O         -28.1930   -0.2080   24.4770 O.2     1  UNL1       -0.4585
     23 C         -29.4600    0.0050   23.8660 C.3     1  UNL1        0.2423
     24 C         -30.0650   -1.3770   23.5730 C.3     1  UNL1        0.2292
     25 O         -30.7290   -1.8780   24.7210 O.3     1  UNL1       -0.2162
     26 C         -26.3540    0.5760   25.7770 C.3     1  UNL1        0.2558
     27 F         -25.8600   -0.6810   25.7950 F       1  UNL1       -0.2254
     28 N         -24.5707   -0.2349   28.1293 N.3     1  UNL1       -0.1730
     29 C         -23.7198    0.8765   27.8496 C.3     1  UNL1        0.1785
     30 CL        -23.2387    1.8250   25.2605 Cl      1  UNL1       -0.0181
     31 C         -21.2967    1.3301   27.7179 C.3     1  UNL1        0.0386
     32 C         -29.3864    0.1261   28.0292 C.3     1  UNL1        0.0050
     33 N         -24.2440    1.4904   26.6479 N.3     1  UNL1       -0.1752
     34 C         -29.9803   -1.5227   29.8037 C.3     1  UNL1        0.1544
     35 C         -31.8370   -1.2485   28.1691 C.3     1  UNL1        0.0025
     36 C         -29.2688   -0.1752   29.5301 C.3     1  UNL1        0.0601
     37 C         -25.4940   -0.1875   29.0339 C.3     1  UNL1        0.1957
     38 C         -27.8390   -0.0776   30.0298 C.3     1  UNL1        0.1463
     39 C         -33.2117   -0.5578   28.1160 C.3     1  UNL1        0.0001
     40 O         -22.1426    0.1331   29.6226 O.3     1  UNL1       -0.2201
     41 O         -29.2806   -2.4374   30.6227 O.3     1  UNL1       -0.2231
     42 C         -30.6628   -0.5402   27.4248 C.3     1  UNL1        0.0002
     43 C         -22.5274    0.9127   28.2992 C.3     1  UNL1        0.1843
     44 C         -31.4977   -1.4134   29.6593 C.3     1  UNL1        0.0330
     45 O         -26.8055    0.3447   29.0777 O.3     1  UNL1       -0.3391
@<TRIPOS>BOND
     1     1    37    1
     2     2     7    1
     3     2     1    1
     4     3     2    2
     5     4     3    1
     6     4     5    2
     7     5     6    1
     8     6     7    2
     9     8     1    1
    10     8     9    1
    11     8    12    1
    12     9    10    1
    13    10    11    1
    14    12    11    1
    15    13    33    1
    16    14    13    1
    17    14    15    1
    18    15    18    2
    19    16    17    1
    20    16    15    1
    21    19    14    2
    22    20    21    2
    23    20    19    1
    24    21    26    1
    25    22    21    1
    26    23    22    1
    27    24    23    1
    28    24    25    1
    29    26    27    1
    30    26    13    1
    31    29    28    1
    32    29    43    1
    33    30    33    1
    34    32    36    1
    35    33    29    1
    36    34    41    1
    37    35    39    1
    38    35    44    1
    39    36    34    1
    40    36    38    1
    41    37    28    1
    42    37    45    1
    43    42    32    1
    44    42    35    1
    45    43    31    1
    46    43    40    1
    47    44    34    1
    48    45    38    1
