@<TRIPOS>MOLECULE
outputs/IAG933/test6/raw/output_8349_IAG933_linker_design_.xyz
 39 42 0 0 0
SMALL
GASTEIGER

@<TRIPOS>ATOM
      1 C         -24.8550   -1.0120   30.1430 C.3     1  UNL1        0.0703
      2 C         -24.9730   -2.5050   29.7880 C.2     1  UNL1       -0.0164
      3 C         -23.9060   -3.1730   29.1460 C.2     1  UNL1       -0.0039
      4 C         -23.9890   -4.5490   28.8530 C.2     1  UNL1       -0.0003
      5 C         -25.1370   -5.2800   29.2050 C.2     1  UNL1       -0.0000
      6 C         -26.2320   -4.6110   29.7840 C.2     1  UNL1       -0.0003
      7 C         -26.1550   -3.2320   30.0650 C.2     1  UNL1       -0.0039
      8 C         -25.3870   -0.6790   31.5710 C.3     1  UNL1        0.0815
      9 C         -25.1890    0.7730   32.0280 C.3     1  UNL1        0.0195
     10 C         -25.3360    0.6840   33.5440 C.3     1  UNL1        0.0203
     11 C         -24.8290   -0.7150   33.9050 C.3     1  UNL1        0.0887
     12 N         -24.7580   -1.4810   32.6460 N.3     1  UNL1       -0.2188
     13 C         -25.6880    1.6140   26.4610 C.2     1  UNL1        0.0412
     14 C         -26.2500    2.9200   26.3950 C.2     1  UNL1        0.0766
     15 C         -25.6420    4.0930   27.1230 C.2     1  UNL1        0.2664
     16 N         -25.6140    5.2520   26.4490 N.am    1  UNL1       -0.1997
     17 C         -25.0260    6.4790   26.9630 C.3     1  UNL1        0.1388
     18 O         -25.1430    3.9660   28.2430 O.2     1  UNL1       -0.2683
     19 C         -27.4380    3.0910   25.6450 C.2     1  UNL1        0.1067
     20 N         -28.0750    2.0890   25.0030 N.2     1  UNL1       -0.2081
     21 C         -27.5430    0.8490   25.0790 C.2     1  UNL1        0.2533
     22 O         -28.1930   -0.2080   24.4770 O.2     1  UNL1       -0.4558
     23 C         -29.4600    0.0050   23.8660 C.3     1  UNL1        0.2426
     24 C         -30.0650   -1.3770   23.5730 C.3     1  UNL1        0.2292
     25 O         -30.7290   -1.8780   24.7210 O.3     1  UNL1       -0.2162
     26 C         -26.3540    0.5760   25.7770 C.2     1  UNL1        0.1931
     27 F         -25.8600   -0.6810   25.7950 F       1  UNL1       -0.1992
     28 N         -27.9501   -0.4373   28.9896 N.1     1  UNL1       -0.1911
     29 C         -24.4133    1.4001   27.1488 C.2     1  UNL1        0.0415
     30 C         -22.2935    0.9666   27.8109 C.2     1  UNL1        0.2458
     31 C         -26.7856   -0.2421   28.9619 C.1     1  UNL1        0.0965
     32 C         -25.3538   -0.0997   29.0581 C.2     1  UNL1        0.0528
     33 O         -22.2063    2.1712   25.7968 O.2     1  UNL1       -0.4682
     34 C         -23.0799    0.5020   28.8992 C.2     1  UNL1        0.1313
     35 C         -24.4038    0.5799   28.4383 C.2     1  UNL1        0.0291
     36 N         -22.5411    0.1382   30.1167 N.pl3   1  UNL1       -0.1246
     37 O         -21.0663    0.6121   27.5955 O.2     1  UNL1       -0.2819
     38 C         -23.0456    1.7264   26.8633 C.2     1  UNL1        0.1788
     39 C         -22.7939    1.9538   24.4985 C.3     1  UNL1        0.2526
@<TRIPOS>BOND
     1     1    32    1
     2     2     7    1
     3     2     1    1
     4     3     2    2
     5     4     3    1
     6     4     5    2
     7     5     6    1
     8     6     7    2
     9     8     1    1
    10     8     9    1
    11     8    12    1
    12     9    10    1
    13    10    11    1
    14    12    11    1
    15    13    29    1
    16    14    13    1
    17    14    15    1
    18    15    18    2
    19    16    17    1
    20    16    15    1
    21    19    14    2
    22    20    21    2
    23    20    19    1
    24    21    26    1
    25    22    21    1
    26    23    22    1
    27    24    23    1
    28    24    25    1
    29    26    27    1
    30    26    13    2
    31    29    35    1
    32    30    34    2
    33    31    28    3
    34    31    32    1
    35    33    38    1
    36    34    36    1
    37    35    34    1
    38    35    32    2
    39    37    30    1
    40    38    29    2
    41    38    30    1
    42    39    33    1
