@<TRIPOS>MOLECULE
outputs/IAG933/test6/raw/output_835_IAG933_linker_design_.xyz
 44 47 0 0 0
SMALL
GASTEIGER

@<TRIPOS>ATOM
      1 C         -24.8550   -1.0120   30.1430 C.3     1  UNL1        0.0438
      2 C         -24.9730   -2.5050   29.7880 C.2     1  UNL1       -0.0208
      3 C         -23.9060   -3.1730   29.1460 C.2     1  UNL1       -0.0042
      4 C         -23.9890   -4.5490   28.8530 C.2     1  UNL1       -0.0003
      5 C         -25.1370   -5.2800   29.2050 C.2     1  UNL1       -0.0000
      6 C         -26.2320   -4.6110   29.7840 C.2     1  UNL1       -0.0003
      7 C         -26.1550   -3.2320   30.0650 C.2     1  UNL1       -0.0042
      8 C         -25.3870   -0.6790   31.5710 C.3     1  UNL1        0.0788
      9 C         -25.1890    0.7730   32.0280 C.3     1  UNL1        0.0377
     10 C         -25.3360    0.6840   33.5440 C.3     1  UNL1        0.0219
     11 C         -24.8290   -0.7150   33.9050 C.3     1  UNL1        0.0888
     12 N         -24.7580   -1.4810   32.6460 N.3     1  UNL1       -0.2191
     13 C         -25.6880    1.6140   26.4610 C.2     1  UNL1        0.0735
     14 C         -26.2500    2.9200   26.3950 C.2     1  UNL1        0.0795
     15 C         -25.6420    4.0930   27.1230 C.2     1  UNL1        0.2665
     16 N         -25.6140    5.2520   26.4490 N.am    1  UNL1       -0.1997
     17 C         -25.0260    6.4790   26.9630 C.3     1  UNL1        0.1388
     18 O         -25.1430    3.9660   28.2430 O.2     1  UNL1       -0.2683
     19 C         -27.4380    3.0910   25.6450 C.2     1  UNL1        0.1068
     20 N         -28.0750    2.0890   25.0030 N.2     1  UNL1       -0.2081
     21 C         -27.5430    0.8490   25.0790 C.2     1  UNL1        0.2534
     22 O         -28.1930   -0.2080   24.4770 O.2     1  UNL1       -0.4558
     23 C         -29.4600    0.0050   23.8660 C.3     1  UNL1        0.2426
     24 C         -30.0650   -1.3770   23.5730 C.3     1  UNL1        0.2292
     25 O         -30.7290   -1.8780   24.7210 O.3     1  UNL1       -0.2162
     26 C         -26.3540    0.5760   25.7770 C.2     1  UNL1        0.1960
     27 F         -25.8600   -0.6810   25.7950 F       1  UNL1       -0.1991
     28 C         -24.3516    1.4893   26.9305 C.2     1  UNL1        0.1624
     29 C         -22.7723    2.3990   25.2230 C.3     1  UNL1        0.2525
     30 CA        -23.9326    1.4962   28.2204 C.2     1  UNL1        0.1795
     31 N         -27.2569    6.3255   34.1598 N.3     1  UNL1       -0.2181
     32 C         -27.5499    4.3006   32.1658 C.3     1  UNL1        0.0029
     33 C         -25.3772    1.8496   30.9038 C.3     1  UNL1        0.0941
     34 N         -24.7320    1.5100   29.6117 N.pl3   1  UNL1       -0.2307
     35 C         -24.6658    3.1746   31.4337 C.3     1  UNL1        0.0217
     36 C         -22.4847    1.0952   28.4994 C.2     1  UNL1        0.4053
     37 C         -28.1368    5.2375   34.4762 C.3     1  UNL1        0.0887
     38 C         -27.8629    4.0445   33.6656 C.3     1  UNL1        0.0189
     39 O         -22.3689    0.0597   29.2983 O.co2   1  UNL1       -0.2390
     40 O         -23.5624    1.3516   25.8225 O.2     1  UNL1       -0.4698
     41 C         -26.1026    6.0728   33.2892 C.3     1  UNL1        0.0887
     42 C         -25.1193    4.0582   32.4671 C.3     1  UNL1        0.0032
     43 C         -26.1645    4.9950   32.2013 C.3     1  UNL1        0.0175
     44 OXT       -21.5366    1.7404   27.9079 O.co2   1  UNL1       -0.2390
@<TRIPOS>BOND
     1     2     7    1
     2     2     1    1
     3     3     2    2
     4     4     3    1
     5     4     5    2
     6     5     6    1
     7     6     7    2
     8     8     1    1
     9     8     9    1
    10     8    12    1
    11     9    33    1
    12     9    10    1
    13    10    11    1
    14    12    11    1
    15    13    28    1
    16    14    13    1
    17    14    15    1
    18    15    18    2
    19    16    17    1
    20    16    15    1
    21    19    14    2
    22    20    21    2
    23    20    19    1
    24    21    26    1
    25    22    21    1
    26    23    22    1
    27    24    23    1
    28    24    25    1
    29    26    27    1
    30    26    13    2
    31    28    30    2
    32    29    40    1
    33    30    36    1
    34    30    34    1
    35    31    37    1
    36    32    43    1
    37    32    38    1
    38    33    35    1
    39    34    33    1
    40    35    42    1
    41    36    39   ar
    42    38    37    1
    43    40    28    1
    44    41    31    1
    45    43    42    1
    46    43    41    1
    47    44    36   ar
