@<TRIPOS>MOLECULE
outputs/IAG933/test6/raw/output_8352_IAG933_linker_design_.xyz
 42 45 0 0 0
SMALL
GASTEIGER

@<TRIPOS>ATOM
      1 C         -24.8550   -1.0120   30.1430 C.3     1  UNL1        0.0394
      2 C         -24.9730   -2.5050   29.7880 C.2     1  UNL1       -0.0211
      3 C         -23.9060   -3.1730   29.1460 C.2     1  UNL1       -0.0042
      4 C         -23.9890   -4.5490   28.8530 C.2     1  UNL1       -0.0003
      5 C         -25.1370   -5.2800   29.2050 C.2     1  UNL1       -0.0000
      6 C         -26.2320   -4.6110   29.7840 C.2     1  UNL1       -0.0003
      7 C         -26.1550   -3.2320   30.0650 C.2     1  UNL1       -0.0042
      8 C         -25.3870   -0.6790   31.5710 C.3     1  UNL1        0.0768
      9 C         -25.1890    0.7730   32.0280 C.3     1  UNL1        0.0192
     10 C         -25.3360    0.6840   33.5440 C.3     1  UNL1        0.0202
     11 C         -24.8290   -0.7150   33.9050 C.3     1  UNL1        0.0887
     12 N         -24.7580   -1.4810   32.6460 N.3     1  UNL1       -0.2191
     13 C         -25.6880    1.6140   26.4610 C.2     1  UNL1        0.0159
     14 C         -26.2500    2.9200   26.3950 C.2     1  UNL1        0.0726
     15 C         -25.6420    4.0930   27.1230 C.2     1  UNL1        0.2661
     16 N         -25.6140    5.2520   26.4490 N.am    1  UNL1       -0.1997
     17 C         -25.0260    6.4790   26.9630 C.3     1  UNL1        0.1388
     18 O         -25.1430    3.9660   28.2430 O.2     1  UNL1       -0.2683
     19 C         -27.4380    3.0910   25.6450 C.2     1  UNL1        0.1064
     20 N         -28.0750    2.0890   25.0030 N.2     1  UNL1       -0.2081
     21 C         -27.5430    0.8490   25.0790 C.2     1  UNL1        0.2530
     22 O         -28.1930   -0.2080   24.4770 O.2     1  UNL1       -0.4558
     23 C         -29.4600    0.0050   23.8660 C.3     1  UNL1        0.2426
     24 C         -30.0650   -1.3770   23.5730 C.3     1  UNL1        0.2292
     25 O         -30.7290   -1.8780   24.7210 O.3     1  UNL1       -0.2162
     26 C         -26.3540    0.5760   25.7770 C.2     1  UNL1        0.1891
     27 F         -25.8600   -0.6810   25.7950 F       1  UNL1       -0.1996
     28 C         -20.3018    1.3912   27.3550 C.3     1  UNL1        0.1823
     29 N         -28.4840    1.1036   30.4657 N.1     1  UNL1       -0.1959
     30 C         -24.3954    1.0090   26.7794 C.3     1  UNL1        0.0292
     31 C         -20.4106    0.1049   27.8977 C.3     1  UNL1        0.0382
     32 C         -25.2012    0.2117   29.1607 C.3     1  UNL1        0.0210
     33 O         -22.3916    0.4018   30.6928 O.3     1  UNL1       -0.2231
     34 C         -27.6376    0.6576   29.7613 C.1     1  UNL1        0.0732
     35 C         -21.0282   -0.6627   28.9311 C.3     1  UNL1        0.0357
     36 C         -22.0065    1.3426   27.0149 C.3     1  UNL1        0.1845
     37 C         -23.9409    0.7045   28.0736 C.3     1  UNL1        0.0108
     38 O         -19.4734    1.4910   26.1841 O.3     1  UNL1       -0.2204
     39 C         -22.1332    0.1665   29.3620 C.3     1  UNL1        0.1546
     40 O         -22.3605    2.3051   26.0548 O.3     1  UNL1       -0.2203
     41 C         -22.4782    1.1721   28.2247 C.3     1  UNL1        0.0638
     42 C         -26.5968    0.1049   29.0640 C.3     1  UNL1        0.1058
@<TRIPOS>BOND
     1     1    32    1
     2     2     7    1
     3     2     1    1
     4     3     2    2
     5     4     3    1
     6     4     5    2
     7     5     6    1
     8     6     7    2
     9     8     1    1
    10     8     9    1
    11     8    12    1
    12     9    10    1
    13    10    11    1
    14    12    11    1
    15    13    30    1
    16    14    13    1
    17    14    15    1
    18    15    18    2
    19    16    17    1
    20    16    15    1
    21    19    14    2
    22    20    21    2
    23    20    19    1
    24    21    26    1
    25    22    21    1
    26    23    22    1
    27    24    23    1
    28    24    25    1
    29    26    27    1
    30    26    13    2
    31    28    38    1
    32    28    31    1
    33    31    35    1
    34    32    42    1
    35    34    29    3
    36    35    39    1
    37    36    40    1
    38    36    28    1
    39    36    41    1
    40    37    30    1
    41    37    32    1
    42    39    33    1
    43    41    37    1
    44    41    39    1
    45    42    34    1
