@<TRIPOS>MOLECULE
outputs/IAG933/test6/raw/output_8356_IAG933_linker_design_.xyz
 44 47 0 0 0
SMALL
GASTEIGER

@<TRIPOS>ATOM
      1 C         -24.8550   -1.0120   30.1430 C.3     1  UNL1        0.0656
      2 C         -24.9730   -2.5050   29.7880 C.2     1  UNL1       -0.0190
      3 C         -23.9060   -3.1730   29.1460 C.2     1  UNL1       -0.0042
      4 C         -23.9890   -4.5490   28.8530 C.2     1  UNL1       -0.0003
      5 C         -25.1370   -5.2800   29.2050 C.2     1  UNL1       -0.0000
      6 C         -26.2320   -4.6110   29.7840 C.2     1  UNL1       -0.0003
      7 C         -26.1550   -3.2320   30.0650 C.2     1  UNL1       -0.0042
      8 C         -25.3870   -0.6790   31.5710 C.3     1  UNL1        0.0789
      9 C         -25.1890    0.7730   32.0280 C.3     1  UNL1        0.0193
     10 C         -25.3360    0.6840   33.5440 C.3     1  UNL1        0.0202
     11 C         -24.8290   -0.7150   33.9050 C.3     1  UNL1        0.0887
     12 N         -24.7580   -1.4810   32.6460 N.3     1  UNL1       -0.2191
     13 C         -25.6880    1.6140   26.4610 C.3     1  UNL1        0.0744
     14 C         -26.2500    2.9200   26.3950 C.2     1  UNL1        0.0551
     15 C         -25.6420    4.0930   27.1230 C.2     1  UNL1        0.2624
     16 N         -25.6140    5.2520   26.4490 N.am    1  UNL1       -0.2000
     17 C         -25.0260    6.4790   26.9630 C.3     1  UNL1        0.1388
     18 O         -25.1430    3.9660   28.2430 O.2     1  UNL1       -0.2687
     19 C         -27.4380    3.0910   25.6450 C.2     1  UNL1        0.1021
     20 N         -28.0750    2.0890   25.0030 N.2     1  UNL1       -0.2119
     21 C         -27.5430    0.8490   25.0790 C.2     1  UNL1        0.2341
     22 O         -28.1930   -0.2080   24.4770 O.2     1  UNL1       -0.4585
     23 C         -29.4600    0.0050   23.8660 C.3     1  UNL1        0.2423
     24 C         -30.0650   -1.3770   23.5730 C.3     1  UNL1        0.2292
     25 O         -30.7290   -1.8780   24.7210 O.3     1  UNL1       -0.2162
     26 C         -26.3540    0.5760   25.7770 C.3     1  UNL1        0.2403
     27 F         -25.8600   -0.6810   25.7950 F       1  UNL1       -0.2269
     28 N         -25.9206    0.9392   28.8467 N.am    1  UNL1       -0.1990
     29 C         -21.7137    1.7136   27.5315 C.2     1  UNL1       -0.0014
     30 O         -22.4594   -0.4272   29.5226 O.2     1  UNL1       -0.4533
     31 C         -24.6499    0.2386   29.0915 C.3     1  UNL1        0.1570
     32 C         -21.2218   -0.7895   29.3113 C.2     1  UNL1        0.1791
     33 C         -24.1982    1.5071   26.8498 C.3     1  UNL1        0.0381
     34 F         -21.8873    2.4020   24.7113 F       1  UNL1       -0.1984
     35 C         -23.3029    0.3097   28.7903 C.2     1  UNL1        0.1389
     36 C         -28.0199    1.7711   29.3926 C.3     1  UNL1        0.0964
     37 C         -23.0330    1.1866   27.7434 C.2     1  UNL1        0.0101
     38 C         -23.0721    2.0487   24.9520 C.3     1  UNL1        0.3189
     39 C         -23.7065    2.3062   26.1546 C.3     1  UNL1        0.0772
     40 C         -20.5388   -0.0927   28.5657 C.2     1  UNL1        0.0406
     41 C         -27.2119    0.6784   28.9530 C.2     1  UNL1        0.2422
     42 F         -23.5583    1.2238   24.0796 F       1  UNL1       -0.1984
     43 C         -20.5726    1.1076   27.9078 C.2     1  UNL1        0.0030
     44 O         -27.6769   -0.4816   28.7692 O.2     1  UNL1       -0.2733
@<TRIPOS>BOND
     1     1    31    1
     2     2     7    1
     3     2     1    1
     4     3     2    2
     5     4     3    1
     6     4     5    2
     7     5     6    1
     8     6     7    2
     9     8     1    1
    10     8     9    1
    11     8    12    1
    12     9    10    1
    13    10    11    1
    14    12    11    1
    15    13    33    1
    16    14    13    1
    17    14    15    1
    18    15    18    2
    19    16    17    1
    20    16    15    1
    21    19    14    2
    22    20    21    2
    23    20    19    1
    24    21    26    1
    25    22    21    1
    26    23    22    1
    27    24    23    1
    28    24    25    1
    29    26    27    1
    30    26    13    1
    31    28    41    1
    32    29    37    1
    33    29    43    2
    34    31    28    1
    35    32    30    1
    36    33    39    1
    37    33    37    1
    38    34    38    1
    39    35    31    1
    40    35    30    1
    41    37    35    2
    42    38    39    1
    43    40    32    2
    44    41    36    1
    45    42    38    1
    46    43    40    1
    47    44    41    2
