@<TRIPOS>MOLECULE
outputs/IAG933/test6/raw/output_8358_IAG933_linker_design_.xyz
 40 43 0 0 0
SMALL
GASTEIGER

@<TRIPOS>ATOM
      1 C         -24.8550   -1.0120   30.1430 C.3     1  UNL1        0.0438
      2 C         -24.9730   -2.5050   29.7880 C.2     1  UNL1       -0.0208
      3 C         -23.9060   -3.1730   29.1460 C.2     1  UNL1       -0.0042
      4 C         -23.9890   -4.5490   28.8530 C.2     1  UNL1       -0.0003
      5 C         -25.1370   -5.2800   29.2050 C.2     1  UNL1       -0.0000
      6 C         -26.2320   -4.6110   29.7840 C.2     1  UNL1       -0.0003
      7 C         -26.1550   -3.2320   30.0650 C.2     1  UNL1       -0.0042
      8 C         -25.3870   -0.6790   31.5710 C.3     1  UNL1        0.0785
      9 C         -25.1890    0.7730   32.0280 C.3     1  UNL1        0.0364
     10 C         -25.3360    0.6840   33.5440 C.3     1  UNL1        0.0217
     11 C         -24.8290   -0.7150   33.9050 C.3     1  UNL1        0.0887
     12 N         -24.7580   -1.4810   32.6460 N.3     1  UNL1       -0.2191
     13 C         -25.6880    1.6140   26.4610 C.3     1  UNL1        0.0920
     14 C         -26.2500    2.9200   26.3950 C.2     1  UNL1        0.0589
     15 C         -25.6420    4.0930   27.1230 C.2     1  UNL1        0.2628
     16 N         -25.6140    5.2520   26.4490 N.am    1  UNL1       -0.2000
     17 C         -25.0260    6.4790   26.9630 C.3     1  UNL1        0.1388
     18 O         -25.1430    3.9660   28.2430 O.2     1  UNL1       -0.2686
     19 C         -27.4380    3.0910   25.6450 C.2     1  UNL1        0.1025
     20 N         -28.0750    2.0890   25.0030 N.2     1  UNL1       -0.2118
     21 C         -27.5430    0.8490   25.0790 C.2     1  UNL1        0.2344
     22 O         -28.1930   -0.2080   24.4770 O.2     1  UNL1       -0.4585
     23 C         -29.4600    0.0050   23.8660 C.3     1  UNL1        0.2423
     24 C         -30.0650   -1.3770   23.5730 C.3     1  UNL1        0.2292
     25 O         -30.7290   -1.8780   24.7210 O.3     1  UNL1       -0.2162
     26 C         -26.3540    0.5760   25.7770 C.3     1  UNL1        0.2440
     27 F         -25.8600   -0.6810   25.7950 F       1  UNL1       -0.2265
     28 C         -25.5485    3.5906   32.1823 C.3     1  UNL1        0.1680
     29 C         -26.6565    4.1747   31.3129 C.3     1  UNL1        0.0370
     30 O         -24.6672    4.6890   32.4532 O.3     1  UNL1       -0.2217
     31 N         -24.8436    2.2334   30.1908 N.3     1  UNL1       -0.2119
     32 C         -23.3668    1.7538   25.6815 C.2     1  UNL1        0.0168
     33 O         -21.5262    1.2932   27.1145 O.2     1  UNL1       -0.4563
     34 C         -24.4256    1.1057   29.4851 C.3     1  UNL1        0.1191
     35 C         -24.2568    1.5087   26.7832 C.2     1  UNL1       -0.0140
     36 C         -21.9986    1.6700   25.9001 C.3     1  UNL1        0.2330
     37 C         -23.7056    1.1848   28.1335 C.2     1  UNL1        0.0434
     38 C         -22.3344    0.9354   28.1870 C.2     1  UNL1        0.2272
     39 C         -25.0112    2.2715   31.4877 C.3     1  UNL1        0.1048
     40 N         -21.7934    0.3883   29.3527 N.pl3   1  UNL1       -0.0885
@<TRIPOS>BOND
     1     2     7    1
     2     2     1    1
     3     3     2    2
     4     4     3    1
     5     4     5    2
     6     5     6    1
     7     6     7    2
     8     8     1    1
     9     8     9    1
    10     8    12    1
    11     9    39    1
    12     9    10    1
    13    10    11    1
    14    12    11    1
    15    13    35    1
    16    14    13    1
    17    14    15    1
    18    15    18    2
    19    16    17    1
    20    16    15    1
    21    19    14    2
    22    20    21    2
    23    20    19    1
    24    21    26    1
    25    22    21    1
    26    23    22    1
    27    24    23    1
    28    24    25    1
    29    26    27    1
    30    26    13    1
    31    28    29    1
    32    28    30    1
    33    32    36    1
    34    32    35    2
    35    33    38    1
    36    34    31    1
    37    35    37    1
    38    36    33    1
    39    37    38    2
    40    37    34    1
    41    38    40    1
    42    39    31    1
    43    39    28    1
