@<TRIPOS>MOLECULE
No_836-gen_results/8p0m/2024-11-27-11-27-31/
 14 16 0 0 0
SMALL
GASTEIGER

@<TRIPOS>ATOM
      1 C         -28.0162   -0.8135   28.8779 C.ar    1  UNL1        0.0000
      2 C         -27.0636   -0.1189   28.6079 C.ar    1  UNL1        0.0000
      3 C         -25.7923   -0.4302   29.0761 C.ar    1  UNL1        0.0000
      4 C         -25.5756   -1.5654   29.9363 C.ar    1  UNL1        0.0000
      5 C         -26.7354   -2.3004   30.2173 C.ar    1  UNL1        0.0000
      6 C         -27.9184   -1.9537   29.7629 C.ar    1  UNL1        0.0000
      7 C         -27.3243    1.0850   27.8190 C.ar    1  UNL1        0.0000
      8 C         -26.2674    1.9087   27.5697 C.ar    1  UNL1        0.0000
      9 C         -24.8868    1.5477   28.0393 C.ar    1  UNL1        0.0000
     10 C         -24.6633    0.4445   28.8042 C.ar    1  UNL1        0.0000
     11 C         -23.2951    0.1642   29.2504 C.ar    1  UNL1        0.0000
     12 C         -22.2200    0.5202   28.5186 C.ar    1  UNL1        0.0000
     13 C         -22.3727    1.6445   27.6181 C.ar    1  UNL1        0.0000
     14 C         -23.7065    2.2445   27.3843 C.ar    1  UNL1        0.0000
@<TRIPOS>BOND
     1     1     2   ar
     2     3     4   ar
     3     4     5   ar
     4     5     6   ar
     5     6     1   ar
     6     2     3   ar
     7     3    10   ar
     8     9     8   ar
     9     8     7   ar
    10     7     2   ar
    11     9    10   ar
    12    10    11   ar
    13    11    12   ar
    14    12    13   ar
    15    13    14   ar
    16    14     9   ar
