@<TRIPOS>MOLECULE
outputs/IAG933/test6/raw/output_8367_IAG933_linker_design_.xyz
 44 47 0 0 0
SMALL
GASTEIGER

@<TRIPOS>ATOM
      1 C         -24.8550   -1.0120   30.1430 C.3     1  UNL1        0.0437
      2 C         -24.9730   -2.5050   29.7880 C.2     1  UNL1       -0.0208
      3 C         -23.9060   -3.1730   29.1460 C.2     1  UNL1       -0.0042
      4 C         -23.9890   -4.5490   28.8530 C.2     1  UNL1       -0.0003
      5 C         -25.1370   -5.2800   29.2050 C.2     1  UNL1       -0.0000
      6 C         -26.2320   -4.6110   29.7840 C.2     1  UNL1       -0.0003
      7 C         -26.1550   -3.2320   30.0650 C.2     1  UNL1       -0.0042
      8 C         -25.3870   -0.6790   31.5710 C.3     1  UNL1        0.0772
      9 C         -25.1890    0.7730   32.0280 C.3     1  UNL1        0.0192
     10 C         -25.3360    0.6840   33.5440 C.3     1  UNL1        0.0202
     11 C         -24.8290   -0.7150   33.9050 C.3     1  UNL1        0.0887
     12 N         -24.7580   -1.4810   32.6460 N.3     1  UNL1       -0.2191
     13 C         -25.6880    1.6140   26.4610 C.3     1  UNL1        0.0739
     14 C         -26.2500    2.9200   26.3950 C.2     1  UNL1        0.0549
     15 C         -25.6420    4.0930   27.1230 C.2     1  UNL1        0.2624
     16 N         -25.6140    5.2520   26.4490 N.am    1  UNL1       -0.2000
     17 C         -25.0260    6.4790   26.9630 C.3     1  UNL1        0.1388
     18 O         -25.1430    3.9660   28.2430 O.2     1  UNL1       -0.2687
     19 C         -27.4380    3.0910   25.6450 C.2     1  UNL1        0.1021
     20 N         -28.0750    2.0890   25.0030 N.2     1  UNL1       -0.2119
     21 C         -27.5430    0.8490   25.0790 C.2     1  UNL1        0.2341
     22 O         -28.1930   -0.2080   24.4770 O.2     1  UNL1       -0.4585
     23 C         -29.4600    0.0050   23.8660 C.3     1  UNL1        0.2423
     24 C         -30.0650   -1.3770   23.5730 C.3     1  UNL1        0.2292
     25 O         -30.7290   -1.8780   24.7210 O.3     1  UNL1       -0.2162
     26 C         -26.3540    0.5760   25.7770 C.3     1  UNL1        0.2401
     27 F         -25.8600   -0.6810   25.7950 F       1  UNL1       -0.2269
     28 C         -25.1076    3.6680   32.3357 C.3     1  UNL1        0.0025
     29 C         -26.2669    5.5283   34.3542 C.3     1  UNL1        0.0296
     30 C         -24.7012    5.1241   32.5248 C.3     1  UNL1        0.0002
     31 C         -22.1891   -0.2648   29.1745 C.3     1  UNL1        0.1756
     32 O         -27.8256    3.5748   35.0518 O.3     1  UNL1       -0.3536
     33 C         -26.5943    3.6096   32.9747 C.3     1  UNL1        0.0296
     34 C         -26.6356    4.0697   34.4046 C.3     1  UNL1        0.1153
     35 C         -24.2115    1.4020   29.9254 C.3     1  UNL1        0.0911
     36 C         -23.2504    1.4857   27.7122 C.3     1  UNL1        0.1529
     37 N         -24.4565    1.6854   28.6815 N.3     1  UNL1       -0.1951
     38 C         -24.8471    5.5885   33.9201 C.3     1  UNL1        0.0025
     39 C         -25.0405    3.1990   31.1835 C.3     1  UNL1        0.0016
     40 C         -28.1524    2.1957   35.0224 C.3     1  UNL1        0.1740
     41 C         -24.1636    1.3538   26.4833 C.3     1  UNL1        0.0520
     42 C         -24.8274    1.8815   31.1213 C.3     1  UNL1        0.0189
     43 O         -22.1869    1.0631   28.5159 O.3     1  UNL1       -0.3408
     44 C         -21.8177    1.8229   26.7040 C.3     1  UNL1        0.0481
@<TRIPOS>BOND
     1     2     7    1
     2     2     1    1
     3     3     2    2
     4     4     3    1
     5     4     5    2
     6     5     6    1
     7     6     7    2
     8     8     1    1
     9     8     9    1
    10     8    12    1
    11     9    42    1
    12     9    10    1
    13    10    11    1
    14    12    11    1
    15    13    41    1
    16    14    13    1
    17    14    15    1
    18    15    18    2
    19    16    17    1
    20    16    15    1
    21    19    14    2
    22    20    21    2
    23    20    19    1
    24    21    26    1
    25    22    21    1
    26    23    22    1
    27    24    23    1
    28    24    25    1
    29    26    27    1
    30    26    13    1
    31    28    39    1
    32    28    30    1
    33    28    33    1
    34    29    34    1
    35    30    38    1
    36    33    34    1
    37    34    32    1
    38    36    44    1
    39    36    43    1
    40    36    37    1
    41    37    35    1
    42    38    29    1
    43    40    32    1
    44    41    36    1
    45    42    35    1
    46    42    39    1
    47    43    31    1
