@<TRIPOS>MOLECULE
No_837-gen_results/8p0m/2024-11-27-11-27-31/
 25 27 0 0 0
SMALL
GASTEIGER

@<TRIPOS>ATOM
      1 O         -28.1229   -1.3353   28.4874 O.2     1  UNL1       -0.2730
      2 C         -28.5208   -0.4363   29.0779 C.2     1  UNL1        0.2452
      3 C         -29.6977    0.0507   28.9764 C.3     1  UNL1        0.1499
      4 N         -27.5405    0.1756   30.0054 N.am    1  UNL1       -0.2566
      5 C         -27.8890    1.2664   30.8176 C.3     1  UNL1        0.1026
      6 N         -30.5287   -0.3224   28.2067 N.3     1  UNL1       -0.2055
      7 C         -30.0828    1.2815   29.8160 C.3     1  UNL1        0.0328
      8 C         -29.1257    1.7753   30.7081 C.3     1  UNL1        0.0444
      9 C         -26.2093   -0.4513   30.1585 C.2     1  UNL1        0.0615
     10 C         -25.9113   -0.9549   31.1676 C.2     1  UNL1        0.0155
     11 C         -25.9874   -0.5188   32.2052 C.2     1  UNL1        0.0019
     12 C         -25.3783    0.7175   32.6251 C.2     1  UNL1        0.0083
     13 C         -24.4592    1.2968   31.7532 C.2     1  UNL1        0.0414
     14 C         -25.2030    0.6710   29.9318 C.2     1  UNL1        0.0563
     15 C         -24.5184    1.0430   30.4863 C.1     1  UNL1       -0.0993
     16 C         -29.4665    2.9231   31.5349 C.ar    1  UNL1       -0.0208
     17 C         -30.3238    3.4757   31.7479 C.ar    1  UNL1       -0.0042
     18 C         -30.5323    4.6368   32.6255 C.ar    1  UNL1       -0.0003
     19 C         -29.4054    5.0726   33.2850 C.ar    1  UNL1       -0.0000
     20 C         -28.2155    3.4541   32.3175 C.ar    1  UNL1       -0.0042
     21 C         -28.2395    4.4704   33.1088 C.ar    1  UNL1       -0.0003
     22 C         -31.8535    0.0579   28.0657 C.3     1  UNL1        0.1149
     23 C         -32.6236   -0.4093   27.3559 C.2     1  UNL1       -0.0120
     24 C         -33.9138   -0.0992   27.1782 C.2     1  UNL1       -0.0289
     25 C         -34.8117   -0.7134   26.3290 C.3     1  UNL1        0.0304
@<TRIPOS>BOND
     1     1     2    2
     2     2     3    1
     3     2     4   am
     4     4     5    1
     5     3     6    1
     6     3     7    1
     7     5     8    1
     8     7     8    1
     9     4     9    1
    10     9    10    2
    11    10    11    1
    12    11    12    2
    13    12    13    1
    14     9    14    1
    15    13    15    2
    16    14    15    2
    17     8    16    1
    18     6    22    1
    19    22    23    1
    20    23    24    2
    21    24    25    1
    22    16    17   ar
    23    17    18   ar
    24    18    19   ar
    25    19    21   ar
    26    21    20   ar
    27    20    16   ar
