@<TRIPOS>MOLECULE
outputs/IAG933/test6/raw/output_8373_IAG933_linker_design_.xyz
 44 47 0 0 0
SMALL
GASTEIGER

@<TRIPOS>ATOM
      1 C         -24.8550   -1.0120   30.1430 C.3     1  UNL1        0.0967
      2 C         -24.9730   -2.5050   29.7880 C.2     1  UNL1       -0.0064
      3 C         -23.9060   -3.1730   29.1460 C.2     1  UNL1       -0.0029
      4 C         -23.9890   -4.5490   28.8530 C.2     1  UNL1       -0.0003
      5 C         -25.1370   -5.2800   29.2050 C.2     1  UNL1       -0.0000
      6 C         -26.2320   -4.6110   29.7840 C.2     1  UNL1       -0.0003
      7 C         -26.1550   -3.2320   30.0650 C.2     1  UNL1       -0.0029
      8 C         -25.3870   -0.6790   31.5710 C.3     1  UNL1        0.0916
      9 C         -25.1890    0.7730   32.0280 C.3     1  UNL1        0.0206
     10 C         -25.3360    0.6840   33.5440 C.3     1  UNL1        0.0203
     11 C         -24.8290   -0.7150   33.9050 C.3     1  UNL1        0.0888
     12 N         -24.7580   -1.4810   32.6460 N.3     1  UNL1       -0.2178
     13 C         -25.6880    1.6140   26.4610 C.2     1  UNL1        0.0379
     14 C         -26.2500    2.9200   26.3950 C.2     1  UNL1        0.0764
     15 C         -25.6420    4.0930   27.1230 C.2     1  UNL1        0.2664
     16 N         -25.6140    5.2520   26.4490 N.am    1  UNL1       -0.1997
     17 C         -25.0260    6.4790   26.9630 C.3     1  UNL1        0.1388
     18 O         -25.1430    3.9660   28.2430 O.2     1  UNL1       -0.2683
     19 C         -27.4380    3.0910   25.6450 C.2     1  UNL1        0.1067
     20 N         -28.0750    2.0890   25.0030 N.2     1  UNL1       -0.2081
     21 C         -27.5430    0.8490   25.0790 C.2     1  UNL1        0.2533
     22 O         -28.1930   -0.2080   24.4770 O.2     1  UNL1       -0.4558
     23 C         -29.4600    0.0050   23.8660 C.3     1  UNL1        0.2426
     24 C         -30.0650   -1.3770   23.5730 C.3     1  UNL1        0.2292
     25 O         -30.7290   -1.8780   24.7210 O.3     1  UNL1       -0.2162
     26 C         -26.3540    0.5760   25.7770 C.2     1  UNL1        0.1929
     27 F         -25.8600   -0.6810   25.7950 F       1  UNL1       -0.1992
     28 C         -22.8671    0.5732   28.6999 C.2     1  UNL1        0.0260
     29 C         -29.9228    3.7082   29.3920 C.2     1  UNL1        0.4563
     30 N         -25.1572   -0.1197   29.0302 N.3     1  UNL1       -0.2631
     31 C         -28.7241    2.4472   31.0129 C.3     1  UNL1        0.1555
     32 N         -30.8650    3.9926   30.1759 N.pl3   1  UNL1        0.1995
     33 O         -29.4637    1.3691   30.4862 O.3     1  UNL1       -0.3531
     34 C         -28.5790    3.5245   29.9538 C.3     1  UNL1        0.1654
     35 C         -26.6848   -0.2036   28.7205 C.3     1  UNL1        0.0755
     36 C         -24.4318    1.2942   27.1466 C.2     1  UNL1        0.0287
     37 F         -20.8765    1.5501   27.4984 F       1  UNL1       -0.2021
     38 F         -22.8445    2.1570   25.6076 F       1  UNL1       -0.2021
     39 C         -28.7968    0.7549   29.3439 C.3     1  UNL1        0.1436
     40 C         -24.2035    0.5614   28.3343 C.3     1  UNL1        0.1076
     41 N         -30.2092    3.6739   28.1925 N.pl3   1  UNL1        0.1995
     42 C         -23.1731    1.6138   26.7563 C.2     1  UNL1        0.1647
     43 C         -22.2317    1.2244   27.6980 C.2     1  UNL1        0.1645
     44 C         -27.4211    0.4980   29.7572 C.3     1  UNL1        0.0494
@<TRIPOS>BOND
     1     1    30    1
     2     2     7    1
     3     2     1    1
     4     3     2    2
     5     4     3    1
     6     4     5    2
     7     5     6    1
     8     6     7    2
     9     8     1    1
    10     8     9    1
    11     8    12    1
    12     9    10    1
    13    10    11    1
    14    12    11    1
    15    13    36    1
    16    14    13    1
    17    14    15    1
    18    15    18    2
    19    16    17    1
    20    16    15    1
    21    19    14    2
    22    20    21    2
    23    20    19    1
    24    21    26    1
    25    22    21    1
    26    23    22    1
    27    24    23    1
    28    24    25    1
    29    26    27    1
    30    26    13    2
    31    29    34    1
    32    29    32    1
    33    33    31    1
    34    34    31    1
    35    35    30    1
    36    35    44    1
    37    36    40    1
    38    37    43    1
    39    38    42    1
    40    39    44    1
    41    39    33    1
    42    40    28    1
    43    40    30    1
    44    41    29    2
    45    42    36    2
    46    42    43    1
    47    43    28    2
