@<TRIPOS>MOLECULE
outputs/IAG933/test6/raw/output_8376_IAG933_linker_design_.xyz
 45 48 0 0 0
SMALL
GASTEIGER

@<TRIPOS>ATOM
      1 C         -24.8550   -1.0120   30.1430 C.3     1  UNL1        0.1128
      2 C         -24.9730   -2.5050   29.7880 C.2     1  UNL1       -0.0030
      3 C         -23.9060   -3.1730   29.1460 C.2     1  UNL1       -0.0026
      4 C         -23.9890   -4.5490   28.8530 C.2     1  UNL1       -0.0003
      5 C         -25.1370   -5.2800   29.2050 C.2     1  UNL1       -0.0000
      6 C         -26.2320   -4.6110   29.7840 C.2     1  UNL1       -0.0003
      7 C         -26.1550   -3.2320   30.0650 C.2     1  UNL1       -0.0026
      8 C         -25.3870   -0.6790   31.5710 C.3     1  UNL1        0.0951
      9 C         -25.1890    0.7730   32.0280 C.3     1  UNL1        0.0209
     10 C         -25.3360    0.6840   33.5440 C.3     1  UNL1        0.0203
     11 C         -24.8290   -0.7150   33.9050 C.3     1  UNL1        0.0888
     12 N         -24.7580   -1.4810   32.6460 N.3     1  UNL1       -0.2174
     13 C         -25.6880    1.6140   26.4610 C.3     1  UNL1        0.0943
     14 C         -26.2500    2.9200   26.3950 C.2     1  UNL1        0.0588
     15 C         -25.6420    4.0930   27.1230 C.2     1  UNL1        0.2627
     16 N         -25.6140    5.2520   26.4490 N.am    1  UNL1       -0.2000
     17 C         -25.0260    6.4790   26.9630 C.3     1  UNL1        0.1388
     18 O         -25.1430    3.9660   28.2430 O.2     1  UNL1       -0.2686
     19 C         -27.4380    3.0910   25.6450 C.2     1  UNL1        0.1025
     20 N         -28.0750    2.0890   25.0030 N.2     1  UNL1       -0.2118
     21 C         -27.5430    0.8490   25.0790 C.2     1  UNL1        0.2344
     22 O         -28.1930   -0.2080   24.4770 O.2     1  UNL1       -0.4585
     23 C         -29.4600    0.0050   23.8660 C.3     1  UNL1        0.2423
     24 C         -30.0650   -1.3770   23.5730 C.3     1  UNL1        0.2292
     25 O         -30.7290   -1.8780   24.7210 O.3     1  UNL1       -0.2162
     26 C         -26.3540    0.5760   25.7770 C.3     1  UNL1        0.2439
     27 F         -25.8600   -0.6810   25.7950 F       1  UNL1       -0.2265
     28 C         -27.3803   -0.0324   29.3008 C.3     1  UNL1        0.2273
     29 O         -27.1375   -1.0118   28.5719 O.3     1  UNL1       -0.2036
     30 N         -26.4331    1.0570   29.2078 N.3     1  UNL1       -0.1668
     31 F         -21.1772    1.2345   28.0745 F       1  UNL1       -0.1996
     32 C         -21.7250    2.0193   25.6477 C.3     1  UNL1        0.2525
     33 N         -29.6375    3.0351   32.6808 N.am    1  UNL1       -0.0878
     34 C         -22.4675    0.8850   28.1795 C.2     1  UNL1        0.1878
     35 C         -25.1764    0.8029   28.6682 C.3     1  UNL1        0.1731
     36 O         -30.3306    1.2170   31.6155 O.2     1  UNL1       -0.2717
     37 N         -24.2796   -0.0015   29.3230 N.pl3   1  UNL1       -0.2855
     38 C         -28.7546    0.5665   28.9647 C.3     1  UNL1        0.0519
     39 C         -24.7247    1.2410   27.4629 C.2     1  UNL1        0.0336
     40 C         -28.7280    2.0080   29.3624 C.3     1  UNL1        0.0138
     41 C         -29.5132    2.1327   31.7516 C.2     1  UNL1        0.2607
     42 C         -22.9587    0.1513   29.2382 C.2     1  UNL1        0.0959
     43 O         -22.9164    1.3313   25.9105 O.2     1  UNL1       -0.4696
     44 C         -23.3576    1.1940   27.2027 C.2     1  UNL1        0.1626
     45 C         -28.3471    2.2412   30.8173 C.3     1  UNL1        0.0887
@<TRIPOS>BOND
     1     1     2    1
     2     2     7    1
     3     3     2    2
     4     4     3    1
     5     4     5    2
     6     5     6    1
     7     6     7    2
     8     8     1    1
     9     8     9    1
    10     8    12    1
    11     9    10    1
    12    10    11    1
    13    12    11    1
    14    13    39    1
    15    14    13    1
    16    14    15    1
    17    15    18    2
    18    16    17    1
    19    16    15    1
    20    19    14    2
    21    20    21    2
    22    20    19    1
    23    21    26    1
    24    22    21    1
    25    23    22    1
    26    24    23    1
    27    24    25    1
    28    26    27    1
    29    26    13    1
    30    28    29    1
    31    30    28    1
    32    31    34    1
    33    32    43    1
    34    34    42    2
    35    35    30    1
    36    35    37    1
    37    36    41    2
    38    37     1    1
    39    38    28    1
    40    38    40    1
    41    39    35    1
    42    40    45    1
    43    41    33    1
    44    42    37    1
    45    43    44    1
    46    44    39    2
    47    44    34    1
    48    45    41    1
