@<TRIPOS>MOLECULE
outputs/IAG933/test6/raw/output_8381_IAG933_linker_design_.xyz
 42 46 0 0 0
SMALL
GASTEIGER

@<TRIPOS>ATOM
      1 C         -24.8550   -1.0120   30.1430 C.3     1  UNL1        0.0970
      2 C         -24.9730   -2.5050   29.7880 C.2     1  UNL1       -0.0064
      3 C         -23.9060   -3.1730   29.1460 C.2     1  UNL1       -0.0029
      4 C         -23.9890   -4.5490   28.8530 C.2     1  UNL1       -0.0003
      5 C         -25.1370   -5.2800   29.2050 C.2     1  UNL1       -0.0000
      6 C         -26.2320   -4.6110   29.7840 C.2     1  UNL1       -0.0003
      7 C         -26.1550   -3.2320   30.0650 C.2     1  UNL1       -0.0029
      8 C         -25.3870   -0.6790   31.5710 C.3     1  UNL1        0.0916
      9 C         -25.1890    0.7730   32.0280 C.3     1  UNL1        0.0206
     10 C         -25.3360    0.6840   33.5440 C.3     1  UNL1        0.0203
     11 C         -24.8290   -0.7150   33.9050 C.3     1  UNL1        0.0888
     12 N         -24.7580   -1.4810   32.6460 N.3     1  UNL1       -0.2178
     13 C         -25.6880    1.6140   26.4610 C.2     1  UNL1        0.0366
     14 C         -26.2500    2.9200   26.3950 C.2     1  UNL1        0.0763
     15 C         -25.6420    4.0930   27.1230 C.2     1  UNL1        0.2664
     16 N         -25.6140    5.2520   26.4490 N.am    1  UNL1       -0.1997
     17 C         -25.0260    6.4790   26.9630 C.3     1  UNL1        0.1388
     18 O         -25.1430    3.9660   28.2430 O.2     1  UNL1       -0.2683
     19 C         -27.4380    3.0910   25.6450 C.2     1  UNL1        0.1067
     20 N         -28.0750    2.0890   25.0030 N.2     1  UNL1       -0.2081
     21 C         -27.5430    0.8490   25.0790 C.2     1  UNL1        0.2533
     22 O         -28.1930   -0.2080   24.4770 O.2     1  UNL1       -0.4558
     23 C         -29.4600    0.0050   23.8660 C.3     1  UNL1        0.2426
     24 C         -30.0650   -1.3770   23.5730 C.3     1  UNL1        0.2292
     25 O         -30.7290   -1.8780   24.7210 O.3     1  UNL1       -0.2162
     26 C         -26.3540    0.5760   25.7770 C.2     1  UNL1        0.1928
     27 F         -25.8600   -0.6810   25.7950 F       1  UNL1       -0.1992
     28 C         -22.9352    0.3862   28.6683 C.2     1  UNL1        0.0245
     29 N         -25.3749   -0.0774   29.1673 N.3     1  UNL1       -0.2593
     30 C         -23.2296    1.6294   26.6801 C.2     1  UNL1        0.0824
     31 C         -28.1931   -0.7015   29.2355 C.2     1  UNL1        0.0131
     32 C         -24.5447    1.2221   27.1800 C.2     1  UNL1        0.0117
     33 CL        -22.9505    2.4392   25.1926 Cl      1  UNL1       -0.0802
     34 C         -24.3821    0.4632   28.3899 C.3     1  UNL1        0.1064
     35 C         -29.4091   -0.5077   28.4367 C.2     1  UNL1        0.0002
     36 F         -20.9417    1.4122   27.5729 F       1  UNL1       -0.2036
     37 C         -30.6052   -1.1583   28.7867 C.2     1  UNL1        0.0204
     38 C         -22.2658    1.1434   27.6466 C.2     1  UNL1        0.1477
     39 C         -26.8606    0.1429   29.1414 C.3     1  UNL1        0.1014
     40 C         -28.2550   -1.7560   30.1491 C.2     1  UNL1        0.0959
     41 N         -29.3860   -2.4196   30.4103 N.2     1  UNL1       -0.2426
     42 C         -30.5710   -2.1016   29.8282 C.2     1  UNL1        0.0989
@<TRIPOS>BOND
     1     1    29    1
     2     2     7    1
     3     2     1    1
     4     3     2    2
     5     4     3    1
     6     4     5    2
     7     5     6    1
     8     6     7    2
     9     8     1    1
    10     8     9    1
    11     8    12    1
    12     9    10    1
    13    10    11    1
    14    12    11    1
    15    13    32    1
    16    14    13    1
    17    14    15    1
    18    15    18    2
    19    16    17    1
    20    16    15    1
    21    19    14    2
    22    20    21    2
    23    20    19    1
    24    21    26    1
    25    22    21    1
    26    23    22    1
    27    24    23    1
    28    24    25    1
    29    26    27    1
    30    26    13    2
    31    30    32    2
    32    30    38    1
    33    31    40    1
    34    32    34    1
    35    33    30    1
    36    34    28    1
    37    34    29    1
    38    35    37    1
    39    35    31    2
    40    36    38    1
    41    37    42    2
    42    38    28    2
    43    39    29    1
    44    39    31    1
    45    40    41    2
    46    42    41    1
