@<TRIPOS>MOLECULE
outputs/IAG933/test6/raw/output_8388_IAG933_linker_design_.xyz
 48 53 0 0 0
SMALL
GASTEIGER

@<TRIPOS>ATOM
      1 C         -24.8550   -1.0120   30.1430 C.3     1  UNL1        0.1557
      2 C         -24.9730   -2.5050   29.7880 C.2     1  UNL1        0.0060
      3 C         -23.9060   -3.1730   29.1460 C.2     1  UNL1       -0.0019
      4 C         -23.9890   -4.5490   28.8530 C.2     1  UNL1       -0.0002
      5 C         -25.1370   -5.2800   29.2050 C.2     1  UNL1       -0.0000
      6 C         -26.2320   -4.6110   29.7840 C.2     1  UNL1       -0.0002
      7 C         -26.1550   -3.2320   30.0650 C.2     1  UNL1       -0.0019
      8 C         -25.3870   -0.6790   31.5710 C.3     1  UNL1        0.1042
      9 C         -25.1890    0.7730   32.0280 C.3     1  UNL1        0.0217
     10 C         -25.3360    0.6840   33.5440 C.3     1  UNL1        0.0203
     11 C         -24.8290   -0.7150   33.9050 C.3     1  UNL1        0.0888
     12 N         -24.7580   -1.4810   32.6460 N.3     1  UNL1       -0.2166
     13 C         -25.6880    1.6140   26.4610 C.2     1  UNL1        0.0184
     14 C         -26.2500    2.9200   26.3950 C.2     1  UNL1        0.0704
     15 C         -25.6420    4.0930   27.1230 C.2     1  UNL1        0.2215
     16 N         -25.6140    5.2520   26.4490 N.2     1  UNL1       -0.2357
     17 C         -25.0260    6.4790   26.9630 C.3     1  UNL1        0.1550
     18 O         -25.1430    3.9660   28.2430 O.2     1  UNL1       -0.4648
     19 C         -27.4380    3.0910   25.6450 C.2     1  UNL1        0.1065
     20 N         -28.0750    2.0890   25.0030 N.2     1  UNL1       -0.2081
     21 C         -27.5430    0.8490   25.0790 C.2     1  UNL1        0.2530
     22 O         -28.1930   -0.2080   24.4770 O.2     1  UNL1       -0.4558
     23 C         -29.4600    0.0050   23.8660 C.3     1  UNL1        0.2426
     24 C         -30.0650   -1.3770   23.5730 C.3     1  UNL1        0.2292
     25 O         -30.7290   -1.8780   24.7210 O.3     1  UNL1       -0.2162
     26 C         -26.3540    0.5760   25.7770 C.2     1  UNL1        0.1892
     27 F         -25.8600   -0.6810   25.7950 F       1  UNL1       -0.1996
     28 C         -27.8071    5.3245   31.9495 C.2     1  UNL1        0.4476
     29 C         -25.4921    2.8180   29.0767 C.3     1  UNL1        0.1705
     30 O         -26.6915    5.5646   32.4882 O.co2   1  UNL1       -0.2223
     31 O         -21.2948    1.9300   27.6846 O.3     1  UNL1       -0.2201
     32 O         -25.2614   -0.2478   28.9985 O.3     1  UNL1       -0.3284
     33 O         -22.9366   -0.4726   28.4728 O.3     1  UNL1       -0.1951
     34 O         -25.2238    5.5747   30.0681 O.3     1  UNL1       -0.2176
     35 C         -22.4240    1.6027   26.9354 C.3     1  UNL1        0.1867
     36 C         -29.1697    6.0835   29.1280 C.2     1  UNL1        0.1711
     37 C         -25.5824    4.2834   30.3581 C.3     1  UNL1        0.2065
     38 N         -28.0061    4.7280   30.7757 N.am    1  UNL1       -0.2349
     39 C         -24.6029    1.9254   28.8465 C.3     1  UNL1        0.0969
     40 C         -26.9104    2.7686   29.6524 C.3     1  UNL1        0.0655
     41 C         -23.5250    1.5415   29.7516 C.3     1  UNL1        0.0679
     42 O         -28.1541    6.6137   28.9630 O.2     1  UNL1       -0.2942
     43 C         -26.9931    3.9881   30.2210 C.3     1  UNL1        0.1164
     44 C         -24.0452    0.5085   28.6056 C.3     1  UNL1        0.2229
     45 C         -30.3453    6.6079   28.3167 C.3     1  UNL1        0.0741
     46 O         -28.6971    5.8715   32.6830 O.co2   1  UNL1       -0.2223
     47 C         -24.2065    1.3627   27.1093 C.3     1  UNL1        0.0660
     48 C         -29.3165    4.9290   30.0668 C.3     1  UNL1        0.1613
@<TRIPOS>BOND
     1     1    32    1
     2     2     7    1
     3     2     1    1
     4     3     2    2
     5     4     3    1
     6     4     5    2
     7     5     6    1
     8     6     7    2
     9     8     1    1
    10     8     9    1
    11     8    12    1
    12     9    10    1
    13    10    11    1
    14    12    11    1
    15    13    47    1
    16    14    13    1
    17    14    15    1
    18    15    18    1
    19    16    17    1
    20    16    15    2
    21    18    29    1
    22    19    14    2
    23    20    21    2
    24    20    19    1
    25    21    26    1
    26    22    21    1
    27    23    22    1
    28    24    23    1
    29    24    25    1
    30    26    27    1
    31    26    13    2
    32    28    30   ar
    33    28    46   ar
    34    29    40    1
    35    29    37    1
    36    35    31    1
    37    36    48    1
    38    37    34    1
    39    38    28   am
    40    39    29    1
    41    39    41    1
    42    40    43    1
    43    42    36    2
    44    43    37    1
    45    43    38    1
    46    44    33    1
    47    44    39    1
    48    44    32    1
    49    44    41    1
    50    45    36    1
    51    47    35    1
    52    47    39    1
    53    48    38    1
