@<TRIPOS>MOLECULE
outputs/IAG933/test6/raw/output_8393_IAG933_linker_design_.xyz
 48 53 0 0 0
SMALL
GASTEIGER

@<TRIPOS>ATOM
      1 C         -24.8550   -1.0120   30.1430 C.3     1  UNL1        0.0418
      2 C         -24.9730   -2.5050   29.7880 C.2     1  UNL1       -0.0210
      3 C         -23.9060   -3.1730   29.1460 C.2     1  UNL1       -0.0042
      4 C         -23.9890   -4.5490   28.8530 C.2     1  UNL1       -0.0003
      5 C         -25.1370   -5.2800   29.2050 C.2     1  UNL1       -0.0000
      6 C         -26.2320   -4.6110   29.7840 C.2     1  UNL1       -0.0003
      7 C         -26.1550   -3.2320   30.0650 C.2     1  UNL1       -0.0042
      8 C         -25.3870   -0.6790   31.5710 C.3     1  UNL1        0.0769
      9 C         -25.1890    0.7730   32.0280 C.3     1  UNL1        0.0192
     10 C         -25.3360    0.6840   33.5440 C.3     1  UNL1        0.0202
     11 C         -24.8290   -0.7150   33.9050 C.3     1  UNL1        0.0887
     12 N         -24.7580   -1.4810   32.6460 N.3     1  UNL1       -0.2191
     13 C         -25.6880    1.6140   26.4610 C.2     1  UNL1        0.0156
     14 C         -26.2500    2.9200   26.3950 C.2     1  UNL1        0.0726
     15 C         -25.6420    4.0930   27.1230 C.2     1  UNL1        0.2661
     16 N         -25.6140    5.2520   26.4490 N.am    1  UNL1       -0.1997
     17 C         -25.0260    6.4790   26.9630 C.3     1  UNL1        0.1388
     18 O         -25.1430    3.9660   28.2430 O.2     1  UNL1       -0.2683
     19 C         -27.4380    3.0910   25.6450 C.2     1  UNL1        0.1064
     20 N         -28.0750    2.0890   25.0030 N.2     1  UNL1       -0.2081
     21 C         -27.5430    0.8490   25.0790 C.2     1  UNL1        0.2530
     22 O         -28.1930   -0.2080   24.4770 O.2     1  UNL1       -0.4558
     23 C         -29.4600    0.0050   23.8660 C.3     1  UNL1        0.2426
     24 C         -30.0650   -1.3770   23.5730 C.3     1  UNL1        0.2292
     25 O         -30.7290   -1.8780   24.7210 O.3     1  UNL1       -0.2162
     26 C         -26.3540    0.5760   25.7770 C.2     1  UNL1        0.1891
     27 F         -25.8600   -0.6810   25.7950 F       1  UNL1       -0.1996
     28 C         -24.1288    0.3717   28.1609 C.3     1  UNL1        0.0079
     29 C         -28.9596    1.5903   31.9390 C.3     1  UNL1        0.0331
     30 C         -22.7424    0.0524   28.4810 C.3     1  UNL1        0.0005
     31 C         -29.0700    2.8984   32.8353 C.3     1  UNL1        0.1509
     32 C         -27.5183    4.4436   33.7237 C.3     1  UNL1        0.3288
     33 O         -27.4423    3.4116   34.7256 O.3     1  UNL1       -0.1864
     34 C         -28.2319    1.5421   30.4988 C.3     1  UNL1        0.0172
     35 O         -28.8101   -0.3223   27.6147 O.2     1  UNL1       -0.2501
     36 C         -21.7882    1.1774   28.1349 C.3     1  UNL1        0.0000
     37 C         -28.9081    0.9492   29.5129 C.3     1  UNL1        0.1098
     38 C         -26.9037    1.8533   30.1713 C.3     1  UNL1        0.0443
     39 C         -26.2516    0.8437   29.3300 C.3     1  UNL1        0.1691
     40 C         -25.1996   -0.1425   28.9728 C.3     1  UNL1        0.0459
     41 C         -28.2910    0.1460   28.6765 C.2     1  UNL1        0.3169
     42 O         -28.6697    2.9321   35.1968 O.3     1  UNL1       -0.2153
     43 C         -24.3309    1.4167   27.1603 C.3     1  UNL1        0.0250
     44 C         -21.9269    1.8260   26.8242 C.3     1  UNL1        0.0003
     45 O         -28.2021    3.9941   32.5334 O.3     1  UNL1       -0.3245
     46 O         -26.8825   -0.1709   29.0187 O.3     1  UNL1       -0.4523
     47 C         -29.6913    2.7092   34.1848 C.3     1  UNL1        0.2116
     48 C         -23.2314    1.5541   26.1017 C.3     1  UNL1        0.0044
@<TRIPOS>BOND
     1     1    40    1
     2     2     7    1
     3     2     1    1
     4     3     2    2
     5     4     3    1
     6     4     5    2
     7     5     6    1
     8     6     7    2
     9     8     1    1
    10     8     9    1
    11     8    12    1
    12     9    10    1
    13    10    11    1
    14    12    11    1
    15    13    43    1
    16    14    13    1
    17    14    15    1
    18    15    18    2
    19    16    17    1
    20    16    15    1
    21    19    14    2
    22    20    21    2
    23    20    19    1
    24    21    26    1
    25    22    21    1
    26    23    22    1
    27    24    23    1
    28    24    25    1
    29    26    27    1
    30    26    13    2
    31    28    30    1
    32    28    40    1
    33    31    29    1
    34    31    47    1
    35    32    33    1
    36    33    42    1
    37    34    29    1
    38    35    41    2
    39    36    30    1
    40    37    34    1
    41    38    34    1
    42    39    40    1
    43    39    38    1
    44    41    46    1
    45    41    37    1
    46    43    28    1
    47    44    36    1
    48    45    31    1
    49    45    32    1
    50    46    39    1
    51    47    42    1
    52    48    44    1
    53    48    43    1
