@<TRIPOS>MOLECULE
outputs/IAG933/test6/raw/output_8398_IAG933_linker_design_.xyz
 40 44 0 0 0
SMALL
GASTEIGER

@<TRIPOS>ATOM
      1 C         -24.8550   -1.0120   30.1430 C.3     1  UNL1        0.0838
      2 C         -24.9730   -2.5050   29.7880 C.2     1  UNL1       -0.0173
      3 C         -23.9060   -3.1730   29.1460 C.2     1  UNL1       -0.0041
      4 C         -23.9890   -4.5490   28.8530 C.2     1  UNL1       -0.0003
      5 C         -25.1370   -5.2800   29.2050 C.2     1  UNL1       -0.0000
      6 C         -26.2320   -4.6110   29.7840 C.2     1  UNL1       -0.0003
      7 C         -26.1550   -3.2320   30.0650 C.2     1  UNL1       -0.0041
      8 C         -25.3870   -0.6790   31.5710 C.3     1  UNL1        0.0819
      9 C         -25.1890    0.7730   32.0280 C.3     1  UNL1        0.0327
     10 C         -25.3360    0.6840   33.5440 C.3     1  UNL1        0.0215
     11 C         -24.8290   -0.7150   33.9050 C.3     1  UNL1        0.0887
     12 N         -24.7580   -1.4810   32.6460 N.3     1  UNL1       -0.2190
     13 C         -25.6880    1.6140   26.4610 C.2     1  UNL1        0.0261
     14 C         -26.2500    2.9200   26.3950 C.2     1  UNL1        0.0731
     15 C         -25.6420    4.0930   27.1230 C.2     1  UNL1        0.2661
     16 N         -25.6140    5.2520   26.4490 N.am    1  UNL1       -0.1997
     17 C         -25.0260    6.4790   26.9630 C.3     1  UNL1        0.1388
     18 O         -25.1430    3.9660   28.2430 O.2     1  UNL1       -0.2683
     19 C         -27.4380    3.0910   25.6450 C.2     1  UNL1        0.1064
     20 N         -28.0750    2.0890   25.0030 N.2     1  UNL1       -0.2081
     21 C         -27.5430    0.8490   25.0790 C.2     1  UNL1        0.2530
     22 O         -28.1930   -0.2080   24.4770 O.2     1  UNL1       -0.4558
     23 C         -29.4600    0.0050   23.8660 C.3     1  UNL1        0.2426
     24 C         -30.0650   -1.3770   23.5730 C.3     1  UNL1        0.2292
     25 O         -30.7290   -1.8780   24.7210 O.3     1  UNL1       -0.2162
     26 C         -26.3540    0.5760   25.7770 C.2     1  UNL1        0.1896
     27 F         -25.8600   -0.6810   25.7950 F       1  UNL1       -0.1996
     28 C         -23.4936    1.7919   26.0552 C.2     1  UNL1        0.2146
     29 C         -24.0630    1.0790   28.2934 C.3     1  UNL1        0.1777
     30 O         -25.9884   -0.3941   28.2032 O.3     1  UNL1       -0.2054
     31 C         -21.3511    1.1006   28.1954 C.2     1  UNL1        0.3145
     32 C         -24.7096    1.8401   30.9773 C.3     1  UNL1        0.0626
     33 N         -20.6966    0.1275   28.4549 N.2     1  UNL1       -0.0979
     34 F         -20.5916    2.0897   27.9088 F       1  UNL1       -0.1627
     35 N         -22.6240    1.0747   28.4098 N.pl3   1  UNL1       -0.1773
     36 O         -22.3395    2.1459   26.1591 O.2     1  UNL1       -0.2878
     37 C         -24.4685    1.4560   27.0168 C.3     1  UNL1        0.1258
     38 N         -24.8621    1.4741   29.4359 N.3     1  UNL1       -0.2325
     39 C         -25.0769    3.1486   31.7698 C.3     1  UNL1        0.0175
     40 C         -24.8377   -0.0434   28.8893 C.3     1  UNL1        0.2103
@<TRIPOS>BOND
     1     1     2    1
     2     1     8    1
     3     2     7    1
     4     3     2    2
     5     4     3    1
     6     4     5    2
     7     5     6    1
     8     6     7    2
     9     8     9    1
    10     8    12    1
    11     9    10    1
    12    10    11    1
    13    12    11    1
    14    13    37    1
    15    14    13    1
    16    14    15    1
    17    15    18    2
    18    16    17    1
    19    16    15    1
    20    19    14    2
    21    20    21    2
    22    20    19    1
    23    21    26    1
    24    22    21    1
    25    23    22    1
    26    24    23    1
    27    24    25    1
    28    26    27    1
    29    26    13    2
    30    28    36    2
    31    29    35    1
    32    29    40    1
    33    29    38    1
    34    30    40    1
    35    31    35    1
    36    31    33    2
    37    32    39    1
    38    32     9    1
    39    34    31    1
    40    37    28    1
    41    37    29    1
    42    38    32    1
    43    40    38    1
    44    40     1    1
