@<TRIPOS>MOLECULE
outputs/IAG933/test6/raw/output_8399_IAG933_linker_design_.xyz
 41 45 0 0 0
SMALL
GASTEIGER

@<TRIPOS>ATOM
      1 C         -24.8550   -1.0120   30.1430 C.3     1  UNL1        0.1157
      2 C         -24.9730   -2.5050   29.7880 C.2     1  UNL1       -0.0029
      3 C         -23.9060   -3.1730   29.1460 C.2     1  UNL1       -0.0026
      4 C         -23.9890   -4.5490   28.8530 C.2     1  UNL1       -0.0003
      5 C         -25.1370   -5.2800   29.2050 C.2     1  UNL1       -0.0000
      6 C         -26.2320   -4.6110   29.7840 C.2     1  UNL1       -0.0003
      7 C         -26.1550   -3.2320   30.0650 C.2     1  UNL1       -0.0026
      8 C         -25.3870   -0.6790   31.5710 C.3     1  UNL1        0.0952
      9 C         -25.1890    0.7730   32.0280 C.3     1  UNL1        0.0209
     10 C         -25.3360    0.6840   33.5440 C.3     1  UNL1        0.0203
     11 C         -24.8290   -0.7150   33.9050 C.3     1  UNL1        0.0888
     12 N         -24.7580   -1.4810   32.6460 N.3     1  UNL1       -0.2174
     13 C         -25.6880    1.6140   26.4610 C.2     1  UNL1        0.0749
     14 C         -26.2500    2.9200   26.3950 C.2     1  UNL1        0.0698
     15 C         -25.6420    4.0930   27.1230 C.2     1  UNL1        0.2637
     16 N         -25.6140    5.2520   26.4490 N.am    1  UNL1       -0.2000
     17 C         -25.0260    6.4790   26.9630 C.3     1  UNL1        0.1388
     18 O         -25.1430    3.9660   28.2430 O.2     1  UNL1       -0.2686
     19 C         -27.4380    3.0910   25.6450 C.3     1  UNL1        0.1604
     20 N         -28.0750    2.0890   25.0030 N.2     1  UNL1       -0.2340
     21 C         -27.5430    0.8490   25.0790 C.2     1  UNL1        0.2355
     22 O         -28.1930   -0.2080   24.4770 O.2     1  UNL1       -0.4585
     23 C         -29.4600    0.0050   23.8660 C.3     1  UNL1        0.2423
     24 C         -30.0650   -1.3770   23.5730 C.3     1  UNL1        0.2292
     25 O         -30.7290   -1.8780   24.7210 O.3     1  UNL1       -0.2162
     26 C         -26.3540    0.5760   25.7770 C.3     1  UNL1        0.2710
     27 F         -25.8600   -0.6810   25.7950 F       1  UNL1       -0.2210
     28 O         -21.0917    1.9001   26.2056 O.3     1  UNL1       -0.4437
     29 C         -22.5996    0.7048   28.0351 C.1     1  UNL1       -0.0666
     30 C         -22.4936    1.9691   26.0471 C.2     1  UNL1        0.3626
     31 N         -24.7773    1.3047   27.3504 N.pl3   1  UNL1       -0.2543
     32 C         -21.8171    0.1643   28.7901 C.2     1  UNL1        0.1059
     33 C         -20.5147    0.5547   28.2794 C.3     1  UNL1        0.1001
     34 N         -22.0858   -0.5156   29.8998 N.pl3   1  UNL1       -0.1243
     35 O         -22.8532    2.6079   25.0670 O.2     1  UNL1       -0.2428
     36 C         -23.3336    1.3080   27.0884 C.2     1  UNL1        0.1661
     37 N         -25.1112   -0.1473   29.1714 N.am    1  UNL1       -0.2511
     38 C         -25.2846    1.0166   28.6111 C.3     1  UNL1        0.2357
     39 C         -20.6477    1.4452   27.2906 C.3     1  UNL1        0.2156
     40 O         -27.1841   -0.7090   28.4156 O.2     1  UNL1       -0.2711
     41 C         -26.2137   -0.1273   28.5433 C.2     1  UNL1        0.2656
@<TRIPOS>BOND
     1     1     2    1
     2     2     7    1
     3     3     2    2
     4     4     3    1
     5     4     5    2
     6     5     6    1
     7     6     7    2
     8     8     1    1
     9     8     9    1
    10     8    12    1
    11     9    10    1
    12    10    11    1
    13    12    11    1
    14    13    31    1
    15    14    13    2
    16    14    15    1
    17    15    18    2
    18    16    17    1
    19    16    15    1
    20    19    14    1
    21    20    21    2
    22    20    19    1
    23    21    26    1
    24    22    21    1
    25    23    22    1
    26    24    23    1
    27    24    25    1
    28    26    27    1
    29    26    13    1
    30    28    39    1
    31    29    32    2
    32    30    28    1
    33    30    36    1
    34    32    34    1
    35    33    32    1
    36    35    30    2
    37    36    31    1
    38    36    29    2
    39    37     1    1
    40    38    31    1
    41    38    37    1
    42    39    33    1
    43    40    41    2
    44    41    38    1
    45    41    37   am
