@<TRIPOS>MOLECULE
No_84-gen_results/8p0m/2024-11-27-11-27-31/
 8 8 0 0 0
SMALL
GASTEIGER

@<TRIPOS>ATOM
      1 C         -28.0162   -0.8135   28.8779 C.3     1  UNL1        0.0000
      2 C         -28.4690   -0.7850   29.8287 C.3     1  UNL1        0.0000
      3 C         -27.0871    0.2903   28.6377 C.3     1  UNL1        0.0000
      4 C         -26.0239    0.3644   29.2526 C.3     1  UNL1        0.0000
      5 C         -26.2460    0.4334   30.7986 C.3     1  UNL1        0.0000
      6 C         -27.7081   -0.6876   31.1981 C.3     1  UNL1        0.0000
      7 C         -27.1744    1.0782   27.3744 C.3     1  UNL1        0.0000
      8 C         -26.7189    2.2261   27.3302 C.3     1  UNL1        0.0000
@<TRIPOS>BOND
     1     1     2    1
     2     1     3    1
     3     3     4    1
     4     4     5    1
     5     2     6    1
     6     5     6    1
     7     3     7    1
     8     7     8    1
