@<TRIPOS>MOLECULE
outputs/IAG933/test6/raw/output_8400_IAG933_linker_design_.xyz
 46 51 0 0 0
SMALL
GASTEIGER

@<TRIPOS>ATOM
      1 C         -24.8550   -1.0120   30.1430 C.3     1  UNL1        0.0618
      2 C         -24.9730   -2.5050   29.7880 C.2     1  UNL1       -0.0170
      3 C         -23.9060   -3.1730   29.1460 C.2     1  UNL1       -0.0039
      4 C         -23.9890   -4.5490   28.8530 C.2     1  UNL1       -0.0003
      5 C         -25.1370   -5.2800   29.2050 C.2     1  UNL1       -0.0000
      6 C         -26.2320   -4.6110   29.7840 C.2     1  UNL1       -0.0003
      7 C         -26.1550   -3.2320   30.0650 C.2     1  UNL1       -0.0039
      8 C         -25.3870   -0.6790   31.5710 C.3     1  UNL1        0.0809
      9 C         -25.1890    0.7730   32.0280 C.3     1  UNL1        0.0195
     10 C         -25.3360    0.6840   33.5440 C.3     1  UNL1        0.0203
     11 C         -24.8290   -0.7150   33.9050 C.3     1  UNL1        0.0887
     12 N         -24.7580   -1.4810   32.6460 N.3     1  UNL1       -0.2188
     13 C         -25.6880    1.6140   26.4610 C.3     1  UNL1        0.0936
     14 C         -26.2500    2.9200   26.3950 C.2     1  UNL1        0.0589
     15 C         -25.6420    4.0930   27.1230 C.2     1  UNL1        0.2628
     16 N         -25.6140    5.2520   26.4490 N.am    1  UNL1       -0.2000
     17 C         -25.0260    6.4790   26.9630 C.3     1  UNL1        0.1388
     18 O         -25.1430    3.9660   28.2430 O.2     1  UNL1       -0.2686
     19 C         -27.4380    3.0910   25.6450 C.2     1  UNL1        0.1025
     20 N         -28.0750    2.0890   25.0030 N.2     1  UNL1       -0.2118
     21 C         -27.5430    0.8490   25.0790 C.2     1  UNL1        0.2344
     22 O         -28.1930   -0.2080   24.4770 O.2     1  UNL1       -0.4585
     23 C         -29.4600    0.0050   23.8660 C.3     1  UNL1        0.2423
     24 C         -30.0650   -1.3770   23.5730 C.3     1  UNL1        0.2292
     25 O         -30.7290   -1.8780   24.7210 O.3     1  UNL1       -0.2162
     26 C         -26.3540    0.5760   25.7770 C.3     1  UNL1        0.2440
     27 F         -25.8600   -0.6810   25.7950 F       1  UNL1       -0.2265
     28 O         -29.9807    0.0223   27.9306 O.3     1  UNL1       -0.3544
     29 C         -24.2433   -0.1026   29.2252 C.2     1  UNL1       -0.0028
     30 C         -21.0562    1.2749   27.6805 C.3     1  UNL1        0.0310
     31 C         -29.7959    2.8990   31.8536 C.3     1  UNL1        0.1422
     32 N         -26.7316    0.8202   29.1023 N.pl3   1  UNL1       -0.2375
     33 C         -24.7262    1.1375   27.4019 C.2     1  UNL1       -0.0008
     34 C         -22.4716    0.8299   27.9306 C.2     1  UNL1       -0.0224
     35 C         -22.8693    0.0490   29.0175 C.2     1  UNL1       -0.0069
     36 C         -30.5775    2.2129   29.2080 C.3     1  UNL1        0.0611
     37 C         -30.7291    0.7530   28.8672 C.3     1  UNL1        0.1446
     38 C         -25.2703    0.6377   28.5610 C.2     1  UNL1        0.0581
     39 C         -28.1613   -1.1137   29.1438 C.3     1  UNL1        0.0339
     40 C         -31.5456    2.5127   30.3435 C.3     1  UNL1        0.1446
     41 C         -23.4065    1.2760   27.0206 C.2     1  UNL1       -0.0069
     42 C         -29.3620    1.5665   31.2546 C.3     1  UNL1        0.0340
     43 C         -29.1255    1.8803   29.7788 C.3     1  UNL1        0.0297
     44 O         -30.9482    3.4410   31.2227 O.3     1  UNL1       -0.3537
     45 C         -28.5630    0.0178   28.1814 C.3     1  UNL1        0.1350
     46 C         -28.1083    1.3347   28.7537 C.3     1  UNL1        0.1196
@<TRIPOS>BOND
     1     1    29    1
     2     2     7    1
     3     2     1    1
     4     3     2    2
     5     4     3    1
     6     4     5    2
     7     5     6    1
     8     6     7    2
     9     8     1    1
    10     8     9    1
    11     8    12    1
    12     9    10    1
    13    10    11    1
    14    12    11    1
    15    13    33    1
    16    14    13    1
    17    14    15    1
    18    15    18    2
    19    16    17    1
    20    16    15    1
    21    19    14    2
    22    20    21    2
    23    20    19    1
    24    21    26    1
    25    22    21    1
    26    23    22    1
    27    24    23    1
    28    24    25    1
    29    26    27    1
    30    26    13    1
    31    28    45    1
    32    28    37    1
    33    30    34    1
    34    33    38    1
    35    34    35    2
    36    35    29    1
    37    36    37    1
    38    36    43    1
    39    36    40    1
    40    38    32    1
    41    38    29    2
    42    40    44    1
    43    41    33    2
    44    41    34    1
    45    42    31    1
    46    43    42    1
    47    44    31    1
    48    45    46    1
    49    45    39    1
    50    46    32    1
    51    46    43    1
