@<TRIPOS>MOLECULE
outputs/IAG933/test6/raw/output_8406_IAG933_linker_design_.xyz
 45 49 0 0 0
SMALL
GASTEIGER

@<TRIPOS>ATOM
      1 C         -24.8550   -1.0120   30.1430 C.3     1  UNL1        0.0547
      2 C         -24.9730   -2.5050   29.7880 C.2     1  UNL1       -0.0198
      3 C         -23.9060   -3.1730   29.1460 C.2     1  UNL1       -0.0042
      4 C         -23.9890   -4.5490   28.8530 C.2     1  UNL1       -0.0003
      5 C         -25.1370   -5.2800   29.2050 C.2     1  UNL1       -0.0000
      6 C         -26.2320   -4.6110   29.7840 C.2     1  UNL1       -0.0003
      7 C         -26.1550   -3.2320   30.0650 C.2     1  UNL1       -0.0042
      8 C         -25.3870   -0.6790   31.5710 C.3     1  UNL1        0.0782
      9 C         -25.1890    0.7730   32.0280 C.3     1  UNL1        0.0192
     10 C         -25.3360    0.6840   33.5440 C.3     1  UNL1        0.0202
     11 C         -24.8290   -0.7150   33.9050 C.3     1  UNL1        0.0887
     12 N         -24.7580   -1.4810   32.6460 N.3     1  UNL1       -0.2191
     13 C         -25.6880    1.6140   26.4610 C.3     1  UNL1        0.0885
     14 C         -26.2500    2.9200   26.3950 C.2     1  UNL1        0.0586
     15 C         -25.6420    4.0930   27.1230 C.2     1  UNL1        0.2627
     16 N         -25.6140    5.2520   26.4490 N.am    1  UNL1       -0.2000
     17 C         -25.0260    6.4790   26.9630 C.3     1  UNL1        0.1388
     18 O         -25.1430    3.9660   28.2430 O.2     1  UNL1       -0.2686
     19 C         -27.4380    3.0910   25.6450 C.2     1  UNL1        0.1025
     20 N         -28.0750    2.0890   25.0030 N.2     1  UNL1       -0.2118
     21 C         -27.5430    0.8490   25.0790 C.2     1  UNL1        0.2344
     22 O         -28.1930   -0.2080   24.4770 O.2     1  UNL1       -0.4585
     23 C         -29.4600    0.0050   23.8660 C.3     1  UNL1        0.2423
     24 C         -30.0650   -1.3770   23.5730 C.3     1  UNL1        0.2292
     25 O         -30.7290   -1.8780   24.7210 O.3     1  UNL1       -0.2162
     26 C         -26.3540    0.5760   25.7770 C.3     1  UNL1        0.2437
     27 F         -25.8600   -0.6810   25.7950 F       1  UNL1       -0.2265
     28 S         -28.4502    0.3134   29.7192 S.3     1  UNL1       -0.0716
     29 C         -29.5721    1.1499   28.7477 C.3     1  UNL1        0.0703
     30 N         -23.0843    0.3911   29.4969 N.3     1  UNL1       -0.2106
     31 O         -32.0009    0.2139   30.5799 O.3     1  UNL1       -0.3537
     32 C         -30.6214    1.7004   29.3637 C.3     1  UNL1        0.0444
     33 C         -25.7441    0.7789   28.8213 C.3     1  UNL1        0.0467
     34 C         -31.8734   -0.8487   29.7179 C.3     1  UNL1        0.1431
     35 O         -27.8343    1.4974   30.2985 O.3     1  UNL1       -0.1709
     36 C         -22.1585    1.2003   27.4993 C.2     1  UNL1        0.1900
     37 C         -29.2434   -1.2411   29.8188 C.3     1  UNL1        0.0703
     38 C         -26.9645   -0.2346   28.7350 C.3     1  UNL1        0.0731
     39 C         -23.5942    1.3151   27.1344 C.2     1  UNL1        0.0309
     40 C         -24.5033   -0.0684   29.3846 C.3     1  UNL1        0.0832
     41 C         -24.7797    1.2306   27.6169 C.2     1  UNL1       -0.0323
     42 C         -21.9141    0.4424   28.8024 C.3     1  UNL1        0.1574
     43 C         -30.6016   -1.3126   29.4001 C.3     1  UNL1        0.0444
     44 C         -31.0292    1.2640   30.7412 C.3     1  UNL1        0.1431
     45 O         -21.2704    1.8492   26.9165 O.2     1  UNL1       -0.2898
@<TRIPOS>BOND
     1     1     2    1
     2     2     7    1
     3     3     2    2
     4     4     3    1
     5     4     5    2
     6     5     6    1
     7     6     7    2
     8     8     1    1
     9     8     9    1
    10     8    12    1
    11     9    10    1
    12    10    11    1
    13    12    11    1
    14    13    41    1
    15    14    13    1
    16    14    15    1
    17    15    18    2
    18    16    17    1
    19    16    15    1
    20    19    14    2
    21    20    21    2
    22    20    19    1
    23    21    26    1
    24    22    21    1
    25    23    22    1
    26    24    23    1
    27    24    25    1
    28    26    27    1
    29    26    13    1
    30    28    37    1
    31    28    35    1
    32    29    32    1
    33    29    28    1
    34    31    44    1
    35    32    44    1
    36    33    38    1
    37    33    40    1
    38    34    31    1
    39    36    42    1
    40    38    28    1
    41    39    36    1
    42    39    41    2
    43    40    30    1
    44    40     1    1
    45    41    33    1
    46    42    30    1
    47    43    34    1
    48    43    37    1
    49    45    36    2
