@<TRIPOS>MOLECULE
outputs/IAG933/test6/raw/output_841_IAG933_linker_design_.xyz
 46 50 0 0 0
SMALL
GASTEIGER

@<TRIPOS>ATOM
      1 C         -24.8550   -1.0120   30.1430 C.3     1  UNL1        0.1111
      2 C         -24.9730   -2.5050   29.7880 C.2     1  UNL1       -0.0030
      3 C         -23.9060   -3.1730   29.1460 C.2     1  UNL1       -0.0026
      4 C         -23.9890   -4.5490   28.8530 C.2     1  UNL1       -0.0003
      5 C         -25.1370   -5.2800   29.2050 C.2     1  UNL1       -0.0000
      6 C         -26.2320   -4.6110   29.7840 C.2     1  UNL1       -0.0003
      7 C         -26.1550   -3.2320   30.0650 C.2     1  UNL1       -0.0026
      8 C         -25.3870   -0.6790   31.5710 C.3     1  UNL1        0.0950
      9 C         -25.1890    0.7730   32.0280 C.3     1  UNL1        0.0209
     10 C         -25.3360    0.6840   33.5440 C.3     1  UNL1        0.0203
     11 C         -24.8290   -0.7150   33.9050 C.3     1  UNL1        0.0888
     12 N         -24.7580   -1.4810   32.6460 N.3     1  UNL1       -0.2174
     13 C         -25.6880    1.6140   26.4610 C.2     1  UNL1        0.0197
     14 C         -26.2500    2.9200   26.3950 C.2     1  UNL1        0.0727
     15 C         -25.6420    4.0930   27.1230 C.2     1  UNL1        0.2661
     16 N         -25.6140    5.2520   26.4490 N.am    1  UNL1       -0.1997
     17 C         -25.0260    6.4790   26.9630 C.3     1  UNL1        0.1388
     18 O         -25.1430    3.9660   28.2430 O.2     1  UNL1       -0.2683
     19 C         -27.4380    3.0910   25.6450 C.2     1  UNL1        0.1064
     20 N         -28.0750    2.0890   25.0030 N.2     1  UNL1       -0.2081
     21 C         -27.5430    0.8490   25.0790 C.2     1  UNL1        0.2530
     22 O         -28.1930   -0.2080   24.4770 O.2     1  UNL1       -0.4558
     23 C         -29.4600    0.0050   23.8660 C.3     1  UNL1        0.2426
     24 C         -30.0650   -1.3770   23.5730 C.3     1  UNL1        0.2292
     25 O         -30.7290   -1.8780   24.7210 O.3     1  UNL1       -0.2162
     26 C         -26.3540    0.5760   25.7770 C.2     1  UNL1        0.1892
     27 F         -25.8600   -0.6810   25.7950 F       1  UNL1       -0.1996
     28 C         -21.9031    0.8192   27.6055 C.3     1  UNL1        0.3130
     29 F         -22.4200    0.0729   29.6475 F       1  UNL1       -0.2297
     30 F         -29.3326   -1.9319   29.8044 F       1  UNL1       -0.1996
     31 O         -22.2543    1.6653   26.5295 O.3     1  UNL1       -0.3243
     32 C         -28.9895    2.1105   31.4493 C.3     1  UNL1        0.0006
     33 F         -29.6819   -1.1421   27.8527 F       1  UNL1       -0.1996
     34 C         -26.6225    0.2073   29.1504 C.2     1  UNL1        0.0260
     35 C         -27.1950    1.3549   29.7853 C.3     1  UNL1        0.0411
     36 C         -22.8886    0.9913   28.7692 C.3     1  UNL1        0.2402
     37 C         -23.5022    1.2504   26.0355 C.3     1  UNL1        0.1512
     38 F         -20.5572    1.0625   27.8424 F       1  UNL1       -0.2009
     39 C         -30.9359    0.8342   29.3426 C.3     1  UNL1        0.0060
     40 N         -25.2873    0.0072   29.1402 N.pl3   1  UNL1       -0.3058
     41 C         -27.5491   -0.8590   28.8142 C.2     1  UNL1        0.0489
     42 C         -24.3627    0.6700   28.4338 C.3     1  UNL1        0.1172
     43 C         -29.4963    0.4456   29.5739 C.3     1  UNL1        0.0659
     44 C         -28.5652    1.3219   30.2150 C.3     1  UNL1        0.0112
     45 C         -24.5224    1.2027   27.2166 C.3     1  UNL1        0.0756
     46 C         -29.0285   -0.8340   29.0478 C.3     1  UNL1        0.2832
@<TRIPOS>BOND
     1     1    40    1
     2     2     7    1
     3     2     1    1
     4     3     2    2
     5     4     3    1
     6     4     5    2
     7     5     6    1
     8     6     7    2
     9     8     1    1
    10     8     9    1
    11     8    12    1
    12     9    10    1
    13    10    11    1
    14    12    11    1
    15    14    13    1
    16    14    15    1
    17    15    18    2
    18    16    17    1
    19    16    15    1
    20    19    14    2
    21    20    21    2
    22    20    19    1
    23    21    26    1
    24    22    21    1
    25    23    22    1
    26    24    23    1
    27    24    25    1
    28    26    27    1
    29    26    13    2
    30    28    38    1
    31    28    36    1
    32    31    28    1
    33    33    46    1
    34    34    35    1
    35    35    44    1
    36    36    29    1
    37    37    31    1
    38    37    45    1
    39    40    34    1
    40    41    46    1
    41    41    34    2
    42    42    36    1
    43    42    40    1
    44    43    39    1
    45    43    44    1
    46    44    32    1
    47    45    13    1
    48    45    42    1
    49    46    43    1
    50    46    30    1
