@<TRIPOS>MOLECULE
outputs/IAG933/test6/raw/output_8411_IAG933_linker_design_.xyz
 41 45 0 0 0
SMALL
GASTEIGER

@<TRIPOS>ATOM
      1 C         -24.8550   -1.0120   30.1430 C.3     1  UNL1        0.1203
      2 C         -24.9730   -2.5050   29.7880 C.2     1  UNL1       -0.0027
      3 C         -23.9060   -3.1730   29.1460 C.2     1  UNL1       -0.0026
      4 C         -23.9890   -4.5490   28.8530 C.2     1  UNL1       -0.0003
      5 C         -25.1370   -5.2800   29.2050 C.2     1  UNL1       -0.0000
      6 C         -26.2320   -4.6110   29.7840 C.2     1  UNL1       -0.0003
      7 C         -26.1550   -3.2320   30.0650 C.2     1  UNL1       -0.0026
      8 C         -25.3870   -0.6790   31.5710 C.3     1  UNL1        0.0953
      9 C         -25.1890    0.7730   32.0280 C.3     1  UNL1        0.0209
     10 C         -25.3360    0.6840   33.5440 C.3     1  UNL1        0.0203
     11 C         -24.8290   -0.7150   33.9050 C.3     1  UNL1        0.0888
     12 N         -24.7580   -1.4810   32.6460 N.3     1  UNL1       -0.2174
     13 C         -25.6880    1.6140   26.4610 C.2     1  UNL1        0.0319
     14 C         -26.2500    2.9200   26.3950 C.2     1  UNL1        0.0739
     15 C         -25.6420    4.0930   27.1230 C.2     1  UNL1        0.2662
     16 N         -25.6140    5.2520   26.4490 N.am    1  UNL1       -0.1997
     17 C         -25.0260    6.4790   26.9630 C.3     1  UNL1        0.1388
     18 O         -25.1430    3.9660   28.2430 O.2     1  UNL1       -0.2683
     19 C         -27.4380    3.0910   25.6450 C.2     1  UNL1        0.1065
     20 N         -28.0750    2.0890   25.0030 N.2     1  UNL1       -0.2081
     21 C         -27.5430    0.8490   25.0790 C.2     1  UNL1        0.2530
     22 O         -28.1930   -0.2080   24.4770 O.2     1  UNL1       -0.4558
     23 C         -29.4600    0.0050   23.8660 C.3     1  UNL1        0.2426
     24 C         -30.0650   -1.3770   23.5730 C.3     1  UNL1        0.2292
     25 O         -30.7290   -1.8780   24.7210 O.3     1  UNL1       -0.2162
     26 C         -26.3540    0.5760   25.7770 C.2     1  UNL1        0.1904
     27 F         -25.8600   -0.6810   25.7950 F       1  UNL1       -0.1995
     28 C         -24.5478    1.3693   27.2781 C.3     1  UNL1        0.1049
     29 C         -21.2292    0.7521   28.6550 C.2     1  UNL1        0.1480
     30 C         -20.8521    1.5534   27.6111 C.3     1  UNL1        0.2072
     31 C         -23.5926    0.1913   28.8393 C.3     1  UNL1        0.2652
     32 O         -27.5754    1.2666   28.8396 O.co2   1  UNL1       -0.2222
     33 N         -23.3893    1.5970   27.3070 N.3     1  UNL1       -0.2385
     34 C         -22.7760    2.2773   26.2344 C.3     1  UNL1        0.2207
     35 O         -27.2328   -0.8439   28.6305 O.co2   1  UNL1       -0.2222
     36 C         -26.9498    0.2252   28.8308 C.2     1  UNL1        0.4499
     37 O         -22.3311    0.8327   29.6379 O.2     1  UNL1       -0.4605
     38 N         -25.2386   -0.0410   29.0625 N.am    1  UNL1       -0.2054
     39 C         -23.7688    0.9783   27.9004 C.3     1  UNL1        0.1396
     40 O         -21.3730    2.0595   26.3859 O.3     1  UNL1       -0.3290
     41 C         -20.6905   -0.3684   28.9375 C.2     1  UNL1        0.0379
@<TRIPOS>BOND
     1     1    38    1
     2     2     7    1
     3     2     1    1
     4     3     2    2
     5     4     3    1
     6     4     5    2
     7     5     6    1
     8     6     7    2
     9     8     1    1
    10     8     9    1
    11     8    12    1
    12     9    10    1
    13    10    11    1
    14    12    11    1
    15    14    13    1
    16    14    15    1
    17    15    18    2
    18    16    17    1
    19    16    15    1
    20    19    14    2
    21    20    21    2
    22    20    19    1
    23    21    26    1
    24    22    21    1
    25    23    22    1
    26    24    23    1
    27    24    25    1
    28    26    27    1
    29    26    13    2
    30    28    13    1
    31    28    33    1
    32    28    39    1
    33    29    41    2
    34    29    37    1
    35    30    29    1
    36    31    38    1
    37    31    37    1
    38    33    34    1
    39    33    39    1
    40    34    40    1
    41    35    36   ar
    42    36    32   ar
    43    36    38   am
    44    39    31    1
    45    40    30    1
