@<TRIPOS>MOLECULE
outputs/IAG933/test6/raw/output_8412_IAG933_linker_design_.xyz
 40 43 0 0 0
SMALL
GASTEIGER

@<TRIPOS>ATOM
      1 C         -24.8550   -1.0120   30.1430 C.3     1  UNL1        0.1416
      2 C         -24.9730   -2.5050   29.7880 C.2     1  UNL1       -0.0006
      3 C         -23.9060   -3.1730   29.1460 C.2     1  UNL1       -0.0026
      4 C         -23.9890   -4.5490   28.8530 C.2     1  UNL1       -0.0003
      5 C         -25.1370   -5.2800   29.2050 C.2     1  UNL1       -0.0000
      6 C         -26.2320   -4.6110   29.7840 C.2     1  UNL1       -0.0003
      7 C         -26.1550   -3.2320   30.0650 C.2     1  UNL1       -0.0026
      8 C         -25.3870   -0.6790   31.5710 C.3     1  UNL1        0.0975
      9 C         -25.1890    0.7730   32.0280 C.3     1  UNL1        0.0210
     10 C         -25.3360    0.6840   33.5440 C.3     1  UNL1        0.0203
     11 C         -24.8290   -0.7150   33.9050 C.3     1  UNL1        0.0888
     12 N         -24.7580   -1.4810   32.6460 N.3     1  UNL1       -0.2174
     13 C         -25.6880    1.6140   26.4610 C.2     1  UNL1        0.0644
     14 C         -26.2500    2.9200   26.3950 C.2     1  UNL1        0.0766
     15 C         -25.6420    4.0930   27.1230 C.2     1  UNL1        0.2662
     16 N         -25.6140    5.2520   26.4490 N.am    1  UNL1       -0.1997
     17 C         -25.0260    6.4790   26.9630 C.3     1  UNL1        0.1388
     18 O         -25.1430    3.9660   28.2430 O.2     1  UNL1       -0.2683
     19 C         -27.4380    3.0910   25.6450 C.2     1  UNL1        0.1065
     20 N         -28.0750    2.0890   25.0030 N.2     1  UNL1       -0.2081
     21 C         -27.5430    0.8490   25.0790 C.2     1  UNL1        0.2531
     22 O         -28.1930   -0.2080   24.4770 O.2     1  UNL1       -0.4558
     23 C         -29.4600    0.0050   23.8660 C.3     1  UNL1        0.2426
     24 C         -30.0650   -1.3770   23.5730 C.3     1  UNL1        0.2292
     25 O         -30.7290   -1.8780   24.7210 O.3     1  UNL1       -0.2162
     26 C         -26.3540    0.5760   25.7770 C.2     1  UNL1        0.1931
     27 F         -25.8600   -0.6810   25.7950 F       1  UNL1       -0.1994
     28 O         -23.3048    2.6831   25.4931 O.2     1  UNL1       -0.2261
     29 O         -22.3456    0.1702   30.6254 O.2     1  UNL1       -0.2727
     30 C         -22.8060    1.9663   26.4831 C.2     1  UNL1        0.4069
     31 C         -20.9007    1.6097   27.6921 C.3     1  UNL1        0.2192
     32 C         -24.6548    1.1173   27.3432 C.3     1  UNL1        0.2481
     33 C         -23.5900    2.4088   28.8269 C.3     1  UNL1        0.1210
     34 O         -21.4750    1.5424   26.3426 O.3     1  UNL1       -0.4340
     35 N         -23.4237    1.7416   27.5821 N.am    1  UNL1       -0.2163
     36 O         -24.6682   -0.0339   28.0219 O.3     1  UNL1       -0.2398
     37 N         -24.0650   -0.1999   29.2461 N.am    1  UNL1       -0.1622
     38 C         -20.3709   -0.1418   28.8197 C.3     1  UNL1        0.0136
     39 C         -22.7336    0.0495   29.4862 C.2     1  UNL1        0.2513
     40 C         -21.5661    0.2646   28.3470 C.3     1  UNL1        0.1224
@<TRIPOS>BOND
     1     1     2    1
     2     2     7    1
     3     3     2    2
     4     4     3    1
     5     4     5    2
     6     5     6    1
     7     6     7    2
     8     8     1    1
     9     8     9    1
    10     8    12    1
    11     9    10    1
    12    10    11    1
    13    12    11    1
    14    14    13    1
    15    14    15    1
    16    15    18    2
    17    16    17    1
    18    16    15    1
    19    19    14    2
    20    20    21    2
    21    20    19    1
    22    21    26    1
    23    22    21    1
    24    23    22    1
    25    24    23    1
    26    24    25    1
    27    26    27    1
    28    26    13    2
    29    28    30    2
    30    30    35   am
    31    31    40    1
    32    32    13    1
    33    32    35    1
    34    32    36    1
    35    34    30    1
    36    34    31    1
    37    35    33    1
    38    36    37    1
    39    37    39   am
    40    37     1    1
    41    39    29    2
    42    40    38    1
    43    40    39    1
