@<TRIPOS>MOLECULE
outputs/IAG933/test6/raw/output_8413_IAG933_linker_design_.xyz
 43 47 0 0 0
SMALL
GASTEIGER

@<TRIPOS>ATOM
      1 C         -24.8550   -1.0120   30.1430 C.3     1  UNL1        0.0438
      2 C         -24.9730   -2.5050   29.7880 C.2     1  UNL1       -0.0208
      3 C         -23.9060   -3.1730   29.1460 C.2     1  UNL1       -0.0042
      4 C         -23.9890   -4.5490   28.8530 C.2     1  UNL1       -0.0003
      5 C         -25.1370   -5.2800   29.2050 C.2     1  UNL1       -0.0000
      6 C         -26.2320   -4.6110   29.7840 C.2     1  UNL1       -0.0003
      7 C         -26.1550   -3.2320   30.0650 C.2     1  UNL1       -0.0042
      8 C         -25.3870   -0.6790   31.5710 C.3     1  UNL1        0.0785
      9 C         -25.1890    0.7730   32.0280 C.3     1  UNL1        0.0349
     10 C         -25.3360    0.6840   33.5440 C.3     1  UNL1        0.0216
     11 C         -24.8290   -0.7150   33.9050 C.3     1  UNL1        0.0887
     12 N         -24.7580   -1.4810   32.6460 N.3     1  UNL1       -0.2191
     13 C         -25.6880    1.6140   26.4610 C.3     1  UNL1        0.0702
     14 C         -26.2500    2.9200   26.3950 C.2     1  UNL1        0.0548
     15 C         -25.6420    4.0930   27.1230 C.2     1  UNL1        0.2624
     16 N         -25.6140    5.2520   26.4490 N.am    1  UNL1       -0.2000
     17 C         -25.0260    6.4790   26.9630 C.3     1  UNL1        0.1388
     18 O         -25.1430    3.9660   28.2430 O.2     1  UNL1       -0.2687
     19 C         -27.4380    3.0910   25.6450 C.2     1  UNL1        0.1021
     20 N         -28.0750    2.0890   25.0030 N.2     1  UNL1       -0.2119
     21 C         -27.5430    0.8490   25.0790 C.2     1  UNL1        0.2341
     22 O         -28.1930   -0.2080   24.4770 O.2     1  UNL1       -0.4585
     23 C         -29.4600    0.0050   23.8660 C.3     1  UNL1        0.2423
     24 C         -30.0650   -1.3770   23.5730 C.3     1  UNL1        0.2292
     25 O         -30.7290   -1.8780   24.7210 O.3     1  UNL1       -0.2162
     26 C         -26.3540    0.5760   25.7770 C.3     1  UNL1        0.2400
     27 F         -25.8600   -0.6810   25.7950 F       1  UNL1       -0.2269
     28 N         -26.2689    3.1685   31.2674 N.3     1  UNL1       -0.2717
     29 C         -26.0127    4.7579   33.1954 C.3     1  UNL1        0.0173
     30 C         -24.0809    2.2884   30.5085 C.3     1  UNL1        0.1579
     31 C         -27.5317    4.9724   32.9485 C.3     1  UNL1        0.0015
     32 C         -27.6547    3.2556   30.7123 C.3     1  UNL1        0.0721
     33 C         -22.9542    1.5551   28.3760 C.3     1  UNL1        0.1153
     34 C         -23.9704    0.7006   27.8274 C.3     1  UNL1        0.0300
     35 C         -21.9152    2.0907   26.2115 C.3     1  UNL1        0.0025
     36 C         -28.1095    5.4223   31.6203 C.3     1  UNL1        0.0015
     37 C         -23.2664    1.9884   25.7916 C.3     1  UNL1        0.0006
     38 O         -23.2390    2.1538   29.5562 O.3     1  UNL1       -0.3548
     39 C         -25.4706    1.8202   31.1325 C.3     1  UNL1        0.0886
     40 C         -21.6995    1.8862   27.6374 C.3     1  UNL1        0.0296
     41 C         -27.9637    4.5858   30.3443 C.3     1  UNL1        0.0173
     42 C         -25.3162    3.9584   32.0477 C.3     1  UNL1        0.0721
     43 C         -24.2617    1.4282   26.6870 C.3     1  UNL1        0.0098
@<TRIPOS>BOND
     1     2     7    1
     2     2     1    1
     3     3     2    2
     4     4     3    1
     5     4     5    2
     6     5     6    1
     7     6     7    2
     8     8     1    1
     9     8     9    1
    10     8    12    1
    11     9    39    1
    12     9    10    1
    13    10    11    1
    14    12    11    1
    15    13    14    1
    16    13    43    1
    17    14    15    1
    18    15    18    2
    19    16    17    1
    20    16    15    1
    21    19    14    2
    22    20    21    2
    23    20    19    1
    24    21    26    1
    25    22    21    1
    26    23    22    1
    27    24    23    1
    28    24    25    1
    29    26    27    1
    30    26    13    1
    31    28    42    1
    32    31    29    1
    33    32    28    1
    34    33    38    1
    35    34    33    1
    36    35    40    1
    37    36    31    1
    38    37    35    1
    39    38    30    1
    40    39    30    1
    41    39    28    1
    42    40    33    1
    43    41    32    1
    44    41    36    1
    45    42    29    1
    46    43    37    1
    47    43    34    1
