@<TRIPOS>MOLECULE
outputs/IAG933/test6/raw/output_8418_IAG933_linker_design_.xyz
 44 48 0 0 0
SMALL
GASTEIGER

@<TRIPOS>ATOM
      1 C         -24.8550   -1.0120   30.1430 C.3     1  UNL1        0.1006
      2 C         -24.9730   -2.5050   29.7880 C.2     1  UNL1       -0.0063
      3 C         -23.9060   -3.1730   29.1460 C.2     1  UNL1       -0.0029
      4 C         -23.9890   -4.5490   28.8530 C.2     1  UNL1       -0.0003
      5 C         -25.1370   -5.2800   29.2050 C.2     1  UNL1       -0.0000
      6 C         -26.2320   -4.6110   29.7840 C.2     1  UNL1       -0.0003
      7 C         -26.1550   -3.2320   30.0650 C.2     1  UNL1       -0.0029
      8 C         -25.3870   -0.6790   31.5710 C.3     1  UNL1        0.0917
      9 C         -25.1890    0.7730   32.0280 C.3     1  UNL1        0.0206
     10 C         -25.3360    0.6840   33.5440 C.3     1  UNL1        0.0203
     11 C         -24.8290   -0.7150   33.9050 C.3     1  UNL1        0.0888
     12 N         -24.7580   -1.4810   32.6460 N.3     1  UNL1       -0.2178
     13 C         -25.6880    1.6140   26.4610 C.3     1  UNL1        0.1324
     14 C         -26.2500    2.9200   26.3950 C.2     1  UNL1        0.0697
     15 C         -25.6420    4.0930   27.1230 C.2     1  UNL1        0.2637
     16 N         -25.6140    5.2520   26.4490 N.am    1  UNL1       -0.2000
     17 C         -25.0260    6.4790   26.9630 C.3     1  UNL1        0.1388
     18 O         -25.1430    3.9660   28.2430 O.2     1  UNL1       -0.2686
     19 C         -27.4380    3.0910   25.6450 C.2     1  UNL1        0.1035
     20 N         -28.0750    2.0890   25.0030 N.2     1  UNL1       -0.2118
     21 C         -27.5430    0.8490   25.0790 C.2     1  UNL1        0.2355
     22 O         -28.1930   -0.2080   24.4770 O.2     1  UNL1       -0.4585
     23 C         -29.4600    0.0050   23.8660 C.3     1  UNL1        0.2423
     24 C         -30.0650   -1.3770   23.5730 C.3     1  UNL1        0.2292
     25 O         -30.7290   -1.8780   24.7210 O.3     1  UNL1       -0.2162
     26 C         -26.3540    0.5760   25.7770 C.3     1  UNL1        0.2547
     27 F         -25.8600   -0.6810   25.7950 F       1  UNL1       -0.2254
     28 C         -22.7628    1.9928   26.7304 C.3     1  UNL1        0.1597
     29 C         -23.5994    1.2883   27.5626 C.3     1  UNL1        0.1082
     30 O         -29.1634    1.9254   28.8172 O.3     1  UNL1       -0.1932
     31 C         -20.7193    0.8215   27.6615 C.3     1  UNL1        0.1742
     32 C         -28.4655    2.7322   29.7993 C.3     1  UNL1        0.2868
     33 C         -23.1821    0.3152   28.7746 C.3     1  UNL1        0.0958
     34 C         -26.6087    1.5370   29.2966 C.2     1  UNL1        0.2700
     35 N         -25.0693    1.1578   27.5088 N.3     1  UNL1       -0.2154
     36 N         -27.1269    2.6099   29.7412 N.2     1  UNL1       -0.2031
     37 O         -21.5044    1.8424   27.2944 O.3     1  UNL1       -0.3496
     38 C         -25.4580    0.8289   28.8125 C.3     1  UNL1        0.3066
     39 O         -26.7995    0.2757   28.8140 O.2     1  UNL1       -0.4302
     40 C         -31.0316    5.4724   29.6443 C.3     1  UNL1        0.0028
     41 N         -24.5898   -0.1996   29.3175 N.3     1  UNL1       -0.2186
     42 C         -30.2933    4.2861   28.9954 C.3     1  UNL1        0.0377
     43 O         -28.0970    5.0789   29.5310 O.3     1  UNL1       -0.2182
     44 C         -29.0514    4.0465   29.7237 C.3     1  UNL1        0.2056
@<TRIPOS>BOND
     1     1     2    1
     2     2     7    1
     3     3     2    2
     4     4     3    1
     5     4     5    2
     6     5     6    1
     7     6     7    2
     8     8     1    1
     9     8     9    1
    10     8    12    1
    11     9    10    1
    12    10    11    1
    13    12    11    1
    14    13    14    1
    15    14    15    1
    16    15    18    2
    17    16    17    1
    18    16    15    1
    19    19    14    2
    20    20    21    2
    21    20    19    1
    22    21    26    1
    23    22    21    1
    24    23    22    1
    25    24    23    1
    26    24    25    1
    27    26    27    1
    28    26    13    1
    29    28    37    1
    30    29    28    1
    31    29    33    1
    32    32    30    1
    33    33    41    1
    34    34    36    2
    35    35    13    1
    36    35    29    1
    37    35    38    1
    38    36    32    1
    39    37    31    1
    40    38    39    1
    41    38    34    1
    42    38    41    1
    43    39    34    1
    44    41     1    1
    45    42    40    1
    46    42    44    1
    47    44    43    1
    48    44    32    1
