@<TRIPOS>MOLECULE
No_842-gen_results/8p0m/2024-11-27-11-27-31/
 19 22 0 0 0
SMALL
GASTEIGER

@<TRIPOS>ATOM
      1 C         -28.0162   -0.8135   28.8779 C.3     1  UNL1        0.0536
      2 C         -27.0636   -0.1189   28.6079 C.ar    1  UNL1       -0.0031
      3 C         -27.0010    0.6913   27.4910 C.ar    1  UNL1       -0.0027
      4 C         -25.8548    1.4825   27.0830 C.ar    1  UNL1       -0.0006
      5 C         -24.6901    1.4526   27.8807 C.ar    1  UNL1       -0.0030
      6 C         -24.7379    0.6010   29.0416 C.ar    1  UNL1       -0.0060
      7 C         -25.8234   -0.1688   29.3887 C.ar    1  UNL1        0.0607
      8 C         -29.2455   -0.0678   29.1937 C.2     1  UNL1       -0.0213
      9 C         -29.5938    0.1182   30.4252 C.2     1  UNL1       -0.0030
     10 C         -28.6786   -0.0141   31.4308 C.ar    1  UNL1        0.0147
     11 C         -28.9486   -0.0817   32.6750 C.ar    1  UNL1        0.0013
     12 C         -27.9042   -0.3023   33.6514 C.ar    1  UNL1        0.0001
     13 C         -26.5561   -0.4172   33.2559 C.ar    1  UNL1        0.0013
     14 C         -26.3120   -0.3869   31.9317 C.ar    1  UNL1        0.0163
     15 C         -27.2969   -0.1771   31.0245 C.ar    1  UNL1        0.0682
     16 N         -26.7266   -0.0934   29.8945 N.pl3   1  UNL1       -0.2161
     17 N         -26.3643    1.3917   30.0592 N.3     1  UNL1       -0.1257
     18 C         -25.3313    1.8939   30.6332 C.3     1  UNL1        0.1167
     19 C         -23.9449    0.9888   30.0589 C.3     1  UNL1        0.0484
@<TRIPOS>BOND
     1     1     2    1
     2     1     8    1
     3     8     9    2
     4     9    10    1
     5     7    16    1
     6    15    16    1
     7    16    17    1
     8     6    19    1
     9    18    19    1
    10    18    17    1
    11     2     3   ar
    12     3     4   ar
    13     4     5   ar
    14     5     6   ar
    15     6     7   ar
    16     7     2   ar
    17    10    11   ar
    18    11    12   ar
    19    12    13   ar
    20    13    14   ar
    21    14    15   ar
    22    15    10   ar
