@<TRIPOS>MOLECULE
outputs/IAG933/test6/raw/output_8421_IAG933_linker_design_.xyz
 47 51 0 0 0
SMALL
GASTEIGER

@<TRIPOS>ATOM
      1 C         -24.8550   -1.0120   30.1430 C.3     1  UNL1        0.0978
      2 C         -24.9730   -2.5050   29.7880 C.2     1  UNL1       -0.0064
      3 C         -23.9060   -3.1730   29.1460 C.2     1  UNL1       -0.0029
      4 C         -23.9890   -4.5490   28.8530 C.2     1  UNL1       -0.0003
      5 C         -25.1370   -5.2800   29.2050 C.2     1  UNL1       -0.0000
      6 C         -26.2320   -4.6110   29.7840 C.2     1  UNL1       -0.0003
      7 C         -26.1550   -3.2320   30.0650 C.2     1  UNL1       -0.0029
      8 C         -25.3870   -0.6790   31.5710 C.3     1  UNL1        0.0916
      9 C         -25.1890    0.7730   32.0280 C.3     1  UNL1        0.0206
     10 C         -25.3360    0.6840   33.5440 C.3     1  UNL1        0.0203
     11 C         -24.8290   -0.7150   33.9050 C.3     1  UNL1        0.0888
     12 N         -24.7580   -1.4810   32.6460 N.3     1  UNL1       -0.2178
     13 C         -25.6880    1.6140   26.4610 C.2     1  UNL1        0.0937
     14 C         -26.2500    2.9200   26.3950 C.2     1  UNL1        0.0903
     15 C         -25.6420    4.0930   27.1230 C.2     1  UNL1        0.2676
     16 N         -25.6140    5.2520   26.4490 N.am    1  UNL1       -0.1997
     17 C         -25.0260    6.4790   26.9630 C.3     1  UNL1        0.1388
     18 O         -25.1430    3.9660   28.2430 O.2     1  UNL1       -0.2683
     19 C         -27.4380    3.0910   25.6450 C.2     1  UNL1        0.1080
     20 N         -28.0750    2.0890   25.0030 N.2     1  UNL1       -0.2080
     21 C         -27.5430    0.8490   25.0790 C.2     1  UNL1        0.2546
     22 O         -28.1930   -0.2080   24.4770 O.2     1  UNL1       -0.4558
     23 C         -29.4600    0.0050   23.8660 C.3     1  UNL1        0.2426
     24 C         -30.0650   -1.3770   23.5730 C.3     1  UNL1        0.2292
     25 O         -30.7290   -1.8780   24.7210 O.3     1  UNL1       -0.2162
     26 C         -26.3540    0.5760   25.7770 C.2     1  UNL1        0.2067
     27 F         -25.8600   -0.6810   25.7950 F       1  UNL1       -0.1979
     28 O         -21.9507    0.0267   29.2308 O.2     1  UNL1       -0.2855
     29 O         -23.2067    2.9598   25.7668 O.2     1  UNL1       -0.2670
     30 N         -25.2682   -0.1987   28.9106 N.3     1  UNL1       -0.2479
     31 C         -24.2658    0.6368   28.2444 C.3     1  UNL1        0.2068
     32 C         -28.2255    5.1834   30.7791 C.2     1  UNL1        0.0111
     33 C         -28.8720    0.7957   29.2483 C.3     1  UNL1        0.0061
     34 C         -27.6703    2.9108   30.5030 C.2     1  UNL1       -0.0221
     35 C         -28.0776   -0.5442   29.0303 C.3     1  UNL1        0.0177
     36 C         -26.1549    4.2894   31.8077 C.2     1  UNL1        0.0111
     37 C         -28.3543    3.9823   30.0871 C.2     1  UNL1       -0.0034
     38 C         -26.6036   -0.3112   28.5738 C.3     1  UNL1        0.0743
     39 C         -28.4552    1.5977   30.5485 C.3     1  UNL1        0.0264
     40 N         -24.4546    1.3619   27.0596 N.am    1  UNL1       -0.2320
     41 C         -22.1508    1.5937   27.4297 C.2     1  UNL1        0.2311
     42 C         -22.8009    0.6968   28.3456 C.2     1  UNL1        0.2387
     43 C         -23.2074    2.0695   26.6578 C.2     1  UNL1        0.2847
     44 CL        -27.4401    6.3632   33.1295 Cl      1  UNL1       -0.0822
     45 C         -27.1987    5.2114   31.7566 C.2     1  UNL1        0.0577
     46 C         -26.3366    3.1400   31.1542 C.2     1  UNL1       -0.0034
     47 F         -20.8382    1.8230   27.3450 F       1  UNL1       -0.1962
@<TRIPOS>BOND
     1     1    30    1
     2     2     7    1
     3     2     1    1
     4     3     2    2
     5     4     3    1
     6     4     5    2
     7     5     6    1
     8     6     7    2
     9     8     1    1
    10     8     9    1
    11     8    12    1
    12     9    10    1
    13    10    11    1
    14    12    11    1
    15    13    40    1
    16    14    13    1
    17    14    15    1
    18    15    18    2
    19    16    17    1
    20    16    15    1
    21    19    14    2
    22    20    21    2
    23    20    19    1
    24    21    26    1
    25    22    21    1
    26    23    22    1
    27    24    23    1
    28    24    25    1
    29    26    27    1
    30    26    13    2
    31    29    43    2
    32    31    42    1
    33    31    30    1
    34    32    45    1
    35    33    39    1
    36    34    39    1
    37    34    46    2
    38    35    33    1
    39    37    34    1
    40    37    32    2
    41    38    30    1
    42    38    35    1
    43    40    31    1
    44    41    42    2
    45    42    28    1
    46    43    40   am
    47    43    41    1
    48    45    36    2
    49    45    44    1
    50    46    36    1
    51    47    41    1
