@<TRIPOS>MOLECULE
outputs/IAG933/test6/raw/output_8424_IAG933_linker_design_.xyz
 41 44 0 0 0
SMALL
GASTEIGER

@<TRIPOS>ATOM
      1 C         -24.8550   -1.0120   30.1430 C.3     1  UNL1        0.1142
      2 C         -24.9730   -2.5050   29.7880 C.2     1  UNL1       -0.0029
      3 C         -23.9060   -3.1730   29.1460 C.2     1  UNL1       -0.0026
      4 C         -23.9890   -4.5490   28.8530 C.2     1  UNL1       -0.0003
      5 C         -25.1370   -5.2800   29.2050 C.2     1  UNL1       -0.0000
      6 C         -26.2320   -4.6110   29.7840 C.2     1  UNL1       -0.0003
      7 C         -26.1550   -3.2320   30.0650 C.2     1  UNL1       -0.0026
      8 C         -25.3870   -0.6790   31.5710 C.3     1  UNL1        0.0951
      9 C         -25.1890    0.7730   32.0280 C.3     1  UNL1        0.0209
     10 C         -25.3360    0.6840   33.5440 C.3     1  UNL1        0.0203
     11 C         -24.8290   -0.7150   33.9050 C.3     1  UNL1        0.0888
     12 N         -24.7580   -1.4810   32.6460 N.3     1  UNL1       -0.2174
     13 C         -25.6880    1.6140   26.4610 C.3     1  UNL1        0.0724
     14 C         -26.2500    2.9200   26.3950 C.2     1  UNL1        0.0549
     15 C         -25.6420    4.0930   27.1230 C.2     1  UNL1        0.2624
     16 N         -25.6140    5.2520   26.4490 N.am    1  UNL1       -0.2000
     17 C         -25.0260    6.4790   26.9630 C.3     1  UNL1        0.1388
     18 O         -25.1430    3.9660   28.2430 O.2     1  UNL1       -0.2687
     19 C         -27.4380    3.0910   25.6450 C.2     1  UNL1        0.1021
     20 N         -28.0750    2.0890   25.0030 N.2     1  UNL1       -0.2119
     21 C         -27.5430    0.8490   25.0790 C.2     1  UNL1        0.2341
     22 O         -28.1930   -0.2080   24.4770 O.2     1  UNL1       -0.4585
     23 C         -29.4600    0.0050   23.8660 C.3     1  UNL1        0.2423
     24 C         -30.0650   -1.3770   23.5730 C.3     1  UNL1        0.2292
     25 O         -30.7290   -1.8780   24.7210 O.3     1  UNL1       -0.2162
     26 C         -26.3540    0.5760   25.7770 C.3     1  UNL1        0.2401
     27 F         -25.8600   -0.6810   25.7950 F       1  UNL1       -0.2269
     28 C         -28.9101    2.0176   28.8775 C.3     1  UNL1        0.0111
     29 C         -25.0857    1.1498   27.7106 C.3     1  UNL1        0.0391
     30 C         -23.1346    0.4973   28.2428 C.2     1  UNL1        0.3354
     31 C         -21.1640    1.6299   27.2380 C.3     1  UNL1        0.2557
     32 O         -22.6799    1.6100   27.5132 O.3     1  UNL1       -0.4433
     33 N         -25.5292   -0.1869   29.0945 N.am    1  UNL1       -0.2679
     34 C         -27.3855    1.7669   29.0260 C.3     1  UNL1        0.0782
     35 O         -27.8039   -0.5708   28.7903 O.2     1  UNL1       -0.2749
     36 C         -28.3128    2.3898   30.1195 C.3     1  UNL1        0.0281
     37 O         -22.4993   -0.2156   28.9645 O.2     1  UNL1       -0.2483
     38 C         -26.9119    0.2250   28.9937 C.2     1  UNL1        0.2258
     39 C         -29.4925    2.8824   31.1632 C.3     1  UNL1        0.1098
     40 N         -29.0246    3.9137   32.2148 N.3     1  UNL1       -0.1314
     41 C         -24.6096    0.2746   28.1394 C.3     1  UNL1        0.1753
@<TRIPOS>BOND
     1     1    33    1
     2     2     7    1
     3     2     1    1
     4     3     2    2
     5     4     3    1
     6     4     5    2
     7     5     6    1
     8     6     7    2
     9     8     1    1
    10     8     9    1
    11     8    12    1
    12     9    10    1
    13    10    11    1
    14    12    11    1
    15    13    29    1
    16    14    13    1
    17    14    15    1
    18    15    18    2
    19    16    17    1
    20    16    15    1
    21    19    14    2
    22    20    21    2
    23    20    19    1
    24    21    26    1
    25    22    21    1
    26    23    22    1
    27    24    23    1
    28    24    25    1
    29    26    27    1
    30    26    13    1
    31    28    34    1
    32    28    36    1
    33    30    37    2
    34    31    32    1
    35    32    30    1
    36    34    38    1
    37    34    36    1
    38    35    38    2
    39    36    39    1
    40    38    33   am
    41    39    40    1
    42    41    29    1
    43    41    30    1
    44    41    33    1
