@<TRIPOS>MOLECULE
No_843-gen_results/8p0m/2024-11-27-11-27-31/
 13 13 0 0 0
SMALL
GASTEIGER

@<TRIPOS>ATOM
      1 C         -28.0162   -0.8135   28.8779 C.3     1  UNL1        0.4186
      2 C         -27.0636   -0.1189   28.6079 C.ar    1  UNL1        0.0714
      3 C         -25.7923   -0.4302   29.0761 C.ar    1  UNL1        0.0041
      4 C         -24.5456    0.3494   28.8225 C.ar    1  UNL1        0.0065
      5 C         -24.6586    1.4196   27.8878 C.ar    1  UNL1        0.0798
      6 C         -25.9471    1.6811   27.3792 C.ar    1  UNL1        0.0065
      7 C         -27.0439    0.9739   27.6871 C.ar    1  UNL1        0.0041
      8 F         -27.9170   -2.0334   29.1421 F       1  UNL1       -0.1659
      9 F         -28.9823   -0.7243   27.9004 F       1  UNL1       -0.1659
     10 F         -28.6145   -0.2571   30.0261 F       1  UNL1       -0.1659
     11 C         -23.4608    2.1805   27.6471 C.2     1  UNL1        0.3878
     12 O         -23.5014    3.2168   27.0570 O.co2   1  UNL1       -0.2406
     13 O         -22.2524    1.7713   28.0822 O.co2   1  UNL1       -0.2406
@<TRIPOS>BOND
     1     1     2    1
     2     1     8    1
     3     1     9    1
     4     1    10    1
     5     5    11    1
     6    11    12   ar
     7    11    13   ar
     8     2     3   ar
     9     3     4   ar
    10     4     5   ar
    11     5     6   ar
    12     6     7   ar
    13     7     2   ar
