@<TRIPOS>MOLECULE
outputs/IAG933/test6/raw/output_8433_IAG933_linker_design_.xyz
 48 53 0 0 0
SMALL
GASTEIGER

@<TRIPOS>ATOM
      1 C         -24.8550   -1.0120   30.1430 C.3     1  UNL1        0.0697
      2 C         -24.9730   -2.5050   29.7880 C.2     1  UNL1       -0.0184
      3 C         -23.9060   -3.1730   29.1460 C.2     1  UNL1       -0.0041
      4 C         -23.9890   -4.5490   28.8530 C.2     1  UNL1       -0.0003
      5 C         -25.1370   -5.2800   29.2050 C.2     1  UNL1       -0.0000
      6 C         -26.2320   -4.6110   29.7840 C.2     1  UNL1       -0.0003
      7 C         -26.1550   -3.2320   30.0650 C.2     1  UNL1       -0.0041
      8 C         -25.3870   -0.6790   31.5710 C.3     1  UNL1        0.0795
      9 C         -25.1890    0.7730   32.0280 C.3     1  UNL1        0.0193
     10 C         -25.3360    0.6840   33.5440 C.3     1  UNL1        0.0202
     11 C         -24.8290   -0.7150   33.9050 C.3     1  UNL1        0.0887
     12 N         -24.7580   -1.4810   32.6460 N.3     1  UNL1       -0.2190
     13 C         -25.6880    1.6140   26.4610 C.2     1  UNL1        0.0303
     14 C         -26.2500    2.9200   26.3950 C.2     1  UNL1        0.0738
     15 C         -25.6420    4.0930   27.1230 C.2     1  UNL1        0.2662
     16 N         -25.6140    5.2520   26.4490 N.am    1  UNL1       -0.1997
     17 C         -25.0260    6.4790   26.9630 C.3     1  UNL1        0.1388
     18 O         -25.1430    3.9660   28.2430 O.2     1  UNL1       -0.2683
     19 C         -27.4380    3.0910   25.6450 C.2     1  UNL1        0.1065
     20 N         -28.0750    2.0890   25.0030 N.2     1  UNL1       -0.2081
     21 C         -27.5430    0.8490   25.0790 C.2     1  UNL1        0.2530
     22 O         -28.1930   -0.2080   24.4770 O.2     1  UNL1       -0.4558
     23 C         -29.4600    0.0050   23.8660 C.3     1  UNL1        0.2426
     24 C         -30.0650   -1.3770   23.5730 C.3     1  UNL1        0.2292
     25 O         -30.7290   -1.8780   24.7210 O.3     1  UNL1       -0.2162
     26 C         -26.3540    0.5760   25.7770 C.2     1  UNL1        0.1904
     27 F         -25.8600   -0.6810   25.7950 F       1  UNL1       -0.1995
     28 C         -30.8545   -0.4654   31.9852 C.3     1  UNL1        0.0118
     29 N         -24.4294    0.5735   28.4477 N.3     1  UNL1       -0.2574
     30 N         -27.6495   -0.4478   28.3028 N.3     1  UNL1       -0.1280
     31 C         -24.5957    1.2760   27.4215 C.3     1  UNL1        0.0837
     32 N         -26.8374   -0.0021   29.1034 N.3     1  UNL1       -0.1727
     33 C         -25.4335   -0.0804   29.1627 C.3     1  UNL1        0.1403
     34 C         -27.9059   -0.0517   29.3512 C.3     1  UNL1        0.1650
     35 C         -23.2357    1.7712   26.8214 C.3     1  UNL1        0.0220
     36 C         -30.1118    1.3391   30.5608 C.3     1  UNL1        0.0141
     37 C         -30.7898   -0.0512   30.5132 C.3     1  UNL1        0.1035
     38 C         -30.1716   -1.1710   29.6275 C.2     1  UNL1        0.3643
     39 C         -28.1879    2.3352   29.2904 C.3     1  UNL1        0.0028
     40 O         -30.4880   -1.1816   28.4173 O.co2   1  UNL1       -0.2457
     41 C         -22.3038    0.8591   27.6002 C.3     1  UNL1        0.0177
     42 C         -28.6403    1.1207   30.1518 C.3     1  UNL1        0.0347
     43 C         -22.9387    0.3293   28.8984 C.3     1  UNL1        0.0736
     44 C         -28.3229    3.6408   30.0998 C.3     1  UNL1        0.0001
     45 O         -29.3460   -2.0790   29.9945 O.co2   1  UNL1       -0.2457
     46 C         -20.8776    1.3998   27.6580 C.3     1  UNL1        0.0015
     47 C         -29.1661    2.7564   28.2192 C.3     1  UNL1        0.0001
     48 C         -29.5019    3.8822   29.2261 C.3     1  UNL1        0.0000
@<TRIPOS>BOND
     1     1    33    1
     2     2     7    1
     3     2     1    1
     4     3     2    2
     5     4     3    1
     6     4     5    2
     7     5     6    1
     8     6     7    2
     9     8     1    1
    10     8     9    1
    11     8    12    1
    12     9    10    1
    13    10    11    1
    14    12    11    1
    15    14    13    1
    16    14    15    1
    17    15    18    2
    18    16    17    1
    19    16    15    1
    20    19    14    2
    21    20    21    2
    22    20    19    1
    23    21    26    1
    24    22    21    1
    25    23    22    1
    26    24    23    1
    27    24    25    1
    28    26    27    1
    29    26    13    2
    30    29    43    1
    31    30    32    1
    32    30    34    1
    33    31    13    1
    34    31    29    1
    35    32    33    1
    36    32    34    1
    37    33    29    1
    38    34    42    1
    39    35    31    1
    40    35    41    1
    41    37    36    1
    42    37    28    1
    43    38    45   ar
    44    38    37    1
    45    39    44    1
    46    39    42    1
    47    40    38   ar
    48    41    46    1
    49    41    43    1
    50    42    36    1
    51    47    48    1
    52    47    39    1
    53    48    44    1
