@<TRIPOS>MOLECULE
outputs/IAG933/test6/raw/output_8435_IAG933_linker_design_.xyz
 45 48 0 0 0
SMALL
GASTEIGER

@<TRIPOS>ATOM
      1 C         -24.8550   -1.0120   30.1430 C.3     1  UNL1        0.1185
      2 C         -24.9730   -2.5050   29.7880 C.2     1  UNL1       -0.0026
      3 C         -23.9060   -3.1730   29.1460 C.2     1  UNL1       -0.0026
      4 C         -23.9890   -4.5490   28.8530 C.2     1  UNL1       -0.0003
      5 C         -25.1370   -5.2800   29.2050 C.2     1  UNL1       -0.0000
      6 C         -26.2320   -4.6110   29.7840 C.2     1  UNL1       -0.0003
      7 C         -26.1550   -3.2320   30.0650 C.2     1  UNL1       -0.0026
      8 C         -25.3870   -0.6790   31.5710 C.3     1  UNL1        0.0955
      9 C         -25.1890    0.7730   32.0280 C.3     1  UNL1        0.0209
     10 C         -25.3360    0.6840   33.5440 C.3     1  UNL1        0.0203
     11 C         -24.8290   -0.7150   33.9050 C.3     1  UNL1        0.0888
     12 N         -24.7580   -1.4810   32.6460 N.3     1  UNL1       -0.2174
     13 C         -25.6880    1.6140   26.4610 C.2     1  UNL1        0.0407
     14 C         -26.2500    2.9200   26.3950 C.2     1  UNL1        0.0766
     15 C         -25.6420    4.0930   27.1230 C.2     1  UNL1        0.2664
     16 N         -25.6140    5.2520   26.4490 N.am    1  UNL1       -0.1997
     17 C         -25.0260    6.4790   26.9630 C.3     1  UNL1        0.1388
     18 O         -25.1430    3.9660   28.2430 O.2     1  UNL1       -0.2683
     19 C         -27.4380    3.0910   25.6450 C.2     1  UNL1        0.1067
     20 N         -28.0750    2.0890   25.0030 N.2     1  UNL1       -0.2081
     21 C         -27.5430    0.8490   25.0790 C.2     1  UNL1        0.2533
     22 O         -28.1930   -0.2080   24.4770 O.2     1  UNL1       -0.4558
     23 C         -29.4600    0.0050   23.8660 C.3     1  UNL1        0.2426
     24 C         -30.0650   -1.3770   23.5730 C.3     1  UNL1        0.2292
     25 O         -30.7290   -1.8780   24.7210 O.3     1  UNL1       -0.2162
     26 C         -26.3540    0.5760   25.7770 C.2     1  UNL1        0.1931
     27 F         -25.8600   -0.6810   25.7950 F       1  UNL1       -0.1992
     28 S         -22.8617    0.9607   29.1568 S.2     1  UNL1       -0.0418
     29 N         -30.7029    3.3947   28.7516 N.3     1  UNL1       -0.0515
     30 F         -20.9387    1.6738   27.5930 F       1  UNL1       -0.1961
     31 CL        -22.7756    2.4421   25.2178 Cl      1  UNL1       -0.0793
     32 C         -26.9392   -0.1327   28.9622 C.2     1  UNL1        0.2332
     33 O         -29.8182    0.8861   27.8929 O.3     1  UNL1       -0.2090
     34 C         -27.9673    0.7082   29.7255 C.3     1  UNL1        0.1316
     35 C         -24.5101    1.3177   27.2439 C.ar    1  UNL1        0.0358
     36 O         -30.3754    4.2000   27.9367 O.3     1  UNL1        0.0197
     37 C         -24.4885    0.7405   28.4952 C.ar    1  UNL1        0.0872
     38 O         -27.5098   -1.0659   28.2898 O.2     1  UNL1       -0.2744
     39 C         -23.2145    1.7091   26.7736 C.ar    1  UNL1        0.0931
     40 N         -28.1288    3.4317   29.8899 N.2     1  UNL1        0.1960
     41 C         -29.3284    1.2940   29.2002 C.3     1  UNL1        0.2747
     42 C         -29.6108    2.7597   29.5385 C.2     1  UNL1        0.4220
     43 C         -22.2483    1.5086   27.7160 C.ar    1  UNL1        0.1814
     44 C         -32.0536    3.0435   29.0218 C.3     1  UNL1        0.3089
     45 N         -25.4828   -0.0407   29.2227 N.am    1  UNL1       -0.2496
@<TRIPOS>BOND
     1     1    45    1
     2     2     7    1
     3     2     1    1
     4     3     2    2
     5     4     3    1
     6     4     5    2
     7     5     6    1
     8     6     7    2
     9     8     1    1
    10     8     9    1
    11     8    12    1
    12     9    10    1
    13    10    11    1
    14    12    11    1
    15    13    35    1
    16    14    13    1
    17    14    15    1
    18    15    18    2
    19    16    17    1
    20    16    15    1
    21    19    14    2
    22    20    21    2
    23    20    19    1
    24    21    26    1
    25    22    21    1
    26    23    22    1
    27    24    23    1
    28    24    25    1
    29    26    27    1
    30    26    13    2
    31    29    44    1
    32    29    42    1
    33    30    43    1
    34    31    39    1
    35    32    45   am
    36    32    34    1
    37    35    37   ar
    38    36    29    1
    39    37    28   ar
    40    37    45    1
    41    38    32    2
    42    39    35   ar
    43    39    43   ar
    44    41    33    1
    45    41    42    1
    46    41    34    1
    47    42    40    2
    48    43    28   ar
