@<TRIPOS>MOLECULE
outputs/IAG933/test6/raw/output_8438_IAG933_linker_design_.xyz
 44 48 0 0 0
SMALL
GASTEIGER

@<TRIPOS>ATOM
      1 C         -24.8550   -1.0120   30.1430 C.3     1  UNL1        0.0705
      2 C         -24.9730   -2.5050   29.7880 C.2     1  UNL1       -0.0186
      3 C         -23.9060   -3.1730   29.1460 C.2     1  UNL1       -0.0042
      4 C         -23.9890   -4.5490   28.8530 C.2     1  UNL1       -0.0003
      5 C         -25.1370   -5.2800   29.2050 C.2     1  UNL1       -0.0000
      6 C         -26.2320   -4.6110   29.7840 C.2     1  UNL1       -0.0003
      7 C         -26.1550   -3.2320   30.0650 C.2     1  UNL1       -0.0042
      8 C         -25.3870   -0.6790   31.5710 C.3     1  UNL1        0.0793
      9 C         -25.1890    0.7730   32.0280 C.3     1  UNL1        0.0193
     10 C         -25.3360    0.6840   33.5440 C.3     1  UNL1        0.0202
     11 C         -24.8290   -0.7150   33.9050 C.3     1  UNL1        0.0887
     12 N         -24.7580   -1.4810   32.6460 N.3     1  UNL1       -0.2190
     13 C         -25.6880    1.6140   26.4610 C.2     1  UNL1        0.0867
     14 C         -26.2500    2.9200   26.3950 C.2     1  UNL1        0.0899
     15 C         -25.6420    4.0930   27.1230 C.2     1  UNL1        0.2676
     16 N         -25.6140    5.2520   26.4490 N.am    1  UNL1       -0.1997
     17 C         -25.0260    6.4790   26.9630 C.3     1  UNL1        0.1388
     18 O         -25.1430    3.9660   28.2430 O.2     1  UNL1       -0.2683
     19 C         -27.4380    3.0910   25.6450 C.2     1  UNL1        0.1080
     20 N         -28.0750    2.0890   25.0030 N.2     1  UNL1       -0.2080
     21 C         -27.5430    0.8490   25.0790 C.2     1  UNL1        0.2546
     22 O         -28.1930   -0.2080   24.4770 O.2     1  UNL1       -0.4558
     23 C         -29.4600    0.0050   23.8660 C.3     1  UNL1        0.2426
     24 C         -30.0650   -1.3770   23.5730 C.3     1  UNL1        0.2292
     25 O         -30.7290   -1.8780   24.7210 O.3     1  UNL1       -0.2162
     26 C         -26.3540    0.5760   25.7770 C.2     1  UNL1        0.2063
     27 F         -25.8600   -0.6810   25.7950 F       1  UNL1       -0.1979
     28 O         -24.0854    3.0691   25.2000 O.2     1  UNL1       -0.2698
     29 O         -20.2452    1.9978   26.7584 O.2     1  UNL1       -0.4757
     30 O         -22.4293    0.1980   29.8797 O.3     1  UNL1       -0.3253
     31 C         -20.9296    0.6346   28.2837 C.2     1  UNL1        0.0696
     32 O         -26.5675   -0.2806   28.7389 O.3     1  UNL1       -0.2209
     33 C         -21.5908    1.5860   27.3947 C.2     1  UNL1        0.1210
     34 C         -23.1032    1.1277   29.0598 C.3     1  UNL1        0.1477
     35 C         -25.3284   -0.1188   29.0428 C.3     1  UNL1        0.1776
     36 C         -21.1343   -0.2770   29.1277 C.3     1  UNL1        0.2950
     37 C         -18.9850    2.1259   27.4843 C.3     1  UNL1        0.2519
     38 C         -24.5513    0.8507   28.5762 C.3     1  UNL1        0.1318
     39 N         -22.1547    2.1734   25.5350 N.am    1  UNL1       -0.0863
     40 C         -22.4394    1.5478   27.7157 C.3     1  UNL1        0.1127
     41 N         -24.7534    1.2712   27.2059 N.pl3   1  UNL1       -0.2959
     42 C         -23.4578    1.6807   26.9561 C.3     1  UNL1        0.1628
     43 O         -21.2677   -1.6453   28.9055 O.3     1  UNL1       -0.1846
     44 C         -23.2311    2.3398   25.8419 C.2     1  UNL1        0.2793
@<TRIPOS>BOND
     1     1    35    1
     2     2     7    1
     3     2     1    1
     4     3     2    2
     5     4     3    1
     6     4     5    2
     7     5     6    1
     8     6     7    2
     9     8     1    1
    10     8     9    1
    11     8    12    1
    12     9    10    1
    13    10    11    1
    14    12    11    1
    15    13    41    1
    16    14    13    1
    17    14    15    1
    18    15    18    2
    19    16    17    1
    20    16    15    1
    21    19    14    2
    22    20    21    2
    23    20    19    1
    24    21    26    1
    25    22    21    1
    26    23    22    1
    27    24    23    1
    28    24    25    1
    29    26    27    1
    30    26    13    2
    31    28    44    2
    32    29    33    1
    33    29    37    1
    34    31    36    1
    35    33    31    2
    36    34    30    1
    37    35    32    1
    38    36    43    1
    39    36    30    1
    40    38    35    1
    41    38    34    1
    42    39    44    1
    43    40    33    1
    44    40    34    1
    45    41    38    1
    46    42    44    1
    47    42    41    1
    48    42    40    1
