@<TRIPOS>MOLECULE
outputs/IAG933/test6/raw/output_8439_IAG933_linker_design_.xyz
 48 54 0 0 0
SMALL
GASTEIGER

@<TRIPOS>ATOM
      1 C         -24.8550   -1.0120   30.1430 C.3     1  UNL1        0.1532
      2 C         -24.9730   -2.5050   29.7880 C.2     1  UNL1        0.0059
      3 C         -23.9060   -3.1730   29.1460 C.2     1  UNL1       -0.0019
      4 C         -23.9890   -4.5490   28.8530 C.2     1  UNL1       -0.0002
      5 C         -25.1370   -5.2800   29.2050 C.2     1  UNL1       -0.0000
      6 C         -26.2320   -4.6110   29.7840 C.2     1  UNL1       -0.0002
      7 C         -26.1550   -3.2320   30.0650 C.2     1  UNL1       -0.0019
      8 C         -25.3870   -0.6790   31.5710 C.3     1  UNL1        0.1041
      9 C         -25.1890    0.7730   32.0280 C.3     1  UNL1        0.0217
     10 C         -25.3360    0.6840   33.5440 C.3     1  UNL1        0.0203
     11 C         -24.8290   -0.7150   33.9050 C.3     1  UNL1        0.0888
     12 N         -24.7580   -1.4810   32.6460 N.3     1  UNL1       -0.2166
     13 C         -25.6880    1.6140   26.4610 C.3     1  UNL1        0.0780
     14 C         -26.2500    2.9200   26.3950 C.2     1  UNL1        0.0528
     15 C         -25.6420    4.0930   27.1230 C.2     1  UNL1        0.2177
     16 N         -25.6140    5.2520   26.4490 N.2     1  UNL1       -0.2359
     17 C         -25.0260    6.4790   26.9630 C.3     1  UNL1        0.1550
     18 O         -25.1430    3.9660   28.2430 O.2     1  UNL1       -0.4643
     19 C         -27.4380    3.0910   25.6450 C.2     1  UNL1        0.1022
     20 N         -28.0750    2.0890   25.0030 N.2     1  UNL1       -0.2119
     21 C         -27.5430    0.8490   25.0790 C.2     1  UNL1        0.2341
     22 O         -28.1930   -0.2080   24.4770 O.2     1  UNL1       -0.4585
     23 C         -29.4600    0.0050   23.8660 C.3     1  UNL1        0.2423
     24 C         -30.0650   -1.3770   23.5730 C.3     1  UNL1        0.2292
     25 O         -30.7290   -1.8780   24.7210 O.3     1  UNL1       -0.2162
     26 C         -26.3540    0.5760   25.7770 C.3     1  UNL1        0.2403
     27 F         -25.8600   -0.6810   25.7950 F       1  UNL1       -0.2269
     28 C         -25.9138    2.5828   29.8796 C.3     1  UNL1        0.0456
     29 N         -26.9785    4.7863   32.4395 N.3     1  UNL1       -0.2426
     30 C         -27.4378    5.6067   31.3517 C.3     1  UNL1        0.0970
     31 C         -24.4739    0.4813   28.1505 C.3     1  UNL1        0.1250
     32 C         -25.8177    4.3601   32.1392 C.3     1  UNL1        0.1636
     33 O         -25.4312   -0.1683   29.1429 O.3     1  UNL1       -0.3526
     34 C         -24.4330    4.6279   32.7271 C.2     1  UNL1        0.3790
     35 C         -23.8080    1.6446   28.4824 C.3     1  UNL1        0.0754
     36 C         -24.6143    2.8296   29.0962 C.3     1  UNL1        0.1701
     37 F         -21.6077    1.6058   27.4818 F       1  UNL1       -0.1983
     38 N         -28.8824    5.6537   33.3075 N.pl3   1  UNL1       -0.2226
     39 C         -28.2201    6.5517   32.2313 C.2     1  UNL1        0.0591
     40 C         -27.0105    4.8466   30.0620 C.3     1  UNL1        0.0239
     41 C         -22.5066    1.8433   26.6258 C.3     1  UNL1        0.3211
     42 C         -24.0611    1.4948   27.0164 C.3     1  UNL1        0.0994
     43 O         -23.4813    4.0961   32.1190 O.co2   1  UNL1       -0.2442
     44 F         -22.1081    2.3355   25.4799 F       1  UNL1       -0.1983
     45 C         -25.9090    3.9465   30.6296 C.3     1  UNL1        0.0311
     46 O         -24.2939    5.3461   33.7436 O.co2   1  UNL1       -0.2442
     47 C         -27.9792    4.7200   33.4981 C.3     1  UNL1        0.1875
     48 C         -28.0227    7.8189   32.2929 C.2     1  UNL1        0.0141
@<TRIPOS>BOND
     1     1    33    1
     2     2     7    1
     3     2     1    1
     4     3     2    2
     5     4     3    1
     6     4     5    2
     7     5     6    1
     8     6     7    2
     9     8     1    1
    10     8     9    1
    11     8    12    1
    12     9    10    1
    13    10    11    1
    14    12    11    1
    15    13    14    1
    16    13    42    1
    17    14    15    1
    18    15    18    1
    19    16    17    1
    20    16    15    2
    21    18    36    1
    22    19    14    2
    23    20    21    2
    24    20    19    1
    25    21    26    1
    26    22    21    1
    27    23    22    1
    28    24    23    1
    29    24    25    1
    30    26    27    1
    31    26    13    1
    32    28    45    1
    33    29    47    1
    34    30    40    1
    35    30    39    1
    36    30    29    1
    37    31    35    1
    38    31    33    1
    39    32    29    1
    40    32    34    1
    41    34    46   ar
    42    35    36    1
    43    36    28    1
    44    38    47    1
    45    39    48    2
    46    39    38    1
    47    40    45    1
    48    41    42    1
    49    41    37    1
    50    42    31    1
    51    42    35    1
    52    43    34   ar
    53    44    41    1
    54    45    32    1
