@<TRIPOS>MOLECULE
outputs/IAG933/test6/raw/output_8440_IAG933_linker_design_.xyz
 44 48 0 0 0
SMALL
GASTEIGER

@<TRIPOS>ATOM
      1 C         -24.8550   -1.0120   30.1430 C.3     1  UNL1        0.0547
      2 C         -24.9730   -2.5050   29.7880 C.2     1  UNL1       -0.0198
      3 C         -23.9060   -3.1730   29.1460 C.2     1  UNL1       -0.0042
      4 C         -23.9890   -4.5490   28.8530 C.2     1  UNL1       -0.0003
      5 C         -25.1370   -5.2800   29.2050 C.2     1  UNL1       -0.0000
      6 C         -26.2320   -4.6110   29.7840 C.2     1  UNL1       -0.0003
      7 C         -26.1550   -3.2320   30.0650 C.2     1  UNL1       -0.0042
      8 C         -25.3870   -0.6790   31.5710 C.3     1  UNL1        0.0782
      9 C         -25.1890    0.7730   32.0280 C.3     1  UNL1        0.0192
     10 C         -25.3360    0.6840   33.5440 C.3     1  UNL1        0.0202
     11 C         -24.8290   -0.7150   33.9050 C.3     1  UNL1        0.0887
     12 N         -24.7580   -1.4810   32.6460 N.3     1  UNL1       -0.2191
     13 C         -25.6880    1.6140   26.4610 C.2     1  UNL1        0.0407
     14 C         -26.2500    2.9200   26.3950 C.2     1  UNL1        0.0745
     15 C         -25.6420    4.0930   27.1230 C.2     1  UNL1        0.2257
     16 N         -25.6140    5.2520   26.4490 N.2     1  UNL1       -0.2356
     17 C         -25.0260    6.4790   26.9630 C.3     1  UNL1        0.1550
     18 O         -25.1430    3.9660   28.2430 O.2     1  UNL1       -0.4212
     19 C         -27.4380    3.0910   25.6450 C.2     1  UNL1        0.1068
     20 N         -28.0750    2.0890   25.0030 N.2     1  UNL1       -0.2081
     21 C         -27.5430    0.8490   25.0790 C.2     1  UNL1        0.2533
     22 O         -28.1930   -0.2080   24.4770 O.2     1  UNL1       -0.4558
     23 C         -29.4600    0.0050   23.8660 C.3     1  UNL1        0.2426
     24 C         -30.0650   -1.3770   23.5730 C.3     1  UNL1        0.2292
     25 O         -30.7290   -1.8780   24.7210 O.3     1  UNL1       -0.2162
     26 C         -26.3540    0.5760   25.7770 C.2     1  UNL1        0.1931
     27 F         -25.8600   -0.6810   25.7950 F       1  UNL1       -0.1992
     28 N         -25.0998    3.5144   30.6578 N.pl3   1  UNL1       -0.1735
     29 C         -25.2771    5.9120   34.0458 C.2     1  UNL1        0.0001
     30 O         -20.7680    1.0271   27.6498 O.co2   1  UNL1       -0.2441
     31 N         -26.8137    2.8897   29.2789 N.3     1  UNL1       -0.0536
     32 C         -25.3531    4.4255   31.6522 C.2     1  UNL1        0.0715
     33 C         -26.1579    4.0705   32.7532 C.2     1  UNL1        0.0163
     34 C         -24.3707    0.1824   29.2792 C.3     1  UNL1        0.0888
     35 C         -24.6693    5.6654   31.7096 C.2     1  UNL1        0.0163
     36 N         -24.4757    1.6589   29.0960 N.3     1  UNL1       -0.2006
     37 C         -26.0301    4.7390   33.9776 C.2     1  UNL1        0.0013
     38 C         -22.8254    0.2031   29.2233 C.3     1  UNL1        0.1327
     39 C         -21.8819    1.6828   27.5114 C.2     1  UNL1        0.3806
     40 N         -22.3904   -0.1298   30.5323 N.3     1  UNL1       -0.1294
     41 C         -24.6077    6.3683   32.9123 C.2     1  UNL1        0.0013
     42 C         -23.0389    1.4833   28.5764 C.3     1  UNL1        0.1859
     43 C         -25.5137    3.1061   29.3162 C.3     1  UNL1        0.3527
     44 O         -22.1058    2.4217   26.4943 O.co2   1  UNL1       -0.2441
@<TRIPOS>BOND
     1     1     2    1
     2     2     7    1
     3     3     2    2
     4     4     3    1
     5     4     5    2
     6     5     6    1
     7     6     7    2
     8     8     1    1
     9     8     9    1
    10     8    12    1
    11     9    10    1
    12    10    11    1
    13    12    11    1
    14    14    13    1
    15    14    15    1
    16    15    18    1
    17    16    17    1
    18    16    15    2
    19    18    43    1
    20    19    14    2
    21    20    21    2
    22    20    19    1
    23    21    26    1
    24    22    21    1
    25    23    22    1
    26    24    23    1
    27    24    25    1
    28    26    27    1
    29    26    13    2
    30    28    32    1
    31    32    35    2
    32    32    33    1
    33    33    37    2
    34    34     1    1
    35    35    41    1
    36    36    34    1
    37    36    43    1
    38    37    29    1
    39    38    34    1
    40    38    40    1
    41    39    30   ar
    42    41    29    2
    43    42    39    1
    44    42    36    1
    45    42    38    1
    46    43    31    1
    47    43    28    1
    48    44    39   ar
