@<TRIPOS>MOLECULE
outputs/IAG933/test6/raw/output_8442_IAG933_linker_design_.xyz
 44 50 0 0 0
SMALL
GASTEIGER

@<TRIPOS>ATOM
      1 C         -24.8550   -1.0120   30.1430 C.3     1  UNL1        0.0530
      2 C         -24.9730   -2.5050   29.7880 C.2     1  UNL1       -0.0198
      3 C         -23.9060   -3.1730   29.1460 C.2     1  UNL1       -0.0042
      4 C         -23.9890   -4.5490   28.8530 C.2     1  UNL1       -0.0003
      5 C         -25.1370   -5.2800   29.2050 C.2     1  UNL1       -0.0000
      6 C         -26.2320   -4.6110   29.7840 C.2     1  UNL1       -0.0003
      7 C         -26.1550   -3.2320   30.0650 C.2     1  UNL1       -0.0042
      8 C         -25.3870   -0.6790   31.5710 C.3     1  UNL1        0.0781
      9 C         -25.1890    0.7730   32.0280 C.3     1  UNL1        0.0192
     10 C         -25.3360    0.6840   33.5440 C.3     1  UNL1        0.0202
     11 C         -24.8290   -0.7150   33.9050 C.3     1  UNL1        0.0887
     12 N         -24.7580   -1.4810   32.6460 N.3     1  UNL1       -0.2191
     13 C         -25.6880    1.6140   26.4610 C.2     1  UNL1        0.0341
     14 C         -26.2500    2.9200   26.3950 C.2     1  UNL1        0.0740
     15 C         -25.6420    4.0930   27.1230 C.2     1  UNL1        0.2662
     16 N         -25.6140    5.2520   26.4490 N.am    1  UNL1       -0.1997
     17 C         -25.0260    6.4790   26.9630 C.3     1  UNL1        0.1388
     18 O         -25.1430    3.9660   28.2430 O.2     1  UNL1       -0.2683
     19 C         -27.4380    3.0910   25.6450 C.2     1  UNL1        0.1065
     20 N         -28.0750    2.0890   25.0030 N.2     1  UNL1       -0.2081
     21 C         -27.5430    0.8490   25.0790 C.2     1  UNL1        0.2530
     22 O         -28.1930   -0.2080   24.4770 O.2     1  UNL1       -0.4560
     23 C         -29.4600    0.0050   23.8660 C.3     1  UNL1        0.2391
     24 C         -30.0650   -1.3770   23.5730 C.3     1  UNL1        0.1901
     25 O         -30.7290   -1.8780   24.7210 O.3     1  UNL1       -0.3389
     26 C         -26.3540    0.5760   25.7770 C.2     1  UNL1        0.1905
     27 F         -25.8600   -0.6810   25.7950 F       1  UNL1       -0.1995
     28 C         -30.3468    0.8470   28.6186 C.3     1  UNL1        0.0437
     29 O         -31.3743   -0.8357   26.9580 O.3     1  UNL1       -0.4506
     30 C         -30.6461   -0.5954   28.2554 C.3     1  UNL1        0.1688
     31 C         -29.4851    0.4190   29.8350 C.3     1  UNL1        0.0071
     32 C         -29.3543   -0.9804   29.2624 C.3     1  UNL1        0.0403
     33 C         -28.0760    0.9889   29.9016 C.3     1  UNL1        0.0016
     34 C         -25.4538   -0.1186   29.0583 C.3     1  UNL1        0.0653
     35 C         -23.3870    0.6861   28.0061 C.3     1  UNL1        0.1917
     36 C         -27.9531   -0.9483   28.5999 C.3     1  UNL1        0.0049
     37 C         -27.0858    0.1234   29.2641 C.3     1  UNL1        0.0152
     38 O         -22.6407   -0.1412   28.8751 O.3     1  UNL1       -0.2072
     39 C         -31.9124   -2.1722   26.7852 C.2     1  UNL1        0.3474
     40 C         -22.0365    1.5954   27.8338 C.3     1  UNL1        0.0519
     41 O         -32.2723   -2.6524   28.1409 O.2     1  UNL1       -0.2473
     42 C         -31.6385   -2.3000   25.2470 C.3     1  UNL1        0.2521
     43 N         -24.6008    0.9863   28.6106 N.3     1  UNL1       -0.2452
     44 C         -24.4943    1.3283   27.2238 C.3     1  UNL1        0.1272
@<TRIPOS>BOND
     1     1     2    1
     2     2     7    1
     3     3     2    2
     4     4     3    1
     5     4     5    2
     6     5     6    1
     7     6     7    2
     8     8     1    1
     9     8     9    1
    10     8    12    1
    11     9    10    1
    12    10    11    1
    13    12    11    1
    14    13    44    1
    15    14    13    1
    16    14    15    1
    17    15    18    2
    18    16    17    1
    19    16    15    1
    20    19    14    2
    21    20    21    2
    22    20    19    1
    23    21    26    1
    24    22    21    1
    25    23    22    1
    26    24    23    1
    27    24    25    1
    28    25    42    1
    29    26    27    1
    30    26    13    2
    31    29    30    1
    32    30    28    1
    33    30    32    1
    34    31    28    1
    35    31    33    1
    36    32    36    1
    37    32    31    1
    38    34    37    1
    39    34     1    1
    40    35    40    1
    41    35    43    1
    42    35    38    1
    43    37    36    1
    44    37    33    1
    45    39    29    1
    46    39    41    2
    47    42    39    1
    48    43    34    1
    49    44    35    1
    50    44    43    1
