@<TRIPOS>MOLECULE
outputs/IAG933/test6/raw/output_8443_IAG933_linker_design_.xyz
 42 45 0 0 0
SMALL
GASTEIGER

@<TRIPOS>ATOM
      1 C         -24.8550   -1.0120   30.1430 C.3     1  UNL1        0.1156
      2 C         -24.9730   -2.5050   29.7880 C.2     1  UNL1       -0.0029
      3 C         -23.9060   -3.1730   29.1460 C.2     1  UNL1       -0.0026
      4 C         -23.9890   -4.5490   28.8530 C.2     1  UNL1       -0.0003
      5 C         -25.1370   -5.2800   29.2050 C.2     1  UNL1       -0.0000
      6 C         -26.2320   -4.6110   29.7840 C.2     1  UNL1       -0.0003
      7 C         -26.1550   -3.2320   30.0650 C.2     1  UNL1       -0.0026
      8 C         -25.3870   -0.6790   31.5710 C.3     1  UNL1        0.0952
      9 C         -25.1890    0.7730   32.0280 C.3     1  UNL1        0.0209
     10 C         -25.3360    0.6840   33.5440 C.3     1  UNL1        0.0203
     11 C         -24.8290   -0.7150   33.9050 C.3     1  UNL1        0.0888
     12 N         -24.7580   -1.4810   32.6460 N.3     1  UNL1       -0.2174
     13 C         -25.6880    1.6140   26.4610 C.3     1  UNL1        0.0915
     14 C         -26.2500    2.9200   26.3950 C.2     1  UNL1        0.0589
     15 C         -25.6420    4.0930   27.1230 C.2     1  UNL1        0.2628
     16 N         -25.6140    5.2520   26.4490 N.am    1  UNL1       -0.2000
     17 C         -25.0260    6.4790   26.9630 C.3     1  UNL1        0.1388
     18 O         -25.1430    3.9660   28.2430 O.2     1  UNL1       -0.2686
     19 C         -27.4380    3.0910   25.6450 C.2     1  UNL1        0.1025
     20 N         -28.0750    2.0890   25.0030 N.2     1  UNL1       -0.2118
     21 C         -27.5430    0.8490   25.0790 C.2     1  UNL1        0.2344
     22 O         -28.1930   -0.2080   24.4770 O.2     1  UNL1       -0.4585
     23 C         -29.4600    0.0050   23.8660 C.3     1  UNL1        0.2423
     24 C         -30.0650   -1.3770   23.5730 C.3     1  UNL1        0.2292
     25 O         -30.7290   -1.8780   24.7210 O.3     1  UNL1       -0.2162
     26 C         -26.3540    0.5760   25.7770 C.3     1  UNL1        0.2440
     27 F         -25.8600   -0.6810   25.7950 F       1  UNL1       -0.2265
     28 N         -27.6375   -0.4349   29.1380 N.am    1  UNL1       -0.1878
     29 O         -26.9273    1.6222   29.1901 O.2     1  UNL1       -0.2508
     30 C         -30.1984   -1.2294   29.0582 C.3     1  UNL1        0.1113
     31 O         -31.4080   -2.0507   29.5964 O.3     1  UNL1       -0.3542
     32 C         -23.1534    1.1867   27.8144 C.2     1  UNL1       -0.0280
     33 C         -23.7080    0.7590   29.1003 C.3     1  UNL1        0.1175
     34 C         -29.0575    0.0034   29.2559 C.3     1  UNL1        0.1216
     35 C         -26.6456    0.4854   29.1966 C.2     1  UNL1        0.3237
     36 C         -29.4964    0.6265   27.9660 C.3     1  UNL1        0.0266
     37 C         -29.3637   -2.5887   29.3276 C.3     1  UNL1        0.0314
     38 C         -30.7516   -0.2111   27.9360 C.3     1  UNL1        0.0308
     39 C         -24.2089    1.5633   26.6863 C.2     1  UNL1       -0.0255
     40 N         -25.1174    0.1763   29.3035 N.am    1  UNL1       -0.2556
     41 C         -21.6504    1.5795   27.5898 C.3     1  UNL1        0.0278
     42 C         -32.4259   -2.3937   28.6489 C.3     1  UNL1        0.1740
@<TRIPOS>BOND
     1     1    40    1
     2     2     7    1
     3     2     1    1
     4     3     2    2
     5     4     3    1
     6     4     5    2
     7     5     6    1
     8     6     7    2
     9     8     1    1
    10     8     9    1
    11     8    12    1
    12     9    10    1
    13    10    11    1
    14    12    11    1
    15    13    39    1
    16    14    13    1
    17    14    15    1
    18    15    18    2
    19    16    17    1
    20    16    15    1
    21    19    14    2
    22    20    21    2
    23    20    19    1
    24    21    26    1
    25    22    21    1
    26    23    22    1
    27    24    23    1
    28    24    25    1
    29    26    27    1
    30    26    13    1
    31    28    35    1
    32    29    35    2
    33    30    34    1
    34    30    37    1
    35    30    31    1
    36    32    33    1
    37    33    40    1
    38    34    28    1
    39    35    40   am
    40    36    34    1
    41    38    36    1
    42    38    30    1
    43    39    32    2
    44    41    32    1
    45    42    31    1
