@<TRIPOS>MOLECULE
outputs/IAG933/test6/raw/output_8445_IAG933_linker_design_.xyz
 43 47 0 0 0
SMALL
GASTEIGER

@<TRIPOS>ATOM
      1 C         -24.8550   -1.0120   30.1430 C.3     1  UNL1        0.0783
      2 C         -24.9730   -2.5050   29.7880 C.2     1  UNL1       -0.0176
      3 C         -23.9060   -3.1730   29.1460 C.2     1  UNL1       -0.0041
      4 C         -23.9890   -4.5490   28.8530 C.2     1  UNL1       -0.0003
      5 C         -25.1370   -5.2800   29.2050 C.2     1  UNL1       -0.0000
      6 C         -26.2320   -4.6110   29.7840 C.2     1  UNL1       -0.0003
      7 C         -26.1550   -3.2320   30.0650 C.2     1  UNL1       -0.0041
      8 C         -25.3870   -0.6790   31.5710 C.3     1  UNL1        0.0808
      9 C         -25.1890    0.7730   32.0280 C.3     1  UNL1        0.0285
     10 C         -25.3360    0.6840   33.5440 C.3     1  UNL1        0.0207
     11 C         -24.8290   -0.7150   33.9050 C.3     1  UNL1        0.0887
     12 N         -24.7580   -1.4810   32.6460 N.3     1  UNL1       -0.2190
     13 C         -25.6880    1.6140   26.4610 C.2     1  UNL1        0.0726
     14 C         -26.2500    2.9200   26.3950 C.2     1  UNL1        0.0795
     15 C         -25.6420    4.0930   27.1230 C.2     1  UNL1        0.2665
     16 N         -25.6140    5.2520   26.4490 N.am    1  UNL1       -0.1997
     17 C         -25.0260    6.4790   26.9630 C.3     1  UNL1        0.1388
     18 O         -25.1430    3.9660   28.2430 O.2     1  UNL1       -0.2683
     19 C         -27.4380    3.0910   25.6450 C.2     1  UNL1        0.1068
     20 N         -28.0750    2.0890   25.0030 N.2     1  UNL1       -0.2081
     21 C         -27.5430    0.8490   25.0790 C.2     1  UNL1        0.2534
     22 O         -28.1930   -0.2080   24.4770 O.2     1  UNL1       -0.4558
     23 C         -29.4600    0.0050   23.8660 C.3     1  UNL1        0.2426
     24 C         -30.0650   -1.3770   23.5730 C.3     1  UNL1        0.2292
     25 O         -30.7290   -1.8780   24.7210 O.3     1  UNL1       -0.2162
     26 C         -26.3540    0.5760   25.7770 C.2     1  UNL1        0.1960
     27 F         -25.8600   -0.6810   25.7950 F       1  UNL1       -0.1991
     28 C         -23.7649    1.6078   29.9748 C.3     1  UNL1        0.0148
     29 O         -24.8644    0.5008   28.2845 O.2     1  UNL1       -0.4781
     30 C         -23.9677   -0.1890   29.1072 C.3     1  UNL1        0.1711
     31 C         -22.7500    0.6812   29.3222 C.3     1  UNL1        0.0435
     32 O         -25.5210    3.8184   31.3373 O.3     1  UNL1       -0.4444
     33 C         -20.2772    0.2626   28.3140 C.3     1  UNL1        0.1428
     34 O         -20.7931    1.4688   27.6326 O.3     1  UNL1       -0.3480
     35 C         -23.2473    1.6199   26.7986 C.2     1  UNL1        0.0990
     36 C         -25.6962    5.1404   31.8801 C.3     1  UNL1        0.2556
     37 C         -24.5238    1.2672   27.2141 C.2     1  UNL1        0.1496
     38 C         -22.0049    1.4175   27.1980 C.3     1  UNL1        0.1829
     39 C         -24.3934    3.3106   31.5407 C.2     1  UNL1        0.3166
     40 C         -24.3530    1.7495   31.4546 C.3     1  UNL1        0.1006
     41 CL        -23.0112    2.4726   25.4706 Cl      1  UNL1       -0.0812
     42 C         -21.4248   -0.2032   29.1420 C.3     1  UNL1        0.0357
     43 O         -23.3871    3.9254   31.8563 O.2     1  UNL1       -0.2501
@<TRIPOS>BOND
     1     1     2    1
     2     1     8    1
     3     2     7    1
     4     3     2    2
     5     4     3    1
     6     4     5    2
     7     5     6    1
     8     6     7    2
     9     8     9    1
    10     8    12    1
    11     9    10    1
    12    10    11    1
    13    12    11    1
    14    13    37    1
    15    14    13    1
    16    14    15    1
    17    15    18    2
    18    16    17    1
    19    16    15    1
    20    19    14    2
    21    20    21    2
    22    20    19    1
    23    21    26    1
    24    22    21    1
    25    23    22    1
    26    24    23    1
    27    24    25    1
    28    26    27    1
    29    26    13    2
    30    28    40    1
    31    30    29    1
    32    30    31    1
    33    30     1    1
    34    31    42    1
    35    31    28    1
    36    32    39    1
    37    32    36    1
    38    33    42    1
    39    34    33    1
    40    35    38    1
    41    35    37    2
    42    37    29    1
    43    38    34    1
    44    39    43    2
    45    40    39    1
    46    40     9    1
    47    41    35    1
