@<TRIPOS>MOLECULE
outputs/IAG933/test6/raw/output_8447_IAG933_linker_design_.xyz
 45 49 0 0 0
SMALL
GASTEIGER

@<TRIPOS>ATOM
      1 C         -24.8550   -1.0120   30.1430 C.3     1  UNL1        0.0712
      2 C         -24.9730   -2.5050   29.7880 C.2     1  UNL1       -0.0186
      3 C         -23.9060   -3.1730   29.1460 C.2     1  UNL1       -0.0042
      4 C         -23.9890   -4.5490   28.8530 C.2     1  UNL1       -0.0003
      5 C         -25.1370   -5.2800   29.2050 C.2     1  UNL1       -0.0000
      6 C         -26.2320   -4.6110   29.7840 C.2     1  UNL1       -0.0003
      7 C         -26.1550   -3.2320   30.0650 C.2     1  UNL1       -0.0042
      8 C         -25.3870   -0.6790   31.5710 C.3     1  UNL1        0.0793
      9 C         -25.1890    0.7730   32.0280 C.3     1  UNL1        0.0193
     10 C         -25.3360    0.6840   33.5440 C.3     1  UNL1        0.0202
     11 C         -24.8290   -0.7150   33.9050 C.3     1  UNL1        0.0887
     12 N         -24.7580   -1.4810   32.6460 N.3     1  UNL1       -0.2190
     13 C         -25.6880    1.6140   26.4610 C.3     1  UNL1        0.0789
     14 C         -26.2500    2.9200   26.3950 C.2     1  UNL1        0.0553
     15 C         -25.6420    4.0930   27.1230 C.2     1  UNL1        0.2625
     16 N         -25.6140    5.2520   26.4490 N.am    1  UNL1       -0.2000
     17 C         -25.0260    6.4790   26.9630 C.3     1  UNL1        0.1388
     18 O         -25.1430    3.9660   28.2430 O.2     1  UNL1       -0.2687
     19 C         -27.4380    3.0910   25.6450 C.2     1  UNL1        0.1022
     20 N         -28.0750    2.0890   25.0030 N.2     1  UNL1       -0.2119
     21 C         -27.5430    0.8490   25.0790 C.2     1  UNL1        0.2341
     22 O         -28.1930   -0.2080   24.4770 O.2     1  UNL1       -0.4585
     23 C         -29.4600    0.0050   23.8660 C.3     1  UNL1        0.2423
     24 C         -30.0650   -1.3770   23.5730 C.3     1  UNL1        0.2292
     25 O         -30.7290   -1.8780   24.7210 O.3     1  UNL1       -0.2162
     26 C         -26.3540    0.5760   25.7770 C.3     1  UNL1        0.2405
     27 F         -25.8600   -0.6810   25.7950 F       1  UNL1       -0.2269
     28 O         -23.2321    1.2894   29.2073 O.3     1  UNL1       -0.3484
     29 O         -28.6947    0.5954   29.5492 O.2     1  UNL1       -0.4463
     30 C         -22.0123    0.5315   29.0286 C.3     1  UNL1        0.1703
     31 C         -28.8733    2.9505   30.4933 C.2     1  UNL1        0.0370
     32 C         -30.7537    3.1572   28.4494 C.2     1  UNL1        0.0031
     33 C         -29.7117    2.2488   28.3084 C.2     1  UNL1        0.0370
     34 C         -24.1819    0.8103   28.1334 C.3     1  UNL1        0.1528
     35 C         -29.9193    3.8701   30.6479 C.2     1  UNL1        0.0031
     36 C         -24.0280    1.5556   26.8577 C.3     1  UNL1        0.0871
     37 O         -26.2509    0.6199   29.0969 O.3     1  UNL1       -0.2165
     38 C         -22.4172    1.7236   26.7025 C.2     1  UNL1        0.1183
     39 C         -28.3094   -0.1542   28.6542 C.3     1  UNL1        0.3912
     40 C         -29.0070    1.9569   29.4626 C.2     1  UNL1        0.1416
     41 O         -27.2794   -0.6963   28.8333 O.3     1  UNL1       -0.1706
     42 F         -21.7484    2.4344   25.6989 F       1  UNL1       -0.2090
     43 C         -21.4197    1.1204   27.6907 C.2     1  UNL1        0.0309
     44 C         -25.0035   -0.1967   28.9265 C.3     1  UNL1        0.1847
     45 C         -30.8691    3.9207   29.6165 C.2     1  UNL1        0.0002
@<TRIPOS>BOND
     1     1    44    1
     2     2     7    1
     3     2     1    1
     4     3     2    2
     5     4     3    1
     6     4     5    2
     7     5     6    1
     8     6     7    2
     9     8     1    1
    10     8     9    1
    11     8    12    1
    12     9    10    1
    13    10    11    1
    14    12    11    1
    15    13    14    1
    16    13    36    1
    17    14    15    1
    18    15    18    2
    19    16    17    1
    20    16    15    1
    21    19    14    2
    22    20    21    2
    23    20    19    1
    24    21    26    1
    25    22    21    1
    26    23    22    1
    27    24    23    1
    28    24    25    1
    29    26    27    1
    30    26    13    1
    31    30    28    1
    32    31    35    1
    33    32    45    1
    34    33    32    2
    35    33    40    1
    36    34    44    1
    37    34    28    1
    38    36    38    1
    39    36    34    1
    40    38    43    2
    41    39    41    1
    42    39    29    1
    43    40    29    1
    44    40    31    2
    45    41    37    1
    46    42    38    1
    47    43    30    1
    48    44    37    1
    49    45    35    2
