@<TRIPOS>MOLECULE
outputs/IAG933/test6/raw/output_8462_IAG933_linker_design_.xyz
 43 47 0 0 0
SMALL
GASTEIGER

@<TRIPOS>ATOM
      1 C         -24.8550   -1.0120   30.1430 C.3     1  UNL1        0.1306
      2 C         -24.9730   -2.5050   29.7880 C.2     1  UNL1       -0.0013
      3 C         -23.9060   -3.1730   29.1460 C.2     1  UNL1       -0.0026
      4 C         -23.9890   -4.5490   28.8530 C.2     1  UNL1       -0.0003
      5 C         -25.1370   -5.2800   29.2050 C.2     1  UNL1       -0.0000
      6 C         -26.2320   -4.6110   29.7840 C.2     1  UNL1       -0.0003
      7 C         -26.1550   -3.2320   30.0650 C.2     1  UNL1       -0.0026
      8 C         -25.3870   -0.6790   31.5710 C.3     1  UNL1        0.0968
      9 C         -25.1890    0.7730   32.0280 C.3     1  UNL1        0.0210
     10 C         -25.3360    0.6840   33.5440 C.3     1  UNL1        0.0203
     11 C         -24.8290   -0.7150   33.9050 C.3     1  UNL1        0.0888
     12 N         -24.7580   -1.4810   32.6460 N.3     1  UNL1       -0.2174
     13 C         -25.6880    1.6140   26.4610 C.2     1  UNL1        0.0402
     14 C         -26.2500    2.9200   26.3950 C.2     1  UNL1        0.0767
     15 C         -25.6420    4.0930   27.1230 C.2     1  UNL1        0.2680
     16 N         -25.6140    5.2520   26.4490 N.am    1  UNL1       -0.1776
     17 C         -25.0260    6.4790   26.9630 C.3     1  UNL1        0.2270
     18 O         -25.1430    3.9660   28.2430 O.2     1  UNL1       -0.2683
     19 C         -27.4380    3.0910   25.6450 C.2     1  UNL1        0.1067
     20 N         -28.0750    2.0890   25.0030 N.2     1  UNL1       -0.2081
     21 C         -27.5430    0.8490   25.0790 C.2     1  UNL1        0.2533
     22 O         -28.1930   -0.2080   24.4770 O.2     1  UNL1       -0.4558
     23 C         -29.4600    0.0050   23.8660 C.3     1  UNL1        0.2426
     24 C         -30.0650   -1.3770   23.5730 C.3     1  UNL1        0.2292
     25 O         -30.7290   -1.8780   24.7210 O.3     1  UNL1       -0.2162
     26 C         -26.3540    0.5760   25.7770 C.2     1  UNL1        0.1931
     27 F         -25.8600   -0.6810   25.7950 F       1  UNL1       -0.1992
     28 C         -25.2868    7.4870   29.1123 C.2     1  UNL1        0.0673
     29 C         -24.0765    9.3030   30.0372 C.2     1  UNL1        0.0013
     30 C         -21.7140    1.7744   27.0965 C.2     1  UNL1        0.0138
     31 F         -22.2424   -0.7013   29.6972 F       1  UNL1       -0.2028
     32 C         -25.8160    7.1545   30.3398 C.2     1  UNL1        0.0162
     33 C         -22.5537    0.1940   28.7038 C.2     1  UNL1        0.1549
     34 C         -24.6568    9.0443   31.2606 C.2     1  UNL1        0.0001
     35 C         -23.0331    1.9156   26.6104 C.2     1  UNL1        0.0591
     36 C         -25.4779    7.9528   31.4059 C.2     1  UNL1        0.0013
     37 C         -24.3558    8.4915   28.9547 C.2     1  UNL1        0.0162
     38 CL        -23.1669    2.8268   25.1416 Cl      1  UNL1       -0.0822
     39 N         -25.8314    6.9490   28.0549 N.pl3   1  UNL1       -0.2142
     40 N         -24.9581   -0.1744   29.1202 N.pl3   1  UNL1       -0.2312
     41 C         -21.4527    0.8570   28.1137 C.2     1  UNL1        0.0318
     42 C         -23.9084    0.4214   28.3864 C.2     1  UNL1        0.0939
     43 C         -24.1579    1.3059   27.2029 C.2     1  UNL1        0.0302
@<TRIPOS>BOND
     1     1    40    1
     2     2     7    1
     3     2     1    1
     4     3     2    2
     5     4     3    1
     6     4     5    2
     7     5     6    1
     8     6     7    2
     9     8     1    1
    10     8     9    1
    11     8    12    1
    12     9    10    1
    13    10    11    1
    14    12    11    1
    15    13    43    1
    16    14    13    1
    17    14    15    1
    18    15    18    2
    19    16    17    1
    20    16    15    1
    21    17    39    1
    22    19    14    2
    23    20    21    2
    24    20    19    1
    25    21    26    1
    26    22    21    1
    27    23    22    1
    28    24    23    1
    29    24    25    1
    30    26    27    1
    31    26    13    2
    32    28    32    1
    33    29    34    2
    34    30    41    1
    35    32    36    2
    36    33    31    1
    37    34    36    1
    38    35    30    2
    39    35    43    1
    40    37    28    2
    41    37    29    1
    42    38    35    1
    43    39    28    1
    44    41    33    2
    45    42    33    1
    46    42    40    1
    47    43    42    2
