@<TRIPOS>MOLECULE
outputs/IAG933/test6/raw/output_8463_IAG933_linker_design_.xyz
 42 45 0 0 0
SMALL
GASTEIGER

@<TRIPOS>ATOM
      1 C         -24.8550   -1.0120   30.1430 C.3     1  UNL1        0.0962
      2 C         -24.9730   -2.5050   29.7880 C.2     1  UNL1       -0.0142
      3 C         -23.9060   -3.1730   29.1460 C.2     1  UNL1       -0.0038
      4 C         -23.9890   -4.5490   28.8530 C.2     1  UNL1       -0.0003
      5 C         -25.1370   -5.2800   29.2050 C.2     1  UNL1       -0.0000
      6 C         -26.2320   -4.6110   29.7840 C.2     1  UNL1       -0.0003
      7 C         -26.1550   -3.2320   30.0650 C.2     1  UNL1       -0.0038
      8 C         -25.3870   -0.6790   31.5710 C.3     1  UNL1        0.0838
      9 C         -25.1890    0.7730   32.0280 C.3     1  UNL1        0.0196
     10 C         -25.3360    0.6840   33.5440 C.3     1  UNL1        0.0203
     11 C         -24.8290   -0.7150   33.9050 C.3     1  UNL1        0.0887
     12 N         -24.7580   -1.4810   32.6460 N.3     1  UNL1       -0.2187
     13 C         -25.6880    1.6140   26.4610 C.2     1  UNL1        0.0213
     14 C         -26.2500    2.9200   26.3950 C.2     1  UNL1        0.0729
     15 C         -25.6420    4.0930   27.1230 C.2     1  UNL1        0.2661
     16 N         -25.6140    5.2520   26.4490 N.am    1  UNL1       -0.1997
     17 C         -25.0260    6.4790   26.9630 C.3     1  UNL1        0.1388
     18 O         -25.1430    3.9660   28.2430 O.2     1  UNL1       -0.2683
     19 C         -27.4380    3.0910   25.6450 C.2     1  UNL1        0.1064
     20 N         -28.0750    2.0890   25.0030 N.2     1  UNL1       -0.2081
     21 C         -27.5430    0.8490   25.0790 C.2     1  UNL1        0.2530
     22 O         -28.1930   -0.2080   24.4770 O.2     1  UNL1       -0.4558
     23 C         -29.4600    0.0050   23.8660 C.3     1  UNL1        0.2426
     24 C         -30.0650   -1.3770   23.5730 C.3     1  UNL1        0.2292
     25 O         -30.7290   -1.8780   24.7210 O.3     1  UNL1       -0.2162
     26 C         -26.3540    0.5760   25.7770 C.2     1  UNL1        0.1895
     27 F         -25.8600   -0.6810   25.7950 F       1  UNL1       -0.1996
     28 C         -23.7761    1.1635   29.0801 C.2     1  UNL1        0.0714
     29 C         -25.1232    1.3198   28.7406 C.3     1  UNL1        0.1208
     30 O         -26.8292   -0.3562   28.7731 O.2     1  UNL1       -0.2952
     31 C         -22.9954    1.3166   25.6918 C.3     1  UNL1        0.3218
     32 F         -21.8706    1.8725   25.2242 F       1  UNL1       -0.1983
     33 F         -20.9265    1.4962   27.3119 F       1  UNL1       -0.2341
     34 C         -25.6808   -0.0501   29.1843 C.2     1  UNL1        0.1628
     35 C         -24.5268    1.3520   27.5096 C.3     1  UNL1        0.0761
     36 F         -23.6416    0.6846   24.7290 F       1  UNL1       -0.1983
     37 C         -25.9915    1.9061   29.9075 C.3     1  UNL1        0.1551
     38 C         -26.3549    3.8875   31.2223 C.3     1  UNL1        0.1741
     39 C         -23.2236    1.4115   26.9527 C.3     1  UNL1        0.1117
     40 C         -22.0912    1.9427   27.6591 C.3     1  UNL1        0.1995
     41 N         -22.7736    1.0164   29.7905 N.2     1  UNL1       -0.1565
     42 O         -25.3618    3.1579   30.4651 O.3     1  UNL1       -0.3503
@<TRIPOS>BOND
     1     1    34    1
     2     2     7    1
     3     2     1    1
     4     3     2    2
     5     4     3    1
     6     4     5    2
     7     5     6    1
     8     6     7    2
     9     8     1    1
    10     8     9    1
    11     8    12    1
    12     9    10    1
    13    10    11    1
    14    12    11    1
    15    13    35    1
    16    14    13    1
    17    14    15    1
    18    15    18    2
    19    16    17    1
    20    16    15    1
    21    19    14    2
    22    20    21    2
    23    20    19    1
    24    21    26    1
    25    22    21    1
    26    23    22    1
    27    24    23    1
    28    24    25    1
    29    26    27    1
    30    26    13    2
    31    28    41    2
    32    29    28    1
    33    29    34    1
    34    29    37    1
    35    30    34    2
    36    31    39    1
    37    32    31    1
    38    33    40    1
    39    35    39    1
    40    35    29    1
    41    35    28    1
    42    36    31    1
    43    37    42    1
    44    39    40    1
    45    42    38    1
