@<TRIPOS>MOLECULE
outputs/IAG933/test6/raw/output_8464_IAG933_linker_design_.xyz
 42 45 0 0 0
SMALL
GASTEIGER

@<TRIPOS>ATOM
      1 C         -24.8550   -1.0120   30.1430 C.3     1  UNL1        0.0625
      2 C         -24.9730   -2.5050   29.7880 C.2     1  UNL1       -0.0191
      3 C         -23.9060   -3.1730   29.1460 C.2     1  UNL1       -0.0042
      4 C         -23.9890   -4.5490   28.8530 C.2     1  UNL1       -0.0003
      5 C         -25.1370   -5.2800   29.2050 C.2     1  UNL1       -0.0000
      6 C         -26.2320   -4.6110   29.7840 C.2     1  UNL1       -0.0003
      7 C         -26.1550   -3.2320   30.0650 C.2     1  UNL1       -0.0042
      8 C         -25.3870   -0.6790   31.5710 C.3     1  UNL1        0.0788
      9 C         -25.1890    0.7730   32.0280 C.3     1  UNL1        0.0193
     10 C         -25.3360    0.6840   33.5440 C.3     1  UNL1        0.0202
     11 C         -24.8290   -0.7150   33.9050 C.3     1  UNL1        0.0887
     12 N         -24.7580   -1.4810   32.6460 N.3     1  UNL1       -0.2191
     13 C         -25.6880    1.6140   26.4610 C.3     1  UNL1        0.0921
     14 C         -26.2500    2.9200   26.3950 C.2     1  UNL1        0.0589
     15 C         -25.6420    4.0930   27.1230 C.2     1  UNL1        0.2628
     16 N         -25.6140    5.2520   26.4490 N.am    1  UNL1       -0.2000
     17 C         -25.0260    6.4790   26.9630 C.3     1  UNL1        0.1388
     18 O         -25.1430    3.9660   28.2430 O.2     1  UNL1       -0.2686
     19 C         -27.4380    3.0910   25.6450 C.2     1  UNL1        0.1025
     20 N         -28.0750    2.0890   25.0030 N.2     1  UNL1       -0.2118
     21 C         -27.5430    0.8490   25.0790 C.2     1  UNL1        0.2344
     22 O         -28.1930   -0.2080   24.4770 O.2     1  UNL1       -0.4585
     23 C         -29.4600    0.0050   23.8660 C.3     1  UNL1        0.2423
     24 C         -30.0650   -1.3770   23.5730 C.3     1  UNL1        0.2292
     25 O         -30.7290   -1.8780   24.7210 O.3     1  UNL1       -0.2162
     26 C         -26.3540    0.5760   25.7770 C.3     1  UNL1        0.2440
     27 F         -25.8600   -0.6810   25.7950 F       1  UNL1       -0.2265
     28 O         -27.8727   -0.9189   28.5508 O.2     1  UNL1       -0.2733
     29 F         -20.4092    1.9839   27.9680 F       1  UNL1       -0.2042
     30 C         -27.4010    0.0716   29.0618 C.2     1  UNL1        0.2431
     31 N         -28.8185    1.7271   32.3331 N.3     1  UNL1       -0.1324
     32 C         -28.2516    1.1314   29.8726 C.3     1  UNL1        0.1058
     33 C         -28.8944    0.7521   31.2015 C.3     1  UNL1        0.1010
     34 C         -23.4403    2.0314   25.9199 C.2     1  UNL1       -0.0018
     35 C         -29.7531   -0.5449   31.1026 C.3     1  UNL1        0.0210
     36 C         -24.3427    1.4571   26.8255 C.2     1  UNL1       -0.0173
     37 C         -22.5768    0.9679   28.3692 C.2     1  UNL1        0.0267
     38 C         -21.6966    1.6686   27.5277 C.2     1  UNL1        0.1399
     39 C         -22.0886    2.1426   26.2828 C.2     1  UNL1        0.0293
     40 C         -24.8362   -0.1323   28.8391 C.3     1  UNL1        0.1225
     41 C         -23.9259    0.8059   27.9770 C.2     1  UNL1       -0.0035
     42 N         -26.1897    0.5307   29.0553 N.am    1  UNL1       -0.2023
@<TRIPOS>BOND
     1     1    40    1
     2     2     7    1
     3     2     1    1
     4     3     2    2
     5     4     3    1
     6     4     5    2
     7     5     6    1
     8     6     7    2
     9     8     1    1
    10     8     9    1
    11     8    12    1
    12     9    10    1
    13    10    11    1
    14    12    11    1
    15    13    36    1
    16    14    13    1
    17    14    15    1
    18    15    18    2
    19    16    17    1
    20    16    15    1
    21    19    14    2
    22    20    21    2
    23    20    19    1
    24    21    26    1
    25    22    21    1
    26    23    22    1
    27    24    23    1
    28    24    25    1
    29    26    27    1
    30    26    13    1
    31    28    30    2
    32    30    32    1
    33    32    33    1
    34    33    35    1
    35    33    31    1
    36    34    39    2
    37    34    36    1
    38    36    41    2
    39    38    29    1
    40    38    37    2
    41    39    38    1
    42    40    42    1
    43    41    37    1
    44    41    40    1
    45    42    30    1
