@<TRIPOS>MOLECULE
outputs/IAG933/test6/raw/output_8468_IAG933_linker_design_.xyz
 44 47 0 0 0
SMALL
GASTEIGER

@<TRIPOS>ATOM
      1 C         -24.8550   -1.0120   30.1430 C.3     1  UNL1        0.2062
      2 C         -24.9730   -2.5050   29.7880 C.2     1  UNL1        0.0218
      3 C         -23.9060   -3.1730   29.1460 C.2     1  UNL1       -0.0004
      4 C         -23.9890   -4.5490   28.8530 C.2     1  UNL1       -0.0002
      5 C         -25.1370   -5.2800   29.2050 C.2     1  UNL1       -0.0000
      6 C         -26.2320   -4.6110   29.7840 C.2     1  UNL1       -0.0002
      7 C         -26.1550   -3.2320   30.0650 C.2     1  UNL1       -0.0004
      8 C         -25.3870   -0.6790   31.5710 C.3     1  UNL1        0.1202
      9 C         -25.1890    0.7730   32.0280 C.3     1  UNL1        0.0233
     10 C         -25.3360    0.6840   33.5440 C.3     1  UNL1        0.0204
     11 C         -24.8290   -0.7150   33.9050 C.3     1  UNL1        0.0889
     12 N         -24.7580   -1.4810   32.6460 N.3     1  UNL1       -0.2150
     13 C         -25.6880    1.6140   26.4610 C.2     1  UNL1        0.0475
     14 C         -26.2500    2.9200   26.3950 C.2     1  UNL1        0.0769
     15 C         -25.6420    4.0930   27.1230 C.2     1  UNL1        0.2664
     16 N         -25.6140    5.2520   26.4490 N.am    1  UNL1       -0.1997
     17 C         -25.0260    6.4790   26.9630 C.3     1  UNL1        0.1388
     18 O         -25.1430    3.9660   28.2430 O.2     1  UNL1       -0.2683
     19 C         -27.4380    3.0910   25.6450 C.2     1  UNL1        0.1067
     20 N         -28.0750    2.0890   25.0030 N.2     1  UNL1       -0.2081
     21 C         -27.5430    0.8490   25.0790 C.2     1  UNL1        0.2533
     22 O         -28.1930   -0.2080   24.4770 O.2     1  UNL1       -0.4558
     23 C         -29.4600    0.0050   23.8660 C.3     1  UNL1        0.2426
     24 C         -30.0650   -1.3770   23.5730 C.3     1  UNL1        0.2292
     25 O         -30.7290   -1.8780   24.7210 O.3     1  UNL1       -0.2162
     26 C         -26.3540    0.5760   25.7770 C.2     1  UNL1        0.1934
     27 F         -25.8600   -0.6810   25.7950 F       1  UNL1       -0.1992
     28 N         -23.4787    0.4893   29.1192 N.2     1  UNL1       -0.0361
     29 C         -23.4528    1.8906   26.5982 C.2     1  UNL1        0.1660
     30 N         -21.6233    1.4007   28.0358 N.2     1  UNL1       -0.2148
     31 C         -29.8562   -0.3125   29.5853 C.3     1  UNL1        0.2070
     32 C         -29.1615    0.9221   29.6712 C.2     1  UNL1        0.0158
     33 F         -23.3892    2.5650   25.4248 F       1  UNL1       -0.2023
     34 O         -27.7639   -0.8861   28.1926 O.2     1  UNL1       -0.2416
     35 C         -22.2639    0.6936   28.9304 C.3     1  UNL1        0.3919
     36 C         -29.7537   -1.4459   30.5620 C.3     1  UNL1        0.2193
     37 C         -22.2199    1.8836   26.9928 C.2     1  UNL1        0.1276
     38 O         -30.6431   -2.5139   30.2534 O.3     1  UNL1       -0.2172
     39 O         -30.6983   -0.6020   28.5330 O.3     1  UNL1       -0.2155
     40 C         -27.1141   -0.1014   28.8715 C.2     1  UNL1        0.3371
     41 C         -27.7991    1.0453   29.4834 C.2     1  UNL1        0.0830
     42 N         -25.6236   -0.2208   29.0504 N.am    1  UNL1       -0.1360
     43 C         -24.5454    0.5962   28.4153 C.2     1  UNL1        0.3299
     44 C         -24.5590    1.3247   27.1942 C.2     1  UNL1        0.1138
@<TRIPOS>BOND
     1     1    42    1
     2     2     7    1
     3     2     1    1
     4     3     2    2
     5     4     3    1
     6     4     5    2
     7     5     6    1
     8     6     7    2
     9     8     1    1
    10     8     9    1
    11     8    12    1
    12     9    10    1
    13    10    11    1
    14    12    11    1
    15    13    44    1
    16    14    13    1
    17    14    15    1
    18    15    18    2
    19    16    17    1
    20    16    15    1
    21    19    14    2
    22    20    21    2
    23    20    19    1
    24    21    26    1
    25    22    21    1
    26    23    22    1
    27    24    23    1
    28    24    25    1
    29    26    27    1
    30    26    13    2
    31    29    37    1
    32    29    44    2
    33    30    35    1
    34    31    39    1
    35    31    32    1
    36    31    36    1
    37    33    29    1
    38    34    40    2
    39    35    28    1
    40    37    30    2
    41    38    36    1
    42    40    42   am
    43    40    41    1
    44    41    32    2
    45    43    42    1
    46    43    28    2
    47    44    43    1
