@<TRIPOS>MOLECULE
outputs/IAG933/test6/raw/output_8471_IAG933_linker_design_.xyz
 46 50 0 0 0
SMALL
GASTEIGER

@<TRIPOS>ATOM
      1 C         -24.8550   -1.0120   30.1430 C.3     1  UNL1        0.1250
      2 C         -24.9730   -2.5050   29.7880 C.2     1  UNL1       -0.0004
      3 C         -23.9060   -3.1730   29.1460 C.2     1  UNL1       -0.0024
      4 C         -23.9890   -4.5490   28.8530 C.2     1  UNL1       -0.0003
      5 C         -25.1370   -5.2800   29.2050 C.2     1  UNL1       -0.0000
      6 C         -26.2320   -4.6110   29.7840 C.2     1  UNL1       -0.0003
      7 C         -26.1550   -3.2320   30.0650 C.2     1  UNL1       -0.0024
      8 C         -25.3870   -0.6790   31.5710 C.3     1  UNL1        0.0977
      9 C         -25.1890    0.7730   32.0280 C.3     1  UNL1        0.0211
     10 C         -25.3360    0.6840   33.5440 C.3     1  UNL1        0.0203
     11 C         -24.8290   -0.7150   33.9050 C.3     1  UNL1        0.0888
     12 N         -24.7580   -1.4810   32.6460 N.3     1  UNL1       -0.2172
     13 C         -25.6880    1.6140   26.4610 C.3     1  UNL1        0.0936
     14 C         -26.2500    2.9200   26.3950 C.2     1  UNL1        0.0589
     15 C         -25.6420    4.0930   27.1230 C.2     1  UNL1        0.2628
     16 N         -25.6140    5.2520   26.4490 N.am    1  UNL1       -0.2000
     17 C         -25.0260    6.4790   26.9630 C.3     1  UNL1        0.1388
     18 O         -25.1430    3.9660   28.2430 O.2     1  UNL1       -0.2686
     19 C         -27.4380    3.0910   25.6450 C.2     1  UNL1        0.1025
     20 N         -28.0750    2.0890   25.0030 N.2     1  UNL1       -0.2118
     21 C         -27.5430    0.8490   25.0790 C.2     1  UNL1        0.2344
     22 O         -28.1930   -0.2080   24.4770 O.2     1  UNL1       -0.4585
     23 C         -29.4600    0.0050   23.8660 C.3     1  UNL1        0.2423
     24 C         -30.0650   -1.3770   23.5730 C.3     1  UNL1        0.2292
     25 O         -30.7290   -1.8780   24.7210 O.3     1  UNL1       -0.2162
     26 C         -26.3540    0.5760   25.7770 C.3     1  UNL1        0.2440
     27 F         -25.8600   -0.6810   25.7950 F       1  UNL1       -0.2265
     28 C         -30.3584    5.6939   29.0762 C.3     1  UNL1        0.0676
     29 O         -30.2441    3.3267   29.4880 O.3     1  UNL1       -0.3510
     30 C         -29.2420    2.1616   29.1501 C.3     1  UNL1        0.1748
     31 C         -24.7396    1.0642   27.4133 C.ar    1  UNL1        0.0024
     32 C         -28.8415    5.6345   28.8837 C.3     1  UNL1        0.1847
     33 C         -27.7086    1.8207   29.1988 C.3     1  UNL1        0.1818
     34 N         -21.8582    0.6203   28.9056 N.ar    1  UNL1       -0.0595
     35 O         -28.1005    4.4418   29.0502 O.3     1  UNL1       -0.2203
     36 C         -23.5084    1.0711   27.4842 C.ar    1  UNL1        0.0678
     37 C         -25.3274    0.5215   28.5065 C.ar    1  UNL1        0.0354
     38 C         -22.0513    1.8536   25.4676 C.3     1  UNL1        0.0754
     39 C         -22.2730    1.4381   26.8783 C.ar    1  UNL1        0.1560
     40 C         -27.9031    0.5875   28.3412 C.3     1  UNL1        0.0417
     41 O         -21.2685    1.2332   27.7987 O.2     1  UNL1       -0.3563
     42 O         -27.0886    2.1019   30.4775 O.3     1  UNL1       -0.2204
     43 N         -24.3845   -0.0125   29.2222 N.ar    1  UNL1       -0.3107
     44 C         -23.2131    0.5428   28.6402 C.ar    1  UNL1        0.1849
     45 C         -30.6983    4.3204   28.5260 C.3     1  UNL1        0.1450
     46 C         -26.6475   -0.2818   28.4696 C.3     1  UNL1        0.0462
@<TRIPOS>BOND
     1     1     2    1
     2     2     7    1
     3     3     2    2
     4     4     3    1
     5     4     5    2
     6     5     6    1
     7     6     7    2
     8     8     1    1
     9     8     9    1
    10     8    12    1
    11     9    10    1
    12    10    11    1
    13    12    11    1
    14    13    31    1
    15    14    13    1
    16    14    15    1
    17    15    18    2
    18    16    17    1
    19    16    15    1
    20    19    14    2
    21    20    21    2
    22    20    19    1
    23    21    26    1
    24    22    21    1
    25    23    22    1
    26    24    23    1
    27    24    25    1
    28    26    27    1
    29    26    13    1
    30    30    33    1
    31    30    29    1
    32    31    36   ar
    33    31    37   ar
    34    32    35    1
    35    32    28    1
    36    33    42    1
    37    36    44   ar
    38    37    43   ar
    39    38    39    1
    40    39    36   ar
    41    39    41   ar
    42    40    46    1
    43    40    33    1
    44    41    34   ar
    45    43     1    1
    46    44    34   ar
    47    44    43   ar
    48    45    28    1
    49    45    29    1
    50    46    37    1
