@<TRIPOS>MOLECULE
outputs/IAG933/test6/raw/output_8472_IAG933_linker_design_.xyz
 43 47 0 0 0
SMALL
GASTEIGER

@<TRIPOS>ATOM
      1 C         -24.8550   -1.0120   30.1430 C.3     1  UNL1        0.0852
      2 C         -24.9730   -2.5050   29.7880 C.2     1  UNL1       -0.0151
      3 C         -23.9060   -3.1730   29.1460 C.2     1  UNL1       -0.0038
      4 C         -23.9890   -4.5490   28.8530 C.2     1  UNL1       -0.0003
      5 C         -25.1370   -5.2800   29.2050 C.2     1  UNL1       -0.0000
      6 C         -26.2320   -4.6110   29.7840 C.2     1  UNL1       -0.0003
      7 C         -26.1550   -3.2320   30.0650 C.2     1  UNL1       -0.0038
      8 C         -25.3870   -0.6790   31.5710 C.3     1  UNL1        0.0828
      9 C         -25.1890    0.7730   32.0280 C.3     1  UNL1        0.0196
     10 C         -25.3360    0.6840   33.5440 C.3     1  UNL1        0.0203
     11 C         -24.8290   -0.7150   33.9050 C.3     1  UNL1        0.0887
     12 N         -24.7580   -1.4810   32.6460 N.3     1  UNL1       -0.2187
     13 C         -25.6880    1.6140   26.4610 C.2     1  UNL1        0.0875
     14 C         -26.2500    2.9200   26.3950 C.2     1  UNL1        0.0784
     15 C         -25.6420    4.0930   27.1230 C.2     1  UNL1        0.2663
     16 N         -25.6140    5.2520   26.4490 N.am    1  UNL1       -0.1997
     17 C         -25.0260    6.4790   26.9630 C.3     1  UNL1        0.1388
     18 O         -25.1430    3.9660   28.2430 O.2     1  UNL1       -0.2683
     19 C         -27.4380    3.0910   25.6450 C.2     1  UNL1        0.1066
     20 N         -28.0750    2.0890   25.0030 N.2     1  UNL1       -0.2081
     21 C         -27.5430    0.8490   25.0790 C.2     1  UNL1        0.2532
     22 O         -28.1930   -0.2080   24.4770 O.2     1  UNL1       -0.4558
     23 C         -29.4600    0.0050   23.8660 C.3     1  UNL1        0.2426
     24 C         -30.0650   -1.3770   23.5730 C.3     1  UNL1        0.2292
     25 O         -30.7290   -1.8780   24.7210 O.3     1  UNL1       -0.2162
     26 C         -26.3540    0.5760   25.7770 C.2     1  UNL1        0.1950
     27 F         -25.8600   -0.6810   25.7950 F       1  UNL1       -0.1994
     28 C         -27.3008    0.5171   29.2383 C.1     1  UNL1       -0.0711
     29 O         -28.0188    5.2526   31.6147 O.3     1  UNL1       -0.2185
     30 N         -23.3533    1.7407   26.9051 N.2     1  UNL1       -0.0383
     31 N         -23.2713    0.7784   28.9091 N.pl3   1  UNL1        0.0806
     32 O         -27.3963    5.5894   30.4762 O.3     1  UNL1       -0.2185
     33 C         -27.8335    3.0397   31.1466 C.3     1  UNL1        0.1271
     34 C         -28.2233    4.0242   31.9566 C.3     1  UNL1        0.2034
     35 C         -28.7472    1.5463   29.5226 C.2     1  UNL1        0.1054
     36 C         -21.1042    1.5538   27.8167 C.3     1  UNL1        0.1360
     37 C         -29.2356    4.4978   29.6620 C.3     1  UNL1        0.1271
     38 C         -22.5904    1.4059   27.9138 C.2     1  UNL1        0.3612
     39 C         -25.8419   -0.2211   29.1661 C.2     1  UNL1        0.1125
     40 N         -24.6145    0.5809   28.4659 N.pl3   1  UNL1       -0.0732
     41 C         -28.0441    5.2824   29.2130 C.3     1  UNL1        0.2034
     42 C         -24.5846    1.3204   27.2068 C.3     1  UNL1        0.3537
     43 N         -28.8558    3.0429   29.9963 N.pl3   1  UNL1       -0.2951
@<TRIPOS>BOND
     1     1    39    1
     2     2     7    1
     3     2     1    1
     4     3     2    2
     5     4     3    1
     6     4     5    2
     7     5     6    1
     8     6     7    2
     9     8     1    1
    10     8     9    1
    11     8    12    1
    12     9    10    1
    13    10    11    1
    14    12    11    1
    15    14    13    1
    16    14    15    1
    17    15    18    2
    18    16    17    1
    19    16    15    1
    20    19    14    2
    21    20    21    2
    22    20    19    1
    23    21    26    1
    24    22    21    1
    25    23    22    1
    26    24    23    1
    27    24    25    1
    28    26    27    1
    29    26    13    2
    30    28    35    2
    31    29    34    1
    32    30    42    1
    33    30    38    2
    34    32    29    1
    35    33    34    1
    36    35    43    1
    37    36    38    1
    38    37    43    1
    39    38    31    1
    40    39    28    2
    41    40    31    1
    42    40    39    1
    43    41    37    1
    44    41    32    1
    45    42    13    1
    46    42    40    1
    47    43    33    1
