@<TRIPOS>MOLECULE
outputs/IAG933/test6/raw/output_8473_IAG933_linker_design_.xyz
 40 44 0 0 0
SMALL
GASTEIGER

@<TRIPOS>ATOM
      1 C         -24.8550   -1.0120   30.1430 C.3     1  UNL1        0.1142
      2 C         -24.9730   -2.5050   29.7880 C.2     1  UNL1       -0.0029
      3 C         -23.9060   -3.1730   29.1460 C.2     1  UNL1       -0.0026
      4 C         -23.9890   -4.5490   28.8530 C.2     1  UNL1       -0.0003
      5 C         -25.1370   -5.2800   29.2050 C.2     1  UNL1       -0.0000
      6 C         -26.2320   -4.6110   29.7840 C.2     1  UNL1       -0.0003
      7 C         -26.1550   -3.2320   30.0650 C.2     1  UNL1       -0.0026
      8 C         -25.3870   -0.6790   31.5710 C.3     1  UNL1        0.0951
      9 C         -25.1890    0.7730   32.0280 C.3     1  UNL1        0.0209
     10 C         -25.3360    0.6840   33.5440 C.3     1  UNL1        0.0203
     11 C         -24.8290   -0.7150   33.9050 C.3     1  UNL1        0.0888
     12 N         -24.7580   -1.4810   32.6460 N.3     1  UNL1       -0.2174
     13 C         -25.6880    1.6140   26.4610 C.3     1  UNL1        0.0760
     14 C         -26.2500    2.9200   26.3950 C.2     1  UNL1        0.0552
     15 C         -25.6420    4.0930   27.1230 C.2     1  UNL1        0.2625
     16 N         -25.6140    5.2520   26.4490 N.am    1  UNL1       -0.2000
     17 C         -25.0260    6.4790   26.9630 C.3     1  UNL1        0.1388
     18 O         -25.1430    3.9660   28.2430 O.2     1  UNL1       -0.2687
     19 C         -27.4380    3.0910   25.6450 C.2     1  UNL1        0.1021
     20 N         -28.0750    2.0890   25.0030 N.2     1  UNL1       -0.2119
     21 C         -27.5430    0.8490   25.0790 C.2     1  UNL1        0.2341
     22 O         -28.1930   -0.2080   24.4770 O.2     1  UNL1       -0.4585
     23 C         -29.4600    0.0050   23.8660 C.3     1  UNL1        0.2423
     24 C         -30.0650   -1.3770   23.5730 C.3     1  UNL1        0.2292
     25 O         -30.7290   -1.8780   24.7210 O.3     1  UNL1       -0.2162
     26 C         -26.3540    0.5760   25.7770 C.3     1  UNL1        0.2404
     27 F         -25.8600   -0.6810   25.7950 F       1  UNL1       -0.2269
     28 C         -26.8632   -0.1535   28.7573 C.2     1  UNL1        0.2446
     29 F         -23.6930    2.4338   25.4568 F       1  UNL1       -0.2024
     30 N         -25.8516   -0.2680   29.3049 N.am    1  UNL1       -0.2678
     31 F         -20.4895    0.8278   28.3633 F       1  UNL1       -0.2061
     32 C         -23.9499    1.1184   27.6838 C.2     1  UNL1       -0.0055
     33 C         -25.2652    1.2019   27.6220 C.3     1  UNL1        0.0555
     34 C         -22.9266    0.6256   28.6091 C.3     1  UNL1        0.0833
     35 C         -21.9423    1.5326   26.7406 C.2     1  UNL1        0.1901
     36 CA        -26.1024    1.0497   28.9019 C.3     1  UNL1        0.1564
     37 O         -27.9639   -0.6437   28.3846 O.2     1  UNL1       -0.2731
     38 C         -21.7666    1.0183   27.9674 C.2     1  UNL1        0.1512
     39 C         -23.2214    1.7409   26.5636 C.2     1  UNL1        0.1619
     40 F         -20.9871    1.7583   25.8194 F       1  UNL1       -0.1998
@<TRIPOS>BOND
     1     1     2    1
     2     2     7    1
     3     3     2    2
     4     4     3    1
     5     4     5    2
     6     5     6    1
     7     6     7    2
     8     8     1    1
     9     8     9    1
    10     8    12    1
    11     9    10    1
    12    10    11    1
    13    12    11    1
    14    13    33    1
    15    14    13    1
    16    14    15    1
    17    15    18    2
    18    16    17    1
    19    16    15    1
    20    19    14    2
    21    20    21    2
    22    20    19    1
    23    21    26    1
    24    22    21    1
    25    23    22    1
    26    24    23    1
    27    24    25    1
    28    26    27    1
    29    26    13    1
    30    28    36    1
    31    28    30   am
    32    29    39    1
    33    30     1    1
    34    32    34    1
    35    33    32    1
    36    35    38    2
    37    36    33    1
    38    36    30    1
    39    37    28    2
    40    38    31    1
    41    38    34    1
    42    39    35    1
    43    39    32    2
    44    40    35    1
