@<TRIPOS>MOLECULE
outputs/IAG933/test6/raw/output_8476_IAG933_linker_design_.xyz
 44 48 0 0 0
SMALL
GASTEIGER

@<TRIPOS>ATOM
      1 C         -24.8550   -1.0120   30.1430 C.3     1  UNL1        0.1539
      2 C         -24.9730   -2.5050   29.7880 C.2     1  UNL1        0.0059
      3 C         -23.9060   -3.1730   29.1460 C.2     1  UNL1       -0.0019
      4 C         -23.9890   -4.5490   28.8530 C.2     1  UNL1       -0.0002
      5 C         -25.1370   -5.2800   29.2050 C.2     1  UNL1       -0.0000
      6 C         -26.2320   -4.6110   29.7840 C.2     1  UNL1       -0.0002
      7 C         -26.1550   -3.2320   30.0650 C.2     1  UNL1       -0.0019
      8 C         -25.3870   -0.6790   31.5710 C.3     1  UNL1        0.1041
      9 C         -25.1890    0.7730   32.0280 C.3     1  UNL1        0.0217
     10 C         -25.3360    0.6840   33.5440 C.3     1  UNL1        0.0203
     11 C         -24.8290   -0.7150   33.9050 C.3     1  UNL1        0.0888
     12 N         -24.7580   -1.4810   32.6460 N.3     1  UNL1       -0.2166
     13 C         -25.6880    1.6140   26.4610 C.3     1  UNL1        0.0892
     14 C         -26.2500    2.9200   26.3950 C.2     1  UNL1        0.0541
     15 C         -25.6420    4.0930   27.1230 C.2     1  UNL1        0.2179
     16 N         -25.6140    5.2520   26.4490 N.2     1  UNL1       -0.2359
     17 C         -25.0260    6.4790   26.9630 C.3     1  UNL1        0.1550
     18 O         -25.1430    3.9660   28.2430 O.2     1  UNL1       -0.4590
     19 C         -27.4380    3.0910   25.6450 C.2     1  UNL1        0.1022
     20 N         -28.0750    2.0890   25.0030 N.2     1  UNL1       -0.2119
     21 C         -27.5430    0.8490   25.0790 C.2     1  UNL1        0.2341
     22 O         -28.1930   -0.2080   24.4770 O.2     1  UNL1       -0.4585
     23 C         -29.4600    0.0050   23.8660 C.3     1  UNL1        0.2423
     24 C         -30.0650   -1.3770   23.5730 C.3     1  UNL1        0.2292
     25 O         -30.7290   -1.8780   24.7210 O.3     1  UNL1       -0.2162
     26 C         -26.3540    0.5760   25.7770 C.3     1  UNL1        0.2414
     27 F         -25.8600   -0.6810   25.7950 F       1  UNL1       -0.2268
     28 O         -26.1897    5.6264   33.1581 O.3     1  UNL1       -0.2781
     29 C         -25.5699    3.5827   30.4232 C.3     1  UNL1        0.1363
     30 C         -24.2716    1.4532   26.8015 C.3     1  UNL1        0.1184
     31 N         -23.5401    2.1605   25.7252 N.3     1  UNL1       -0.1900
     32 C         -26.2478    4.7530   30.9642 C.3     1  UNL1        0.1238
     33 O         -22.2990    0.4087   29.7439 O.2     1  UNL1       -0.2688
     34 N         -25.8236    4.8407   32.1875 N.3     1  UNL1       -0.1464
     35 C         -25.3417    5.6825   34.3054 C.3     1  UNL1        0.2007
     36 N         -24.8731    2.9610   31.1676 N.3     1  UNL1       -0.1951
     37 N         -21.1338    2.1746   26.7121 N.2     1  UNL1       -0.1628
     38 N         -21.2718    1.5067   27.9235 N.am    1  UNL1       -0.0804
     39 C         -22.3589    2.7564   26.0232 C.3     1  UNL1        0.2365
     40 C         -23.8570    0.8901   28.0695 C.3     1  UNL1        0.2109
     41 C         -24.9451    3.9426   32.2967 C.3     1  UNL1        0.1898
     42 C         -22.5787    0.9494   28.7123 C.2     1  UNL1        0.2909
     43 C         -25.2443    3.0723   29.1891 C.3     1  UNL1        0.2258
     44 O         -24.8120   -0.1866   28.8650 O.3     1  UNL1       -0.3422
@<TRIPOS>BOND
     1     1    44    1
     2     2     7    1
     3     2     1    1
     4     3     2    2
     5     4     3    1
     6     4     5    2
     7     5     6    1
     8     6     7    2
     9     8     1    1
    10     8     9    1
    11     8    12    1
    12     9    10    1
    13    10    11    1
    14    12    11    1
    15    13    14    1
    16    13    30    1
    17    14    15    1
    18    15    18    1
    19    16    17    1
    20    16    15    2
    21    18    43    1
    22    19    14    2
    23    20    21    2
    24    20    19    1
    25    21    26    1
    26    22    21    1
    27    23    22    1
    28    24    23    1
    29    24    25    1
    30    26    27    1
    31    26    13    1
    32    28    35    1
    33    29    43    1
    34    29    32    1
    35    29    36    1
    36    30    31    1
    37    30    40    1
    38    31    39    1
    39    32    34    1
    40    34    41    1
    41    34    28    1
    42    36    41    1
    43    37    38    2
    44    38    42    1
    45    39    37    1
    46    40    42    1
    47    40    44    1
    48    42    33    2
