@<TRIPOS>MOLECULE
outputs/IAG933/test6/raw/output_8477_IAG933_linker_design_.xyz
 40 43 0 0 0
SMALL
GASTEIGER

@<TRIPOS>ATOM
      1 C         -24.8550   -1.0120   30.1430 C.3     1  UNL1        0.1984
      2 C         -24.9730   -2.5050   29.7880 C.2     1  UNL1        0.0213
      3 C         -23.9060   -3.1730   29.1460 C.2     1  UNL1       -0.0004
      4 C         -23.9890   -4.5490   28.8530 C.2     1  UNL1       -0.0002
      5 C         -25.1370   -5.2800   29.2050 C.2     1  UNL1       -0.0000
      6 C         -26.2320   -4.6110   29.7840 C.2     1  UNL1       -0.0002
      7 C         -26.1550   -3.2320   30.0650 C.2     1  UNL1       -0.0004
      8 C         -25.3870   -0.6790   31.5710 C.3     1  UNL1        0.1197
      9 C         -25.1890    0.7730   32.0280 C.3     1  UNL1        0.0233
     10 C         -25.3360    0.6840   33.5440 C.3     1  UNL1        0.0204
     11 C         -24.8290   -0.7150   33.9050 C.3     1  UNL1        0.0889
     12 N         -24.7580   -1.4810   32.6460 N.3     1  UNL1       -0.2150
     13 C         -25.6880    1.6140   26.4610 C.2     1  UNL1        0.1812
     14 C         -26.2500    2.9200   26.3950 C.2     1  UNL1        0.1139
     15 C         -25.6420    4.0930   27.1230 C.2     1  UNL1        0.2698
     16 N         -25.6140    5.2520   26.4490 N.am    1  UNL1       -0.1996
     17 C         -25.0260    6.4790   26.9630 C.3     1  UNL1        0.1388
     18 O         -25.1430    3.9660   28.2430 O.2     1  UNL1       -0.2682
     19 C         -27.4380    3.0910   25.6450 C.2     1  UNL1        0.1102
     20 N         -28.0750    2.0890   25.0030 N.2     1  UNL1       -0.2078
     21 C         -27.5430    0.8490   25.0790 C.2     1  UNL1        0.2568
     22 O         -28.1930   -0.2080   24.4770 O.2     1  UNL1       -0.4557
     23 C         -29.4600    0.0050   23.8660 C.3     1  UNL1        0.2426
     24 C         -30.0650   -1.3770   23.5730 C.3     1  UNL1        0.2292
     25 O         -30.7290   -1.8780   24.7210 O.3     1  UNL1       -0.2162
     26 C         -26.3540    0.5760   25.7770 C.2     1  UNL1        0.2301
     27 F         -25.8600   -0.6810   25.7950 F       1  UNL1       -0.1956
     28 C         -26.6635    0.8744   29.3787 C.3     1  UNL1        0.2380
     29 O         -30.1636    1.4200   28.3904 O.3     1  UNL1       -0.2174
     30 O         -28.2083   -0.9796   28.9737 O.3     1  UNL1       -0.2158
     31 F         -21.2626    1.6468   27.7799 F       1  UNL1       -0.1978
     32 C         -23.2208    0.3345   28.5544 C.2     1  UNL1        0.2471
     33 N         -25.5737   -0.1432   29.1234 N.pl3   1  UNL1       -0.1888
     34 F         -22.4678   -0.1262   29.5141 F       1  UNL1       -0.1941
     35 C         -23.3894    1.6332   26.7138 C.2     1  UNL1        0.2129
     36 C         -24.5085    0.4831   28.2880 C.2     1  UNL1        0.3104
     37 C         -22.5106    1.1418   27.6081 C.2     1  UNL1        0.2151
     38 N         -24.5349    1.2921   27.1125 N.pl3   1  UNL1       -0.1447
     39 C         -28.0693    0.3671   29.0024 C.3     1  UNL1        0.2311
     40 C         -29.2134    1.3335   29.4631 C.3     1  UNL1        0.2191
@<TRIPOS>BOND
     1     1    33    1
     2     2     7    1
     3     2     1    1
     4     3     2    2
     5     4     3    1
     6     4     5    2
     7     5     6    1
     8     6     7    2
     9     8     1    1
    10     8     9    1
    11     8    12    1
    12     9    10    1
    13    10    11    1
    14    12    11    1
    15    13    38    1
    16    14    13    1
    17    14    15    1
    18    15    18    2
    19    16    17    1
    20    16    15    1
    21    19    14    2
    22    20    21    2
    23    20    19    1
    24    21    26    1
    25    22    21    1
    26    23    22    1
    27    24    23    1
    28    24    25    1
    29    26    27    1
    30    26    13    2
    31    29    40    1
    32    32    34    1
    33    33    28    1
    34    35    38    1
    35    35    37    2
    36    36    32    2
    37    36    33    1
    38    37    31    1
    39    37    32    1
    40    38    36    1
    41    39    30    1
    42    39    28    1
    43    39    40    1
