@<TRIPOS>MOLECULE
No_848-gen_results/8p0m/2024-11-27-11-27-31/
 12 13 0 0 0
SMALL
GASTEIGER

@<TRIPOS>ATOM
      1 C         -28.0162   -0.8135   28.8779 C.ar    1  UNL1        0.0031
      2 C         -28.4690   -0.7850   29.8287 C.ar    1  UNL1        0.0002
      3 C         -26.5042   -0.7777   28.8766 C.ar    1  UNL1        0.0369
      4 C         -25.8103   -0.8531   30.1028 C.ar    1  UNL1        0.1393
      5 C         -27.9906   -0.8916   31.2257 C.ar    1  UNL1        0.0031
      6 C         -26.6042   -0.8676   31.2652 C.ar    1  UNL1        0.0369
      7 O         -24.5004   -0.7818   30.1446 O.3     1  UNL1       -0.4703
      8 C         -23.8455    0.2950   29.6103 C.3     1  UNL1        0.2101
      9 C         -23.6132    1.3411   30.3332 C.2     1  UNL1        0.0212
     10 C         -23.3006    2.5722   29.7108 C.2     1  UNL1       -0.0009
     11 C         -22.9750    2.5276   28.3370 C.2     1  UNL1       -0.0009
     12 C         -23.8100    0.7520   28.2525 C.2     1  UNL1        0.0212
@<TRIPOS>BOND
     1     4     7    1
     2     7     8    1
     3     8     9    1
     4     9    10    2
     5    10    11    1
     6     8    12    1
     7    11    12    2
     8     1     2   ar
     9     2     5   ar
    10     5     6   ar
    11     6     4   ar
    12     4     3   ar
    13     3     1   ar
