@<TRIPOS>MOLECULE
outputs/IAG933/test6/raw/output_8480_IAG933_linker_design_.xyz
 41 45 0 0 0
SMALL
GASTEIGER

@<TRIPOS>ATOM
      1 C         -24.8550   -1.0120   30.1430 C.3     1  UNL1        0.1181
      2 C         -24.9730   -2.5050   29.7880 C.2     1  UNL1       -0.0026
      3 C         -23.9060   -3.1730   29.1460 C.2     1  UNL1       -0.0026
      4 C         -23.9890   -4.5490   28.8530 C.2     1  UNL1       -0.0003
      5 C         -25.1370   -5.2800   29.2050 C.2     1  UNL1       -0.0000
      6 C         -26.2320   -4.6110   29.7840 C.2     1  UNL1       -0.0003
      7 C         -26.1550   -3.2320   30.0650 C.2     1  UNL1       -0.0026
      8 C         -25.3870   -0.6790   31.5710 C.3     1  UNL1        0.0955
      9 C         -25.1890    0.7730   32.0280 C.3     1  UNL1        0.0209
     10 C         -25.3360    0.6840   33.5440 C.3     1  UNL1        0.0203
     11 C         -24.8290   -0.7150   33.9050 C.3     1  UNL1        0.0888
     12 N         -24.7580   -1.4810   32.6460 N.3     1  UNL1       -0.2174
     13 C         -25.6880    1.6140   26.4610 C.3     1  UNL1        0.0829
     14 C         -26.2500    2.9200   26.3950 C.2     1  UNL1        0.0556
     15 C         -25.6420    4.0930   27.1230 C.2     1  UNL1        0.2625
     16 N         -25.6140    5.2520   26.4490 N.am    1  UNL1       -0.2000
     17 C         -25.0260    6.4790   26.9630 C.3     1  UNL1        0.1388
     18 O         -25.1430    3.9660   28.2430 O.2     1  UNL1       -0.2687
     19 C         -27.4380    3.0910   25.6450 C.2     1  UNL1        0.1022
     20 N         -28.0750    2.0890   25.0030 N.2     1  UNL1       -0.2119
     21 C         -27.5430    0.8490   25.0790 C.2     1  UNL1        0.2341
     22 O         -28.1930   -0.2080   24.4770 O.2     1  UNL1       -0.4585
     23 C         -29.4600    0.0050   23.8660 C.3     1  UNL1        0.2423
     24 C         -30.0650   -1.3770   23.5730 C.3     1  UNL1        0.2292
     25 O         -30.7290   -1.8780   24.7210 O.3     1  UNL1       -0.2162
     26 C         -26.3540    0.5760   25.7770 C.3     1  UNL1        0.2408
     27 F         -25.8600   -0.6810   25.7950 F       1  UNL1       -0.2269
     28 C         -21.1588    1.3209   27.3705 C.2     1  UNL1        0.0023
     29 C         -23.3607    0.2580   28.7828 C.2     1  UNL1        0.0672
     30 F         -23.6469    2.4233   24.9568 F       1  UNL1       -0.1933
     31 N         -24.5580   -0.0512   29.2807 N.am    1  UNL1       -0.2537
     32 C         -24.7794    1.2493   27.5628 C.3     1  UNL1        0.1077
     33 N         -21.8660   -1.0014   30.2128 N.pl3   1  UNL1       -0.1268
     34 C         -22.5794    2.1132   25.6424 C.3     1  UNL1        0.3407
     35 C         -23.5270    1.0794   27.6934 C.2     1  UNL1        0.0029
     36 C         -20.9777    0.4910   28.4667 C.2     1  UNL1        0.0192
     37 C         -22.4813    1.5010   26.9707 C.2     1  UNL1        0.0414
     38 C         -25.3870    0.7979   28.6556 C.2     1  UNL1        0.2337
     39 O         -26.4520    1.2207   29.0813 O.2     1  UNL1       -0.2742
     40 F         -21.4736    2.3643   24.9997 F       1  UNL1       -0.1933
     41 C         -22.0653   -0.1097   29.1534 C.2     1  UNL1        0.1024
@<TRIPOS>BOND
     1     1     2    1
     2     2     7    1
     3     3     2    2
     4     4     3    1
     5     4     5    2
     6     5     6    1
     7     6     7    2
     8     8     1    1
     9     8     9    1
    10     8    12    1
    11     9    10    1
    12    10    11    1
    13    12    11    1
    14    13    14    1
    15    13    32    1
    16    14    15    1
    17    15    18    2
    18    16    17    1
    19    16    15    1
    20    19    14    2
    21    20    21    2
    22    20    19    1
    23    21    26    1
    24    22    21    1
    25    23    22    1
    26    24    23    1
    27    24    25    1
    28    26    27    1
    29    26    13    1
    30    28    36    1
    31    29    41    1
    32    29    31    1
    33    30    34    1
    34    31     1    1
    35    32    35    1
    36    32    38    1
    37    34    37    1
    38    35    29    2
    39    36    41    2
    40    37    28    2
    41    37    35    1
    42    38    39    2
    43    38    31   am
    44    40    34    1
    45    41    33    1
