@<TRIPOS>MOLECULE
outputs/IAG933/test6/raw/output_8481_IAG933_linker_design_.xyz
 43 47 0 0 0
SMALL
GASTEIGER

@<TRIPOS>ATOM
      1 C         -24.8550   -1.0120   30.1430 C.3     1  UNL1        0.0407
      2 C         -24.9730   -2.5050   29.7880 C.2     1  UNL1       -0.0211
      3 C         -23.9060   -3.1730   29.1460 C.2     1  UNL1       -0.0042
      4 C         -23.9890   -4.5490   28.8530 C.2     1  UNL1       -0.0003
      5 C         -25.1370   -5.2800   29.2050 C.2     1  UNL1       -0.0000
      6 C         -26.2320   -4.6110   29.7840 C.2     1  UNL1       -0.0003
      7 C         -26.1550   -3.2320   30.0650 C.2     1  UNL1       -0.0042
      8 C         -25.3870   -0.6790   31.5710 C.3     1  UNL1        0.0769
      9 C         -25.1890    0.7730   32.0280 C.3     1  UNL1        0.0192
     10 C         -25.3360    0.6840   33.5440 C.3     1  UNL1        0.0202
     11 C         -24.8290   -0.7150   33.9050 C.3     1  UNL1        0.0887
     12 N         -24.7580   -1.4810   32.6460 N.3     1  UNL1       -0.2191
     13 C         -25.6880    1.6140   26.4610 C.2     1  UNL1        0.0176
     14 C         -26.2500    2.9200   26.3950 C.2     1  UNL1        0.0726
     15 C         -25.6420    4.0930   27.1230 C.2     1  UNL1        0.2661
     16 N         -25.6140    5.2520   26.4490 N.am    1  UNL1       -0.1997
     17 C         -25.0260    6.4790   26.9630 C.3     1  UNL1        0.1388
     18 O         -25.1430    3.9660   28.2430 O.2     1  UNL1       -0.2683
     19 C         -27.4380    3.0910   25.6450 C.2     1  UNL1        0.1064
     20 N         -28.0750    2.0890   25.0030 N.2     1  UNL1       -0.2081
     21 C         -27.5430    0.8490   25.0790 C.2     1  UNL1        0.2530
     22 O         -28.1930   -0.2080   24.4770 O.2     1  UNL1       -0.4558
     23 C         -29.4600    0.0050   23.8660 C.3     1  UNL1        0.2426
     24 C         -30.0650   -1.3770   23.5730 C.3     1  UNL1        0.2292
     25 O         -30.7290   -1.8780   24.7210 O.3     1  UNL1       -0.2162
     26 C         -26.3540    0.5760   25.7770 C.2     1  UNL1        0.1892
     27 F         -25.8600   -0.6810   25.7950 F       1  UNL1       -0.1996
     28 C         -23.1239    1.3457   26.7552 C.3     1  UNL1        0.1196
     29 C         -22.0007    1.2210   27.6860 C.3     1  UNL1        0.2471
     30 C         -27.3818    5.4276   32.9155 C.3     1  UNL1        0.0239
     31 C         -25.1997    3.1974   30.9762 C.1     1  UNL1        0.0002
     32 N         -25.7190    3.9689   31.9825 N.pl3   1  UNL1       -0.2671
     33 C         -25.4068    0.1633   29.1588 C.3     1  UNL1        0.0353
     34 C         -26.6281    5.0391   31.6169 C.3     1  UNL1        0.0998
     35 C         -24.5627    1.4205   27.2229 C.3     1  UNL1        0.0536
     36 C         -25.5116    3.8660   33.5098 C.3     1  UNL1        0.1218
     37 N         -22.4112    1.3072   29.0491 N.3     1  UNL1       -0.1868
     38 C         -23.7352    0.6065   29.0432 C.3     1  UNL1        0.0882
     39 C         -24.8784    2.4910   30.0569 C.1     1  UNL1       -0.0715
     40 F         -20.8181    1.6028   27.3882 F       1  UNL1       -0.2167
     41 C         -22.5586    2.8799   24.9002 C.1     1  UNL1       -0.0140
     42 C         -22.9010    2.1528   25.8450 C.1     1  UNL1       -0.0742
     43 C         -24.8251    1.6739   28.8717 C.3     1  UNL1        0.0767
@<TRIPOS>BOND
     1     1     2    1
     2     2     7    1
     3     3     2    2
     4     4     3    1
     5     4     5    2
     6     5     6    1
     7     6     7    2
     8     8     1    1
     9     8     9    1
    10     8    12    1
    11     9    10    1
    12    10    11    1
    13    12    11    1
    14    14    13    1
    15    14    15    1
    16    15    18    2
    17    16    17    1
    18    16    15    1
    19    19    14    2
    20    20    21    2
    21    20    19    1
    22    21    26    1
    23    22    21    1
    24    23    22    1
    25    24    23    1
    26    24    25    1
    27    26    27    1
    28    26    13    2
    29    28    42    1
    30    28    35    1
    31    28    29    1
    32    29    40    1
    33    29    37    1
    34    31    32    1
    35    32    36    1
    36    33     1    1
    37    34    32    1
    38    34    30    1
    39    35    13    1
    40    35    43    1
    41    38    37    1
    42    38    33    1
    43    39    31    3
    44    41    42    3
    45    43    38    1
    46    43    33    1
    47    43    39    1
