@<TRIPOS>MOLECULE
outputs/IAG933/test6/raw/output_8487_IAG933_linker_design_.xyz
 43 46 0 0 0
SMALL
GASTEIGER

@<TRIPOS>ATOM
      1 C         -24.8550   -1.0120   30.1430 C.3     1  UNL1        0.0641
      2 C         -24.9730   -2.5050   29.7880 C.2     1  UNL1       -0.0168
      3 C         -23.9060   -3.1730   29.1460 C.2     1  UNL1       -0.0039
      4 C         -23.9890   -4.5490   28.8530 C.2     1  UNL1       -0.0003
      5 C         -25.1370   -5.2800   29.2050 C.2     1  UNL1       -0.0000
      6 C         -26.2320   -4.6110   29.7840 C.2     1  UNL1       -0.0003
      7 C         -26.1550   -3.2320   30.0650 C.2     1  UNL1       -0.0039
      8 C         -25.3870   -0.6790   31.5710 C.3     1  UNL1        0.0811
      9 C         -25.1890    0.7730   32.0280 C.3     1  UNL1        0.0195
     10 C         -25.3360    0.6840   33.5440 C.3     1  UNL1        0.0203
     11 C         -24.8290   -0.7150   33.9050 C.3     1  UNL1        0.0887
     12 N         -24.7580   -1.4810   32.6460 N.3     1  UNL1       -0.2188
     13 C         -25.6880    1.6140   26.4610 C.2     1  UNL1        0.0164
     14 C         -26.2500    2.9200   26.3950 C.2     1  UNL1        0.0726
     15 C         -25.6420    4.0930   27.1230 C.2     1  UNL1        0.2661
     16 N         -25.6140    5.2520   26.4490 N.am    1  UNL1       -0.1997
     17 C         -25.0260    6.4790   26.9630 C.3     1  UNL1        0.1388
     18 O         -25.1430    3.9660   28.2430 O.2     1  UNL1       -0.2683
     19 C         -27.4380    3.0910   25.6450 C.2     1  UNL1        0.1064
     20 N         -28.0750    2.0890   25.0030 N.2     1  UNL1       -0.2081
     21 C         -27.5430    0.8490   25.0790 C.2     1  UNL1        0.2530
     22 O         -28.1930   -0.2080   24.4770 O.2     1  UNL1       -0.4558
     23 C         -29.4600    0.0050   23.8660 C.3     1  UNL1        0.2426
     24 C         -30.0650   -1.3770   23.5730 C.3     1  UNL1        0.2292
     25 O         -30.7290   -1.8780   24.7210 O.3     1  UNL1       -0.2162
     26 C         -26.3540    0.5760   25.7770 C.2     1  UNL1        0.1891
     27 F         -25.8600   -0.6810   25.7950 F       1  UNL1       -0.1996
     28 C         -25.4227    0.5602   28.3066 C.3     1  UNL1        0.0876
     29 C         -24.4681   -0.0307   29.1367 C.2     1  UNL1        0.0051
     30 O         -27.3789    1.1743   29.3028 O.2     1  UNL1       -0.2956
     31 C         -28.0786   -0.7094   27.9124 C.3     1  UNL1        0.1095
     32 C         -24.7201    1.1887   27.1582 C.3     1  UNL1        0.0399
     33 O         -29.3421   -2.5915   30.2243 O.co2   1  UNL1       -0.2428
     34 O         -29.1854   -0.4870   31.1295 O.co2   1  UNL1       -0.2428
     35 O         -21.4971    1.4670   27.3479 O.2     1  UNL1       -0.4655
     36 C         -29.4155   -0.6882   28.7422 C.3     1  UNL1        0.2613
     37 C         -22.3873    1.7239   26.2962 C.3     1  UNL1        0.2067
     38 C         -29.3016   -1.3449   30.1632 C.2     1  UNL1        0.3951
     39 C         -27.0610    0.2680   28.6363 C.2     1  UNL1        0.1580
     40 C         -23.7216    1.2215   26.3402 C.3     1  UNL1        0.0525
     41 O         -30.5312   -1.2682   28.0523 O.3     1  UNL1       -0.2104
     42 C         -21.9506    0.7727   28.4396 C.2     1  UNL1        0.2149
     43 C         -23.0878    0.2449   28.9174 C.1     1  UNL1       -0.0696
@<TRIPOS>BOND
     1     1    29    1
     2     2     7    1
     3     2     1    1
     4     3     2    2
     5     4     3    1
     6     4     5    2
     7     5     6    1
     8     6     7    2
     9     8     1    1
    10     8     9    1
    11     8    12    1
    12     9    10    1
    13    10    11    1
    14    12    11    1
    15    14    13    1
    16    14    15    1
    17    15    18    2
    18    16    17    1
    19    16    15    1
    20    19    14    2
    21    20    21    2
    22    20    19    1
    23    21    26    1
    24    22    21    1
    25    23    22    1
    26    24    23    1
    27    24    25    1
    28    26    27    1
    29    26    13    2
    30    28    39    1
    31    28    29    1
    32    31    39    1
    33    31    36    1
    34    32    13    1
    35    32    28    1
    36    35    42    1
    37    36    41    1
    38    36    38    1
    39    37    40    1
    40    37    35    1
    41    38    33   ar
    42    38    34   ar
    43    39    30    2
    44    40    32    1
    45    42    43    2
    46    43    29    2
