@<TRIPOS>MOLECULE
outputs/IAG933/test6/raw/output_849_IAG933_linker_design_.xyz
 45 48 0 0 0
SMALL
GASTEIGER

@<TRIPOS>ATOM
      1 C         -24.8550   -1.0120   30.1430 C.3     1  UNL1        0.1272
      2 C         -24.9730   -2.5050   29.7880 C.2     1  UNL1       -0.0003
      3 C         -23.9060   -3.1730   29.1460 C.2     1  UNL1       -0.0024
      4 C         -23.9890   -4.5490   28.8530 C.2     1  UNL1       -0.0003
      5 C         -25.1370   -5.2800   29.2050 C.2     1  UNL1       -0.0000
      6 C         -26.2320   -4.6110   29.7840 C.2     1  UNL1       -0.0003
      7 C         -26.1550   -3.2320   30.0650 C.2     1  UNL1       -0.0024
      8 C         -25.3870   -0.6790   31.5710 C.3     1  UNL1        0.0978
      9 C         -25.1890    0.7730   32.0280 C.3     1  UNL1        0.0211
     10 C         -25.3360    0.6840   33.5440 C.3     1  UNL1        0.0203
     11 C         -24.8290   -0.7150   33.9050 C.3     1  UNL1        0.0888
     12 N         -24.7580   -1.4810   32.6460 N.3     1  UNL1       -0.2172
     13 C         -25.6880    1.6140   26.4610 C.3     1  UNL1        0.0973
     14 C         -26.2500    2.9200   26.3950 C.2     1  UNL1        0.0591
     15 C         -25.6420    4.0930   27.1230 C.2     1  UNL1        0.2628
     16 N         -25.6140    5.2520   26.4490 N.am    1  UNL1       -0.2000
     17 C         -25.0260    6.4790   26.9630 C.3     1  UNL1        0.1388
     18 O         -25.1430    3.9660   28.2430 O.2     1  UNL1       -0.2686
     19 C         -27.4380    3.0910   25.6450 C.2     1  UNL1        0.1025
     20 N         -28.0750    2.0890   25.0030 N.2     1  UNL1       -0.2118
     21 C         -27.5430    0.8490   25.0790 C.2     1  UNL1        0.2344
     22 O         -28.1930   -0.2080   24.4770 O.2     1  UNL1       -0.4585
     23 C         -29.4600    0.0050   23.8660 C.3     1  UNL1        0.2423
     24 C         -30.0650   -1.3770   23.5730 C.3     1  UNL1        0.2292
     25 O         -30.7290   -1.8780   24.7210 O.3     1  UNL1       -0.2162
     26 C         -26.3540    0.5760   25.7770 C.3     1  UNL1        0.2442
     27 F         -25.8600   -0.6810   25.7950 F       1  UNL1       -0.2265
     28 C         -22.5708    0.8617   27.8899 C.ar    1  UNL1        0.2292
     29 N         -24.4723   -0.1715   29.2588 N.ar    1  UNL1       -0.2854
     30 O         -22.3265   -0.0810   30.1155 O.2     1  UNL1       -0.2644
     31 C         -32.2481    2.6669   31.7841 C.3     1  UNL1        0.0000
     32 F         -21.2818    1.0620   27.7425 F       1  UNL1       -0.1959
     33 C         -24.9448    1.1136   27.2749 C.ar    1  UNL1        0.0431
     34 C         -23.5424    1.3257   26.9856 C.ar    1  UNL1        0.1690
     35 S         -27.1641    0.2572   28.7865 S.3     1  UNL1       -0.0968
     36 C         -21.8703    2.1477   25.1698 C.3     1  UNL1        0.2526
     37 C         -29.5951    3.5745   30.0433 C.3     1  UNL1        0.0009
     38 C         -30.8031    2.6839   29.7794 C.3     1  UNL1        0.0000
     39 C         -33.2020    3.3310   29.4390 C.3     1  UNL1        0.0000
     40 C         -28.1766    1.5371   29.8311 C.3     1  UNL1        0.0636
     41 C         -28.4213    3.0675   29.7444 C.3     1  UNL1        0.0120
     42 C         -32.0319    3.3643   30.4245 C.3     1  UNL1        0.0000
     43 C         -23.1151    0.1237   29.1407 C.ar    1  UNL1        0.2921
     44 O         -23.1261    1.8449   25.7312 O.3     1  UNL1       -0.4692
     45 C         -25.3765    0.4264   28.4193 C.ar    1  UNL1        0.0882
@<TRIPOS>BOND
     1     1     2    1
     2     2     7    1
     3     3     2    2
     4     4     3    1
     5     4     5    2
     6     5     6    1
     7     6     7    2
     8     8     1    1
     9     8     9    1
    10     8    12    1
    11     9    10    1
    12    10    11    1
    13    12    11    1
    14    13    33    1
    15    14    13    1
    16    14    15    1
    17    15    18    2
    18    16    17    1
    19    16    15    1
    20    19    14    2
    21    20    21    2
    22    20    19    1
    23    21    26    1
    24    22    21    1
    25    23    22    1
    26    24    23    1
    27    24    25    1
    28    26    27    1
    29    26    13    1
    30    28    43   ar
    31    29     1    1
    32    32    28    1
    33    33    45   ar
    34    34    33   ar
    35    34    28   ar
    36    35    40    1
    37    36    44    1
    38    38    37    1
    39    38    42    1
    40    39    42    1
    41    41    40    1
    42    41    37    1
    43    42    31    1
    44    43    29   ar
    45    43    30    2
    46    44    34    1
    47    45    35    1
    48    45    29   ar
