@<TRIPOS>MOLECULE
outputs/IAG933/test6/raw/output_8490_IAG933_linker_design_.xyz
 38 41 0 0 0
SMALL
GASTEIGER

@<TRIPOS>ATOM
      1 C         -24.8550   -1.0120   30.1430 C.3     1  UNL1        0.1147
      2 C         -24.9730   -2.5050   29.7880 C.2     1  UNL1       -0.0029
      3 C         -23.9060   -3.1730   29.1460 C.2     1  UNL1       -0.0026
      4 C         -23.9890   -4.5490   28.8530 C.2     1  UNL1       -0.0003
      5 C         -25.1370   -5.2800   29.2050 C.2     1  UNL1       -0.0000
      6 C         -26.2320   -4.6110   29.7840 C.2     1  UNL1       -0.0003
      7 C         -26.1550   -3.2320   30.0650 C.2     1  UNL1       -0.0026
      8 C         -25.3870   -0.6790   31.5710 C.3     1  UNL1        0.0951
      9 C         -25.1890    0.7730   32.0280 C.3     1  UNL1        0.0209
     10 C         -25.3360    0.6840   33.5440 C.3     1  UNL1        0.0203
     11 C         -24.8290   -0.7150   33.9050 C.3     1  UNL1        0.0888
     12 N         -24.7580   -1.4810   32.6460 N.3     1  UNL1       -0.2174
     13 C         -25.6880    1.6140   26.4610 C.3     1  UNL1        0.0756
     14 C         -26.2500    2.9200   26.3950 C.2     1  UNL1        0.0550
     15 C         -25.6420    4.0930   27.1230 C.2     1  UNL1        0.2624
     16 N         -25.6140    5.2520   26.4490 N.am    1  UNL1       -0.2000
     17 C         -25.0260    6.4790   26.9630 C.3     1  UNL1        0.1388
     18 O         -25.1430    3.9660   28.2430 O.2     1  UNL1       -0.2687
     19 C         -27.4380    3.0910   25.6450 C.2     1  UNL1        0.1021
     20 N         -28.0750    2.0890   25.0030 N.2     1  UNL1       -0.2119
     21 C         -27.5430    0.8490   25.0790 C.2     1  UNL1        0.2341
     22 O         -28.1930   -0.2080   24.4770 O.2     1  UNL1       -0.4585
     23 C         -29.4600    0.0050   23.8660 C.3     1  UNL1        0.2423
     24 C         -30.0650   -1.3770   23.5730 C.3     1  UNL1        0.2292
     25 O         -30.7290   -1.8780   24.7210 O.3     1  UNL1       -0.2162
     26 C         -26.3540    0.5760   25.7770 C.3     1  UNL1        0.2402
     27 F         -25.8600   -0.6810   25.7950 F       1  UNL1       -0.2269
     28 F         -22.8589    2.3388   26.1854 F       1  UNL1       -0.2337
     29 C         -22.9343    0.3173   29.2414 C.2     1  UNL1        0.2621
     30 O         -22.1769   -0.0161   30.1168 O.2     1  UNL1       -0.2718
     31 N         -24.3581    0.0196   29.3020 N.am    1  UNL1       -0.2626
     32 F         -21.1721    1.1089   27.6001 F       1  UNL1       -0.2244
     33 N         -27.6715   -0.1834   28.6517 N.1     1  UNL1       -0.1942
     34 C         -22.4200    1.1415   28.1237 C.3     1  UNL1        0.2686
     35 C         -24.6554    1.1696   27.5612 C.3     1  UNL1        0.0762
     36 C         -23.3899    1.6950   27.1665 C.3     1  UNL1        0.2053
     37 C         -25.3316    0.7391   28.6552 C.3     1  UNL1        0.1705
     38 C         -26.6276    0.2571   28.6701 C.1     1  UNL1        0.0927
@<TRIPOS>BOND
     1     1     2    1
     2     2     7    1
     3     3     2    2
     4     4     3    1
     5     4     5    2
     6     5     6    1
     7     6     7    2
     8     8     1    1
     9     8     9    1
    10     8    12    1
    11     9    10    1
    12    10    11    1
    13    12    11    1
    14    13    14    1
    15    14    15    1
    16    15    18    2
    17    16    17    1
    18    16    15    1
    19    19    14    2
    20    20    21    2
    21    20    19    1
    22    21    26    1
    23    22    21    1
    24    23    22    1
    25    24    23    1
    26    24    25    1
    27    26    27    1
    28    26    13    1
    29    29    31   am
    30    29    30    2
    31    31     1    1
    32    33    38    3
    33    34    32    1
    34    34    29    1
    35    35    13    1
    36    35    37    1
    37    36    28    1
    38    36    35    1
    39    36    34    1
    40    37    38    1
    41    37    31    1
