@<TRIPOS>MOLECULE
outputs/IAG933/test6/raw/output_8494_IAG933_linker_design_.xyz
 40 43 0 0 0
SMALL
GASTEIGER

@<TRIPOS>ATOM
      1 C         -24.8550   -1.0120   30.1430 C.3     1  UNL1        0.1137
      2 C         -24.9730   -2.5050   29.7880 C.2     1  UNL1       -0.0029
      3 C         -23.9060   -3.1730   29.1460 C.2     1  UNL1       -0.0026
      4 C         -23.9890   -4.5490   28.8530 C.2     1  UNL1       -0.0003
      5 C         -25.1370   -5.2800   29.2050 C.2     1  UNL1       -0.0000
      6 C         -26.2320   -4.6110   29.7840 C.2     1  UNL1       -0.0003
      7 C         -26.1550   -3.2320   30.0650 C.2     1  UNL1       -0.0026
      8 C         -25.3870   -0.6790   31.5710 C.3     1  UNL1        0.0951
      9 C         -25.1890    0.7730   32.0280 C.3     1  UNL1        0.0209
     10 C         -25.3360    0.6840   33.5440 C.3     1  UNL1        0.0203
     11 C         -24.8290   -0.7150   33.9050 C.3     1  UNL1        0.0888
     12 N         -24.7580   -1.4810   32.6460 N.3     1  UNL1       -0.2174
     13 C         -25.6880    1.6140   26.4610 C.2     1  UNL1        0.0181
     14 C         -26.2500    2.9200   26.3950 C.2     1  UNL1        0.0726
     15 C         -25.6420    4.0930   27.1230 C.2     1  UNL1        0.2661
     16 N         -25.6140    5.2520   26.4490 N.am    1  UNL1       -0.1997
     17 C         -25.0260    6.4790   26.9630 C.3     1  UNL1        0.1388
     18 O         -25.1430    3.9660   28.2430 O.2     1  UNL1       -0.2683
     19 C         -27.4380    3.0910   25.6450 C.2     1  UNL1        0.1064
     20 N         -28.0750    2.0890   25.0030 N.2     1  UNL1       -0.2081
     21 C         -27.5430    0.8490   25.0790 C.2     1  UNL1        0.2530
     22 O         -28.1930   -0.2080   24.4770 O.2     1  UNL1       -0.4558
     23 C         -29.4600    0.0050   23.8660 C.3     1  UNL1        0.2426
     24 C         -30.0650   -1.3770   23.5730 C.3     1  UNL1        0.2292
     25 O         -30.7290   -1.8780   24.7210 O.3     1  UNL1       -0.2162
     26 C         -26.3540    0.5760   25.7770 C.2     1  UNL1        0.1892
     27 F         -25.8600   -0.6810   25.7950 F       1  UNL1       -0.1996
     28 N         -24.2989    0.0410   29.3333 N.am    1  UNL1       -0.2768
     29 C         -26.6099    1.1050   29.2563 C.3     1  UNL1        0.0522
     30 C         -24.5329    1.2132   27.4208 C.3     1  UNL1        0.0606
     31 C         -23.0510    1.0649   27.9032 C.3     1  UNL1        0.1617
     32 C         -22.9226    0.2482   29.1320 C.2     1  UNL1        0.2346
     33 C         -27.8962    4.4515   30.9424 C.3     1  UNL1        0.1741
     34 O         -26.8422    3.5311   30.5022 O.3     1  UNL1       -0.3510
     35 O         -22.0614    0.1100   29.8703 O.2     1  UNL1       -0.2743
     36 O         -22.2820    2.4060   26.1062 O.2     1  UNL1       -0.2711
     37 N         -20.8010    1.8921   27.8093 N.am    1  UNL1       -0.0874
     38 C         -25.0752    1.2041   29.0271 C.3     1  UNL1        0.0831
     39 C         -27.2753    2.4681   29.6341 C.3     1  UNL1        0.1440
     40 C         -22.0490    1.8331   27.1985 C.2     1  UNL1        0.2694
@<TRIPOS>BOND
     1     1     2    1
     2     2     7    1
     3     3     2    2
     4     4     3    1
     5     4     5    2
     6     5     6    1
     7     6     7    2
     8     8     1    1
     9     8     9    1
    10     8    12    1
    11     9    10    1
    12    10    11    1
    13    12    11    1
    14    14    13    1
    15    14    15    1
    16    15    18    2
    17    16    17    1
    18    16    15    1
    19    19    14    2
    20    20    21    2
    21    20    19    1
    22    21    26    1
    23    22    21    1
    24    23    22    1
    25    24    23    1
    26    24    25    1
    27    26    27    1
    28    26    13    2
    29    28     1    1
    30    29    39    1
    31    30    13    1
    32    30    31    1
    33    30    38    1
    34    31    40    1
    35    31    32    1
    36    32    28   am
    37    32    35    2
    38    34    33    1
    39    36    40    2
    40    38    29    1
    41    38    28    1
    42    39    34    1
    43    40    37    1
