@<TRIPOS>MOLECULE
outputs/IAG933/test6/raw/output_8508_IAG933_linker_design_.xyz
 39 43 0 0 0
SMALL
GASTEIGER

@<TRIPOS>ATOM
      1 C         -24.8550   -1.0120   30.1430 C.3     1  UNL1        0.1255
      2 C         -24.9730   -2.5050   29.7880 C.2     1  UNL1       -0.0041
      3 C         -23.9060   -3.1730   29.1460 C.2     1  UNL1       -0.0029
      4 C         -23.9890   -4.5490   28.8530 C.2     1  UNL1       -0.0003
      5 C         -25.1370   -5.2800   29.2050 C.2     1  UNL1       -0.0000
      6 C         -26.2320   -4.6110   29.7840 C.2     1  UNL1       -0.0003
      7 C         -26.1550   -3.2320   30.0650 C.2     1  UNL1       -0.0029
      8 C         -25.3870   -0.6790   31.5710 C.3     1  UNL1        0.0939
      9 C         -25.1890    0.7730   32.0280 C.3     1  UNL1        0.0207
     10 C         -25.3360    0.6840   33.5440 C.3     1  UNL1        0.0203
     11 C         -24.8290   -0.7150   33.9050 C.3     1  UNL1        0.0888
     12 N         -24.7580   -1.4810   32.6460 N.3     1  UNL1       -0.2177
     13 C         -25.6880    1.6140   26.4610 C.3     1  UNL1        0.0920
     14 C         -26.2500    2.9200   26.3950 C.2     1  UNL1        0.0589
     15 C         -25.6420    4.0930   27.1230 C.2     1  UNL1        0.2628
     16 N         -25.6140    5.2520   26.4490 N.am    1  UNL1       -0.2000
     17 C         -25.0260    6.4790   26.9630 C.3     1  UNL1        0.1388
     18 O         -25.1430    3.9660   28.2430 O.2     1  UNL1       -0.2686
     19 C         -27.4380    3.0910   25.6450 C.2     1  UNL1        0.1025
     20 N         -28.0750    2.0890   25.0030 N.2     1  UNL1       -0.2118
     21 C         -27.5430    0.8490   25.0790 C.2     1  UNL1        0.2344
     22 O         -28.1930   -0.2080   24.4770 O.2     1  UNL1       -0.4585
     23 C         -29.4600    0.0050   23.8660 C.3     1  UNL1        0.2423
     24 C         -30.0650   -1.3770   23.5730 C.3     1  UNL1        0.2292
     25 O         -30.7290   -1.8780   24.7210 O.3     1  UNL1       -0.2162
     26 C         -26.3540    0.5760   25.7770 C.3     1  UNL1        0.2440
     27 F         -25.8600   -0.6810   25.7950 F       1  UNL1       -0.2265
     28 C         -21.9968    2.0441   25.4581 C.3     1  UNL1        0.2310
     29 O         -22.1497   -0.1543   30.7838 O.3     1  UNL1       -0.2208
     30 C         -22.0192   -0.4720   29.3876 C.3     1  UNL1        0.1806
     31 C         -24.0732    1.4334   26.6376 C.2     1  UNL1       -0.0157
     32 C         -21.7428    0.8072   27.4622 C.2     1  UNL1        0.1162
     33 N         -24.3351    0.0413   29.4612 N.3     1  UNL1       -0.1236
     34 C         -23.4224    2.0476   25.5446 C.2     1  UNL1        0.0166
     35 C         -23.3376   -0.2807   28.7174 C.3     1  UNL1        0.1425
     36 O         -25.3690    0.6292   28.9260 O.3     1  UNL1       -0.1173
     37 C         -20.8551    0.0612   28.4201 C.3     1  UNL1        0.0983
     38 C         -23.0786    0.7286   27.6378 C.2     1  UNL1        0.0232
     39 O         -21.1983    1.5765   26.4731 O.2     1  UNL1       -0.4751
@<TRIPOS>BOND
     1     1    33    1
     2     2     7    1
     3     2     1    1
     4     3     2    2
     5     4     3    1
     6     4     5    2
     7     5     6    1
     8     6     7    2
     9     8     1    1
    10     8     9    1
    11     8    12    1
    12     9    10    1
    13    10    11    1
    14    12    11    1
    15    13    31    1
    16    14    13    1
    17    14    15    1
    18    15    18    2
    19    16    17    1
    20    16    15    1
    21    19    14    2
    22    20    21    2
    23    20    19    1
    24    21    26    1
    25    22    21    1
    26    23    22    1
    27    24    23    1
    28    24    25    1
    29    26    27    1
    30    26    13    1
    31    28    34    1
    32    28    39    1
    33    30    29    1
    34    31    38    1
    35    32    38    2
    36    32    37    1
    37    34    31    2
    38    35    30    1
    39    35    33    1
    40    36    33    1
    41    37    30    1
    42    38    35    1
    43    39    32    1
