@<TRIPOS>MOLECULE
outputs/IAG933/test6/raw/output_8509_IAG933_linker_design_.xyz
 46 50 0 0 0
SMALL
GASTEIGER

@<TRIPOS>ATOM
      1 C         -24.8550   -1.0120   30.1430 C.3     1  UNL1        0.1181
      2 C         -24.9730   -2.5050   29.7880 C.2     1  UNL1       -0.0026
      3 C         -23.9060   -3.1730   29.1460 C.2     1  UNL1       -0.0026
      4 C         -23.9890   -4.5490   28.8530 C.2     1  UNL1       -0.0003
      5 C         -25.1370   -5.2800   29.2050 C.2     1  UNL1       -0.0000
      6 C         -26.2320   -4.6110   29.7840 C.2     1  UNL1       -0.0003
      7 C         -26.1550   -3.2320   30.0650 C.2     1  UNL1       -0.0026
      8 C         -25.3870   -0.6790   31.5710 C.3     1  UNL1        0.0955
      9 C         -25.1890    0.7730   32.0280 C.3     1  UNL1        0.0209
     10 C         -25.3360    0.6840   33.5440 C.3     1  UNL1        0.0203
     11 C         -24.8290   -0.7150   33.9050 C.3     1  UNL1        0.0888
     12 N         -24.7580   -1.4810   32.6460 N.3     1  UNL1       -0.2174
     13 C         -25.6880    1.6140   26.4610 C.3     1  UNL1        0.0936
     14 C         -26.2500    2.9200   26.3950 C.2     1  UNL1        0.0589
     15 C         -25.6420    4.0930   27.1230 C.2     1  UNL1        0.2628
     16 N         -25.6140    5.2520   26.4490 N.am    1  UNL1       -0.2000
     17 C         -25.0260    6.4790   26.9630 C.3     1  UNL1        0.1388
     18 O         -25.1430    3.9660   28.2430 O.2     1  UNL1       -0.2686
     19 C         -27.4380    3.0910   25.6450 C.2     1  UNL1        0.1025
     20 N         -28.0750    2.0890   25.0030 N.2     1  UNL1       -0.2118
     21 C         -27.5430    0.8490   25.0790 C.2     1  UNL1        0.2344
     22 O         -28.1930   -0.2080   24.4770 O.2     1  UNL1       -0.4585
     23 C         -29.4600    0.0050   23.8660 C.3     1  UNL1        0.2423
     24 C         -30.0650   -1.3770   23.5730 C.3     1  UNL1        0.2292
     25 O         -30.7290   -1.8780   24.7210 O.3     1  UNL1       -0.2162
     26 C         -26.3540    0.5760   25.7770 C.3     1  UNL1        0.2440
     27 F         -25.8600   -0.6810   25.7950 F       1  UNL1       -0.2265
     28 C         -23.3063    1.9343   25.9537 C.2     1  UNL1       -0.0025
     29 C         -27.9585   -0.8552   29.5710 C.3     1  UNL1        0.1151
     30 C         -31.9760    0.7085   29.9854 C.2     1  UNL1        0.0100
     31 C         -24.1024    0.7875   28.1040 C.2     1  UNL1        0.0780
     32 C         -24.3146    1.4432   26.8392 C.2     1  UNL1        0.0009
     33 C         -21.9685    1.8986   26.3609 C.2     1  UNL1        0.0021
     34 BR        -32.2959    0.0930   32.6536 Br      1  UNL1       -0.0490
     35 C         -26.8964    0.2248   29.0778 C.2     1  UNL1        0.2342
     36 O         -27.2708    1.3265   28.8519 O.2     1  UNL1       -0.2742
     37 C         -22.6049    0.7828   28.4602 C.2     1  UNL1        0.1534
     38 O         -29.6650   -0.2656   27.3644 O.2     1  UNL1       -0.2869
     39 C         -21.6203    1.2891   27.5964 C.2     1  UNL1        0.0309
     40 C         -31.3556    0.1883   31.1116 C.2     1  UNL1        0.0345
     41 F         -22.2555    0.2266   29.7032 F       1  UNL1       -0.2029
     42 C         -30.0323   -0.3691   30.9932 C.2     1  UNL1        0.0061
     43 N         -25.1873    0.0683   28.9913 N.am    1  UNL1       -0.2529
     44 C         -30.1288   -0.0610   28.5726 C.2     1  UNL1        0.1922
     45 C         -31.4120    0.5522   28.7184 C.2     1  UNL1        0.0422
     46 C         -29.3975   -0.4379   29.7393 C.2     1  UNL1        0.0264
@<TRIPOS>BOND
     1     1    43    1
     2     2     7    1
     3     2     1    1
     4     3     2    2
     5     4     3    1
     6     4     5    2
     7     5     6    1
     8     6     7    2
     9     8     1    1
    10     8     9    1
    11     8    12    1
    12     9    10    1
    13    10    11    1
    14    12    11    1
    15    13    32    1
    16    14    13    1
    17    14    15    1
    18    15    18    2
    19    16    17    1
    20    16    15    1
    21    19    14    2
    22    20    21    2
    23    20    19    1
    24    21    26    1
    25    22    21    1
    26    23    22    1
    27    24    23    1
    28    24    25    1
    29    26    27    1
    30    26    13    1
    31    28    33    2
    32    28    32    1
    33    29    46    1
    34    30    40    1
    35    31    37    1
    36    31    43    1
    37    32    31    2
    38    33    39    1
    39    35    29    1
    40    36    35    2
    41    37    41    1
    42    38    44    1
    43    39    37    2
    44    40    34    1
    45    42    40    2
    46    43    35   am
    47    44    45    1
    48    44    46    2
    49    45    30    2
    50    46    42    1
