@<TRIPOS>MOLECULE
outputs/IAG933/test6/raw/output_8515_IAG933_linker_design_.xyz
 48 52 0 0 0
SMALL
GASTEIGER

@<TRIPOS>ATOM
      1 C         -24.8550   -1.0120   30.1430 C.3     1  UNL1        0.1109
      2 C         -24.9730   -2.5050   29.7880 C.2     1  UNL1       -0.0051
      3 C         -23.9060   -3.1730   29.1460 C.2     1  UNL1       -0.0029
      4 C         -23.9890   -4.5490   28.8530 C.2     1  UNL1       -0.0003
      5 C         -25.1370   -5.2800   29.2050 C.2     1  UNL1       -0.0000
      6 C         -26.2320   -4.6110   29.7840 C.2     1  UNL1       -0.0003
      7 C         -26.1550   -3.2320   30.0650 C.2     1  UNL1       -0.0029
      8 C         -25.3870   -0.6790   31.5710 C.3     1  UNL1        0.0929
      9 C         -25.1890    0.7730   32.0280 C.3     1  UNL1        0.0206
     10 C         -25.3360    0.6840   33.5440 C.3     1  UNL1        0.0203
     11 C         -24.8290   -0.7150   33.9050 C.3     1  UNL1        0.0888
     12 N         -24.7580   -1.4810   32.6460 N.3     1  UNL1       -0.2177
     13 C         -25.6880    1.6140   26.4610 C.2     1  UNL1        0.0406
     14 C         -26.2500    2.9200   26.3950 C.2     1  UNL1        0.0766
     15 C         -25.6420    4.0930   27.1230 C.2     1  UNL1        0.2664
     16 N         -25.6140    5.2520   26.4490 N.am    1  UNL1       -0.2000
     17 C         -25.0260    6.4790   26.9630 C.3     1  UNL1        0.1353
     18 O         -25.1430    3.9660   28.2430 O.2     1  UNL1       -0.2683
     19 C         -27.4380    3.0910   25.6450 C.2     1  UNL1        0.1067
     20 N         -28.0750    2.0890   25.0030 N.2     1  UNL1       -0.2081
     21 C         -27.5430    0.8490   25.0790 C.2     1  UNL1        0.2533
     22 O         -28.1930   -0.2080   24.4770 O.2     1  UNL1       -0.4558
     23 C         -29.4600    0.0050   23.8660 C.3     1  UNL1        0.2426
     24 C         -30.0650   -1.3770   23.5730 C.3     1  UNL1        0.2292
     25 O         -30.7290   -1.8780   24.7210 O.3     1  UNL1       -0.2162
     26 C         -26.3540    0.5760   25.7770 C.2     1  UNL1        0.1931
     27 F         -25.8600   -0.6810   25.7950 F       1  UNL1       -0.1992
     28 C         -24.6242    7.3888   32.0456 C.2     1  UNL1       -0.0153
     29 C         -24.9404    7.9721   27.5642 C.3     1  UNL1        0.1274
     30 C         -26.1452    8.6065   29.6710 C.3     1  UNL1        0.1022
     31 N         -26.2281    8.2585   28.2763 N.3     1  UNL1       -0.1314
     32 C         -22.9028    1.3478   28.9042 C.3     1  UNL1        0.0905
     33 S         -24.6513   10.1862   31.3041 S.3     1  UNL1       -0.1339
     34 C         -23.4692    6.6927   32.3921 C.2     1  UNL1       -0.0040
     35 N         -24.8757   -0.0676   28.9578 N.3     1  UNL1       -0.2122
     36 C         -23.3497   -0.0784   28.8370 C.3     1  UNL1        0.1064
     37 C         -21.7307    1.9508   26.7577 C.3     1  UNL1        0.0015
     38 C         -24.0512    3.3307   30.8866 C.3     1  UNL1        0.1150
     39 C         -25.5319   10.0547   29.7761 C.3     1  UNL1        0.0766
     40 C         -25.5125    5.3937   31.0554 C.2     1  UNL1       -0.0074
     41 C         -21.7163    1.8711   28.2673 C.3     1  UNL1        0.0189
     42 C         -23.3416    5.3339   32.0784 C.2     1  UNL1       -0.0032
     43 C         -26.7551    7.7123   30.8048 C.3     1  UNL1        0.0454
     44 C         -25.6630    6.7773   31.3632 C.2     1  UNL1       -0.0241
     45 N         -23.8967    2.3093   29.7430 N.3     1  UNL1       -0.2132
     46 C         -24.7328    8.8454   32.4030 C.3     1  UNL1        0.0835
     47 O         -26.7993    9.3152   27.5928 O.3     1  UNL1       -0.1179
     48 C         -24.3228    4.7105   31.3185 C.2     1  UNL1       -0.0051
@<TRIPOS>BOND
     1     1    35    1
     2     2     7    1
     3     2     1    1
     4     3     2    2
     5     4     3    1
     6     4     5    2
     7     5     6    1
     8     6     7    2
     9     8     1    1
    10     8     9    1
    11     8    12    1
    12     9    10    1
    13    10    11    1
    14    12    11    1
    15    14    13    1
    16    14    15    1
    17    15    18    2
    18    16    17    1
    19    16    15    1
    20    17    29    1
    21    19    14    2
    22    20    21    2
    23    20    19    1
    24    21    26    1
    25    22    21    1
    26    23    22    1
    27    24    23    1
    28    24    25    1
    29    26    27    1
    30    26    13    2
    31    28    34    1
    32    28    46    1
    33    29    31    1
    34    30    31    1
    35    30    39    1
    36    30    43    1
    37    32    41    1
    38    32    45    1
    39    33    46    1
    40    36    32    1
    41    36    35    1
    42    37    41    1
    43    38    48    1
    44    39    33    1
    45    40    48    2
    46    40    44    1
    47    42    34    2
    48    43    44    1
    49    44    28    2
    50    45    38    1
    51    47    31    1
    52    48    42    1
