@<TRIPOS>MOLECULE
outputs/IAG933/test6/raw/output_8518_IAG933_linker_design_.xyz
 42 45 0 0 0
SMALL
GASTEIGER

@<TRIPOS>ATOM
      1 C         -24.8550   -1.0120   30.1430 C.3     1  UNL1        0.0437
      2 C         -24.9730   -2.5050   29.7880 C.2     1  UNL1       -0.0208
      3 C         -23.9060   -3.1730   29.1460 C.2     1  UNL1       -0.0042
      4 C         -23.9890   -4.5490   28.8530 C.2     1  UNL1       -0.0003
      5 C         -25.1370   -5.2800   29.2050 C.2     1  UNL1       -0.0000
      6 C         -26.2320   -4.6110   29.7840 C.2     1  UNL1       -0.0003
      7 C         -26.1550   -3.2320   30.0650 C.2     1  UNL1       -0.0042
      8 C         -25.3870   -0.6790   31.5710 C.3     1  UNL1        0.0780
      9 C         -25.1890    0.7730   32.0280 C.3     1  UNL1        0.0301
     10 C         -25.3360    0.6840   33.5440 C.3     1  UNL1        0.0211
     11 C         -24.8290   -0.7150   33.9050 C.3     1  UNL1        0.0887
     12 N         -24.7580   -1.4810   32.6460 N.3     1  UNL1       -0.2191
     13 C         -25.6880    1.6140   26.4610 C.2     1  UNL1        0.0748
     14 C         -26.2500    2.9200   26.3950 C.2     1  UNL1        0.0796
     15 C         -25.6420    4.0930   27.1230 C.2     1  UNL1        0.2665
     16 N         -25.6140    5.2520   26.4490 N.am    1  UNL1       -0.1997
     17 C         -25.0260    6.4790   26.9630 C.3     1  UNL1        0.1388
     18 O         -25.1430    3.9660   28.2430 O.2     1  UNL1       -0.2683
     19 C         -27.4380    3.0910   25.6450 C.2     1  UNL1        0.1068
     20 N         -28.0750    2.0890   25.0030 N.2     1  UNL1       -0.2081
     21 C         -27.5430    0.8490   25.0790 C.2     1  UNL1        0.2534
     22 O         -28.1930   -0.2080   24.4770 O.2     1  UNL1       -0.4558
     23 C         -29.4600    0.0050   23.8660 C.3     1  UNL1        0.2426
     24 C         -30.0650   -1.3770   23.5730 C.3     1  UNL1        0.2292
     25 O         -30.7290   -1.8780   24.7210 O.3     1  UNL1       -0.2162
     26 C         -26.3540    0.5760   25.7770 C.2     1  UNL1        0.1961
     27 F         -25.8600   -0.6810   25.7950 F       1  UNL1       -0.1991
     28 C         -22.1145    1.1826   28.8781 C.2     1  UNL1        0.0331
     29 N         -27.0381    3.5472   32.0485 N.3     1  UNL1       -0.0561
     30 C         -23.4688    1.3625   29.1293 C.2     1  UNL1        0.1238
     31 C         -23.2528    1.7042   26.0965 C.2     1  UNL1        0.1744
     32 O         -24.4597    1.2883   28.2628 O.2     1  UNL1       -0.4554
     33 C         -25.0785    1.8399   30.9319 C.3     1  UNL1        0.0789
     34 O         -24.8099    3.7817   33.0211 O.3     1  UNL1       -0.3020
     35 C         -23.5975    1.6422   30.5069 C.3     1  UNL1        0.0773
     36 C         -24.4201    1.4830   26.9373 C.2     1  UNL1        0.1745
     37 C         -21.3732    1.1935   27.6512 C.2     1  UNL1        0.0052
     38 C         -24.8398    4.5857   30.6323 C.3     1  UNL1        0.0954
     39 C         -21.9174    1.5188   26.4283 C.2     1  UNL1        0.0329
     40 C         -24.8748    5.1896   33.3667 C.3     1  UNL1        0.1908
     41 F         -23.3929    2.1545   24.8699 F       1  UNL1       -0.2009
     42 S         -25.4568    3.3984   31.6874 S.3     1  UNL1       -0.0250
@<TRIPOS>BOND
     1     2     7    1
     2     2     1    1
     3     3     2    2
     4     4     3    1
     5     4     5    2
     6     5     6    1
     7     6     7    2
     8     8     1    1
     9     8     9    1
    10     8    12    1
    11     9    33    1
    12     9    10    1
    13    10    11    1
    14    12    11    1
    15    13    36    1
    16    14    13    1
    17    14    15    1
    18    15    18    2
    19    16    17    1
    20    16    15    1
    21    19    14    2
    22    20    21    2
    23    20    19    1
    24    21    26    1
    25    22    21    1
    26    23    22    1
    27    24    23    1
    28    24    25    1
    29    26    27    1
    30    26    13    2
    31    28    30    2
    32    30    35    1
    33    31    39    1
    34    31    36    2
    35    32    30    1
    36    33    35    1
    37    33    42    1
    38    34    40    1
    39    36    32    1
    40    37    28    1
    41    39    37    2
    42    41    31    1
    43    42    38    1
    44    42    29    1
    45    42    34    1
