@<TRIPOS>MOLECULE
outputs/IAG933/test6/raw/output_852_IAG933_linker_design_.xyz
 40 44 0 0 0
SMALL
GASTEIGER

@<TRIPOS>ATOM
      1 C         -24.8550   -1.0120   30.1430 C.3     1  UNL1        0.1023
      2 C         -24.9730   -2.5050   29.7880 C.2     1  UNL1       -0.0157
      3 C         -23.9060   -3.1730   29.1460 C.2     1  UNL1       -0.0041
      4 C         -23.9890   -4.5490   28.8530 C.2     1  UNL1       -0.0003
      5 C         -25.1370   -5.2800   29.2050 C.2     1  UNL1       -0.0000
      6 C         -26.2320   -4.6110   29.7840 C.2     1  UNL1       -0.0003
      7 C         -26.1550   -3.2320   30.0650 C.2     1  UNL1       -0.0041
      8 C         -25.3870   -0.6790   31.5710 C.3     1  UNL1        0.0823
      9 C         -25.1890    0.7730   32.0280 C.3     1  UNL1        0.0194
     10 C         -25.3360    0.6840   33.5440 C.3     1  UNL1        0.0202
     11 C         -24.8290   -0.7150   33.9050 C.3     1  UNL1        0.0887
     12 N         -24.7580   -1.4810   32.6460 N.3     1  UNL1       -0.2189
     13 C         -25.6880    1.6140   26.4610 C.2     1  UNL1        0.0485
     14 C         -26.2500    2.9200   26.3950 C.2     1  UNL1        0.0752
     15 C         -25.6420    4.0930   27.1230 C.2     1  UNL1        0.2662
     16 N         -25.6140    5.2520   26.4490 N.am    1  UNL1       -0.1997
     17 C         -25.0260    6.4790   26.9630 C.3     1  UNL1        0.1388
     18 O         -25.1430    3.9660   28.2430 O.2     1  UNL1       -0.2683
     19 C         -27.4380    3.0910   25.6450 C.2     1  UNL1        0.1065
     20 N         -28.0750    2.0890   25.0030 N.2     1  UNL1       -0.2081
     21 C         -27.5430    0.8490   25.0790 C.2     1  UNL1        0.2531
     22 O         -28.1930   -0.2080   24.4770 O.2     1  UNL1       -0.4558
     23 C         -29.4600    0.0050   23.8660 C.3     1  UNL1        0.2426
     24 C         -30.0650   -1.3770   23.5730 C.3     1  UNL1        0.2292
     25 O         -30.7290   -1.8780   24.7210 O.3     1  UNL1       -0.2162
     26 C         -26.3540    0.5760   25.7770 C.2     1  UNL1        0.1917
     27 F         -25.8600   -0.6810   25.7950 F       1  UNL1       -0.1995
     28 C         -24.7449    1.1213   27.1832 C.3     1  UNL1        0.1861
     29 C         -22.8484    1.2067   27.6472 C.ar    1  UNL1        0.1044
     30 C         -21.6852    1.8492   27.0847 C.ar    1  UNL1        0.2219
     31 C         -23.6519    1.5371   26.8563 C.ar    1  UNL1        0.1355
     32 C         -24.2909    0.0580   29.2237 C.3     1  UNL1        0.2877
     33 C         -22.7944    0.5291   28.7462 C.2     1  UNL1        0.2340
     34 C         -19.2975    1.6990   28.2064 C.1     1  UNL1       -0.0060
     35 C         -20.3883    1.7982   27.6848 C.1     1  UNL1       -0.0112
     36 F         -25.0858    1.1555   29.5228 F       1  UNL1       -0.2008
     37 N         -23.2603    2.1828   25.7770 N.ar    1  UNL1       -0.0777
     38 O         -24.9183   -0.0235   28.0555 O.3     1  UNL1       -0.3165
     39 O         -21.7794    0.4056   29.4143 O.2     1  UNL1       -0.2857
     40 O         -21.7571    2.4457   25.8914 O.2     1  UNL1       -0.3451
@<TRIPOS>BOND
     1     1     2    1
     2     2     7    1
     3     3     2    2
     4     4     3    1
     5     4     5    2
     6     5     6    1
     7     6     7    2
     8     8     1    1
     9     8     9    1
    10     8    12    1
    11     9    10    1
    12    10    11    1
    13    12    11    1
    14    14    13    1
    15    14    15    1
    16    15    18    2
    17    16    17    1
    18    16    15    1
    19    19    14    2
    20    20    21    2
    21    20    19    1
    22    21    26    1
    23    22    21    1
    24    23    22    1
    25    24    23    1
    26    24    25    1
    27    26    27    1
    28    26    13    2
    29    28    13    1
    30    28    38    1
    31    29    33    1
    32    30    29   ar
    33    30    35    1
    34    31    28    1
    35    31    29   ar
    36    32    36    1
    37    32     1    1
    38    33    32    1
    39    33    39    2
    40    35    34    3
    41    37    40   ar
    42    37    31   ar
    43    38    32    1
    44    40    30   ar
