@<TRIPOS>MOLECULE
outputs/IAG933/test6/raw/output_8521_IAG933_linker_design_.xyz
 43 47 0 0 0
SMALL
GASTEIGER

@<TRIPOS>ATOM
      1 C         -24.8550   -1.0120   30.1430 C.3     1  UNL1        0.0437
      2 C         -24.9730   -2.5050   29.7880 C.2     1  UNL1       -0.0208
      3 C         -23.9060   -3.1730   29.1460 C.2     1  UNL1       -0.0042
      4 C         -23.9890   -4.5490   28.8530 C.2     1  UNL1       -0.0003
      5 C         -25.1370   -5.2800   29.2050 C.2     1  UNL1       -0.0000
      6 C         -26.2320   -4.6110   29.7840 C.2     1  UNL1       -0.0003
      7 C         -26.1550   -3.2320   30.0650 C.2     1  UNL1       -0.0042
      8 C         -25.3870   -0.6790   31.5710 C.3     1  UNL1        0.0771
      9 C         -25.1890    0.7730   32.0280 C.3     1  UNL1        0.0179
     10 C         -25.3360    0.6840   33.5440 C.3     1  UNL1        0.0202
     11 C         -24.8290   -0.7150   33.9050 C.3     1  UNL1        0.0887
     12 N         -24.7580   -1.4810   32.6460 N.3     1  UNL1       -0.2191
     13 C         -25.6880    1.6140   26.4610 C.3     1  UNL1        0.0924
     14 C         -26.2500    2.9200   26.3950 C.2     1  UNL1        0.0568
     15 C         -25.6420    4.0930   27.1230 C.2     1  UNL1        0.2625
     16 N         -25.6140    5.2520   26.4490 N.am    1  UNL1       -0.2000
     17 C         -25.0260    6.4790   26.9630 C.3     1  UNL1        0.1388
     18 O         -25.1430    3.9660   28.2430 O.2     1  UNL1       -0.2687
     19 C         -27.4380    3.0910   25.6450 C.2     1  UNL1        0.1022
     20 N         -28.0750    2.0890   25.0030 N.2     1  UNL1       -0.2119
     21 C         -27.5430    0.8490   25.0790 C.2     1  UNL1        0.2341
     22 O         -28.1930   -0.2080   24.4770 O.2     1  UNL1       -0.4585
     23 C         -29.4600    0.0050   23.8660 C.3     1  UNL1        0.2423
     24 C         -30.0650   -1.3770   23.5730 C.3     1  UNL1        0.2292
     25 O         -30.7290   -1.8780   24.7210 O.3     1  UNL1       -0.2162
     26 C         -26.3540    0.5760   25.7770 C.3     1  UNL1        0.2419
     27 F         -25.8600   -0.6810   25.7950 F       1  UNL1       -0.2268
     28 O         -26.2149    5.9616   32.2614 O.3     1  UNL1       -0.3485
     29 C         -26.7959    4.7593   32.9522 C.3     1  UNL1        0.1716
     30 C         -26.1309    3.3354   31.2794 C.3     1  UNL1        0.0323
     31 O         -24.7868    3.6713   33.1097 O.3     1  UNL1       -0.3510
     32 C         -24.1459    4.8466   32.6294 C.3     1  UNL1        0.1741
     33 C         -21.5828    1.3971   26.8782 C.2     1  UNL1        0.0155
     34 C         -24.3431    1.5713   26.6827 C.3     1  UNL1        0.1024
     35 C         -25.5069    1.9723   31.0394 C.3     1  UNL1        0.0056
     36 C         -24.2678    2.0324   30.1452 C.3     1  UNL1        0.0216
     37 C         -24.6371    1.2135   28.8032 C.3     1  UNL1        0.0911
     38 C         -26.0258    3.6759   32.8120 C.3     1  UNL1        0.1448
     39 C         -23.5195    1.8021   25.5535 C.2     1  UNL1       -0.0063
     40 C         -24.8933    5.7584   31.7525 C.3     1  UNL1        0.1742
     41 N         -23.7822    1.3323   27.8710 N.pl3   1  UNL1       -0.3040
     42 C         -22.3713    1.1579   27.9516 C.2     1  UNL1        0.0615
     43 C         -22.1350    1.8140   25.6828 C.2     1  UNL1       -0.0016
@<TRIPOS>BOND
     1     2     7    1
     2     2     1    1
     3     3     2    2
     4     4     3    1
     5     4     5    2
     6     5     6    1
     7     6     7    2
     8     8     1    1
     9     8     9    1
    10     8    12    1
    11     9    35    1
    12     9    10    1
    13    10    11    1
    14    12    11    1
    15    13    14    1
    16    13    34    1
    17    14    15    1
    18    15    18    2
    19    16    17    1
    20    16    15    1
    21    19    14    2
    22    20    21    2
    23    20    19    1
    24    21    26    1
    25    22    21    1
    26    23    22    1
    27    24    23    1
    28    24    25    1
    29    26    27    1
    30    26    13    1
    31    28    29    1
    32    32    31    1
    33    33    42    2
    34    34    39    1
    35    34    41    1
    36    35    36    1
    37    35    30    1
    38    37    36    1
    39    38    30    1
    40    38    29    1
    41    38    31    1
    42    39    43    2
    43    40    28    1
    44    40    32    1
    45    41    42    1
    46    41    37    1
    47    43    33    1
