@<TRIPOS>MOLECULE
outputs/IAG933/test6/raw/output_8522_IAG933_linker_design_.xyz
 45 50 0 0 0
SMALL
GASTEIGER

@<TRIPOS>ATOM
      1 C         -24.8550   -1.0120   30.1430 C.3     1  UNL1        0.1155
      2 C         -24.9730   -2.5050   29.7880 C.2     1  UNL1       -0.0125
      3 C         -23.9060   -3.1730   29.1460 C.2     1  UNL1       -0.0038
      4 C         -23.9890   -4.5490   28.8530 C.2     1  UNL1       -0.0003
      5 C         -25.1370   -5.2800   29.2050 C.2     1  UNL1       -0.0000
      6 C         -26.2320   -4.6110   29.7840 C.2     1  UNL1       -0.0003
      7 C         -26.1550   -3.2320   30.0650 C.2     1  UNL1       -0.0038
      8 C         -25.3870   -0.6790   31.5710 C.3     1  UNL1        0.0855
      9 C         -25.1890    0.7730   32.0280 C.3     1  UNL1        0.0197
     10 C         -25.3360    0.6840   33.5440 C.3     1  UNL1        0.0203
     11 C         -24.8290   -0.7150   33.9050 C.3     1  UNL1        0.0887
     12 N         -24.7580   -1.4810   32.6460 N.3     1  UNL1       -0.2186
     13 C         -25.6880    1.6140   26.4610 C.3     1  UNL1        0.0918
     14 C         -26.2500    2.9200   26.3950 C.2     1  UNL1        0.0569
     15 C         -25.6420    4.0930   27.1230 C.2     1  UNL1        0.2232
     16 N         -25.6140    5.2520   26.4490 N.2     1  UNL1       -0.2356
     17 C         -25.0260    6.4790   26.9630 C.3     1  UNL1        0.1550
     18 O         -25.1430    3.9660   28.2430 O.2     1  UNL1       -0.4357
     19 C         -27.4380    3.0910   25.6450 C.2     1  UNL1        0.1025
     20 N         -28.0750    2.0890   25.0030 N.2     1  UNL1       -0.2118
     21 C         -27.5430    0.8490   25.0790 C.2     1  UNL1        0.2344
     22 O         -28.1930   -0.2080   24.4770 O.2     1  UNL1       -0.4585
     23 C         -29.4600    0.0050   23.8660 C.3     1  UNL1        0.2423
     24 C         -30.0650   -1.3770   23.5730 C.3     1  UNL1        0.2292
     25 O         -30.7290   -1.8780   24.7210 O.3     1  UNL1       -0.2162
     26 C         -26.3540    0.5760   25.7770 C.3     1  UNL1        0.2438
     27 F         -25.8600   -0.6810   25.7950 F       1  UNL1       -0.2265
     28 N         -28.1664    3.5197   30.7243 N.pl3   1  UNL1       -0.2479
     29 C         -21.7162    0.7069   28.5561 C.2     1  UNL1        0.2935
     30 BR        -30.0382    3.7479   30.9762 Br      1  UNL1        0.0380
     31 O         -22.1831    2.0300   26.5839 O.3     1  UNL1       -0.3372
     32 N         -22.0992   -0.1677   29.4527 N.am    1  UNL1       -0.0853
     33 O         -20.4425    0.9422   28.3444 O.2     1  UNL1       -0.2686
     34 C         -25.8767    3.7395   29.5385 C.2     1  UNL1        0.1599
     35 C         -27.5335    2.3080   30.2961 C.3     1  UNL1        0.1474
     36 C         -24.0358    1.3746   27.8706 C.2     1  UNL1        0.0661
     37 N         -25.3014    1.3970   28.8817 N.am    1  UNL1       -0.2375
     38 O         -26.6856   -0.4384   28.6990 O.2     1  UNL1       -0.2738
     39 C         -24.2732    1.5738   26.5740 C.2     1  UNL1        0.0050
     40 C         -27.5406    4.6384   30.9269 C.2     1  UNL1        0.0748
     41 C         -25.7523   -0.0630   29.1467 C.2     1  UNL1        0.2378
     42 C         -23.0935    1.9209   25.6715 C.3     1  UNL1        0.1668
     43 C         -26.3303    4.8147   30.3583 C.2     1  UNL1        0.0551
     44 C         -26.2523    2.4511   29.6394 C.2     1  UNL1        0.0906
     45 C         -22.6930    1.4274   27.6766 C.3     1  UNL1        0.2303
@<TRIPOS>BOND
     1     1    41    1
     2     2     7    1
     3     2     1    1
     4     3     2    2
     5     4     3    1
     6     4     5    2
     7     5     6    1
     8     6     7    2
     9     8     1    1
    10     8     9    1
    11     8    12    1
    12     9    10    1
    13    10    11    1
    14    12    11    1
    15    13    14    1
    16    13    39    1
    17    14    15    1
    18    15    18    1
    19    16    17    1
    20    16    15    2
    21    18    34    1
    22    19    14    2
    23    20    21    2
    24    20    19    1
    25    21    26    1
    26    22    21    1
    27    23    22    1
    28    24    23    1
    29    24    25    1
    30    26    27    1
    31    26    13    1
    32    28    40    1
    33    28    30    1
    34    29    32    1
    35    31    45    1
    36    33    29    2
    37    34    44    2
    38    34    43    1
    39    35    28    1
    40    36    37    1
    41    37    41   am
    42    37    44    1
    43    38    41    2
    44    39    36    2
    45    42    39    1
    46    42    31    1
    47    43    40    2
    48    44    35    1
    49    45    36    1
    50    45    29    1
