@<TRIPOS>MOLECULE
outputs/IAG933/test6/raw/output_8524_IAG933_linker_design_.xyz
 50 56 0 0 0
SMALL
GASTEIGER

@<TRIPOS>ATOM
      1 C         -24.8550   -1.0120   30.1430 C.3     1  UNL1        0.0691
      2 C         -24.9730   -2.5050   29.7880 C.2     1  UNL1       -0.0187
      3 C         -23.9060   -3.1730   29.1460 C.2     1  UNL1       -0.0042
      4 C         -23.9890   -4.5490   28.8530 C.2     1  UNL1       -0.0003
      5 C         -25.1370   -5.2800   29.2050 C.2     1  UNL1       -0.0000
      6 C         -26.2320   -4.6110   29.7840 C.2     1  UNL1       -0.0003
      7 C         -26.1550   -3.2320   30.0650 C.2     1  UNL1       -0.0042
      8 C         -25.3870   -0.6790   31.5710 C.3     1  UNL1        0.0793
      9 C         -25.1890    0.7730   32.0280 C.3     1  UNL1        0.0193
     10 C         -25.3360    0.6840   33.5440 C.3     1  UNL1        0.0202
     11 C         -24.8290   -0.7150   33.9050 C.3     1  UNL1        0.0887
     12 N         -24.7580   -1.4810   32.6460 N.3     1  UNL1       -0.2190
     13 C         -25.6880    1.6140   26.4610 C.3     1  UNL1        0.0738
     14 C         -26.2500    2.9200   26.3950 C.2     1  UNL1        0.0549
     15 C         -25.6420    4.0930   27.1230 C.2     1  UNL1        0.2624
     16 N         -25.6140    5.2520   26.4490 N.am    1  UNL1       -0.2000
     17 C         -25.0260    6.4790   26.9630 C.3     1  UNL1        0.1388
     18 O         -25.1430    3.9660   28.2430 O.2     1  UNL1       -0.2687
     19 C         -27.4380    3.0910   25.6450 C.2     1  UNL1        0.1021
     20 N         -28.0750    2.0890   25.0030 N.2     1  UNL1       -0.2119
     21 C         -27.5430    0.8490   25.0790 C.2     1  UNL1        0.2341
     22 O         -28.1930   -0.2080   24.4770 O.2     1  UNL1       -0.4586
     23 C         -29.4600    0.0050   23.8660 C.3     1  UNL1        0.2388
     24 C         -30.0650   -1.3770   23.5730 C.3     1  UNL1        0.1900
     25 O         -30.7290   -1.8780   24.7210 O.3     1  UNL1       -0.3415
     26 C         -26.3540    0.5760   25.7770 C.3     1  UNL1        0.2401
     27 F         -25.8600   -0.6810   25.7950 F       1  UNL1       -0.2269
     28 O         -26.5254    0.4643   28.8573 O.2     1  UNL1       -0.4766
     29 O         -32.6245    0.3045   27.1712 O.2     1  UNL1       -0.2854
     30 C         -28.9292    3.1044   29.4335 C.2     1  UNL1        0.0301
     31 C         -21.0471    1.1069   28.0600 C.3     1  UNL1        0.0320
     32 C         -24.2799    0.0941   29.3781 C.3     1  UNL1        0.1601
     33 C         -31.4591    0.0301   26.9020 C.2     1  UNL1        0.2371
     34 N         -31.2124    3.7494   28.9053 N.pl3   1  UNL1       -0.2780
     35 C         -25.1154    0.9867   28.8029 C.3     1  UNL1        0.1935
     36 C         -29.6580    5.1557   30.1331 C.3     1  UNL1        0.0263
     37 C         -23.3823    1.2820   27.1375 C.3     1  UNL1        0.0336
     38 O         -30.4526    2.1372   27.7100 O.2     1  UNL1       -0.4372
     39 C         -27.7350    1.0091   28.9611 C.2     1  UNL1        0.1415
     40 C         -30.3528    0.8064   27.4450 C.2     1  UNL1        0.1868
     41 C         -22.4599    0.5374   28.0154 C.3     1  UNL1        0.1155
     42 C         -30.1920    2.9537   28.6236 C.2     1  UNL1        0.1952
     43 C         -28.4553    4.5164   29.5410 C.3     1  UNL1        0.0327
     44 C         -29.0569    0.5597   28.1183 C.2     1  UNL1        0.0774
     45 C         -28.1434    2.0985   29.9161 C.2     1  UNL1        0.0371
     46 O         -22.9787    0.1313   29.1846 O.3     1  UNL1       -0.3547
     47 C         -31.1548   -1.1114   25.9096 C.3     1  UNL1        0.2142
     48 C         -24.6689    1.2823   27.4610 C.3     1  UNL1        0.0524
     49 C         -30.7422    5.2272   29.0950 C.3     1  UNL1        0.0940
     50 C         -32.2747    3.7695   27.8835 C.3     1  UNL1        0.1150
@<TRIPOS>BOND
     1     1     2    1
     2     2     7    1
     3     3     2    2
     4     4     3    1
     5     4     5    2
     6     5     6    1
     7     6     7    2
     8     8     1    1
     9     8     9    1
    10     8    12    1
    11     9    10    1
    12    10    11    1
    13    12    11    1
    14    13    14    1
    15    13    48    1
    16    14    15    1
    17    15    18    2
    18    16    17    1
    19    16    15    1
    20    19    14    2
    21    20    21    2
    22    20    19    1
    23    21    26    1
    24    22    21    1
    25    23    22    1
    26    24    23    1
    27    24    25    1
    28    25    47    1
    29    26    27    1
    30    26    13    1
    31    28    39    1
    32    30    43    1
    33    30    45    1
    34    32     1    1
    35    33    29    2
    36    33    40    1
    37    34    49    1
    38    35    28    1
    39    35    32    1
    40    37    41    1
    41    38    42    1
    42    39    45    2
    43    40    38    1
    44    40    44    2
    45    41    31    1
    46    41    46    1
    47    42    34    1
    48    42    30    2
    49    43    36    1
    50    44    39    1
    51    46    32    1
    52    47    33    1
    53    48    37    1
    54    48    35    1
    55    49    36    1
    56    50    34    1
