@<TRIPOS>MOLECULE
outputs/IAG933/test6/raw/output_8525_IAG933_linker_design_.xyz
 41 45 0 0 0
SMALL
GASTEIGER

@<TRIPOS>ATOM
      1 C         -24.8550   -1.0120   30.1430 C.3     1  UNL1        0.1343
      2 C         -24.9730   -2.5050   29.7880 C.2     1  UNL1       -0.0032
      3 C         -23.9060   -3.1730   29.1460 C.2     1  UNL1       -0.0028
      4 C         -23.9890   -4.5490   28.8530 C.2     1  UNL1       -0.0003
      5 C         -25.1370   -5.2800   29.2050 C.2     1  UNL1       -0.0000
      6 C         -26.2320   -4.6110   29.7840 C.2     1  UNL1       -0.0003
      7 C         -26.1550   -3.2320   30.0650 C.2     1  UNL1       -0.0028
      8 C         -25.3870   -0.6790   31.5710 C.3     1  UNL1        0.0949
      9 C         -25.1890    0.7730   32.0280 C.3     1  UNL1        0.0207
     10 C         -25.3360    0.6840   33.5440 C.3     1  UNL1        0.0203
     11 C         -24.8290   -0.7150   33.9050 C.3     1  UNL1        0.0888
     12 N         -24.7580   -1.4810   32.6460 N.3     1  UNL1       -0.2176
     13 C         -25.6880    1.6140   26.4610 C.2     1  UNL1        0.0388
     14 C         -26.2500    2.9200   26.3950 C.2     1  UNL1        0.0764
     15 C         -25.6420    4.0930   27.1230 C.2     1  UNL1        0.2664
     16 N         -25.6140    5.2520   26.4490 N.am    1  UNL1       -0.1997
     17 C         -25.0260    6.4790   26.9630 C.3     1  UNL1        0.1388
     18 O         -25.1430    3.9660   28.2430 O.2     1  UNL1       -0.2683
     19 C         -27.4380    3.0910   25.6450 C.2     1  UNL1        0.1067
     20 N         -28.0750    2.0890   25.0030 N.2     1  UNL1       -0.2081
     21 C         -27.5430    0.8490   25.0790 C.2     1  UNL1        0.2533
     22 O         -28.1930   -0.2080   24.4770 O.2     1  UNL1       -0.4558
     23 C         -29.4600    0.0050   23.8660 C.3     1  UNL1        0.2426
     24 C         -30.0650   -1.3770   23.5730 C.3     1  UNL1        0.2292
     25 O         -30.7290   -1.8780   24.7210 O.3     1  UNL1       -0.2162
     26 C         -26.3540    0.5760   25.7770 C.2     1  UNL1        0.1929
     27 F         -25.8600   -0.6810   25.7950 F       1  UNL1       -0.1992
     28 C         -24.5372    1.3389   27.1993 C.2     1  UNL1        0.0392
     29 O         -22.0961    2.2512   24.9043 O.2     1  UNL1       -0.4346
     30 C         -27.4084   -0.4206   28.6422 C.2     1  UNL1        0.3229
     31 C         -21.3936    1.0744   28.4312 C.2     1  UNL1        0.0004
     32 N         -25.1118   -0.0308   29.0289 N.3     1  UNL1       -0.1078
     33 C         -21.1517    1.6405   27.1368 C.2     1  UNL1        0.0399
     34 C         -23.4616    1.1467   26.1596 C.2     1  UNL1        0.1741
     35 O         -26.1789   -0.0707   28.4036 O.2     1  UNL1       -0.3745
     36 C         -22.9578    1.5193   23.9210 C.3     1  UNL1        0.4294
     37 C         -22.6912    0.7325   28.9690 C.2     1  UNL1       -0.0025
     38 C         -24.1126    0.7929   28.4559 C.3     1  UNL1        0.1431
     39 O         -23.8387    0.7628   24.5588 O.2     1  UNL1       -0.4349
     40 C         -22.2438    1.7099   26.1484 C.2     1  UNL1        0.1762
     41 N         -27.9989    0.2128   29.0569 N.2     1  UNL1       -0.1004
@<TRIPOS>BOND
     1     1    32    1
     2     2     7    1
     3     2     1    1
     4     3     2    2
     5     4     3    1
     6     4     5    2
     7     5     6    1
     8     6     7    2
     9     8     1    1
    10     8     9    1
    11     8    12    1
    12     9    10    1
    13    10    11    1
    14    12    11    1
    15    13    28    1
    16    14    13    1
    17    14    15    1
    18    15    18    2
    19    16    17    1
    20    16    15    1
    21    19    14    2
    22    20    21    2
    23    20    19    1
    24    21    26    1
    25    22    21    1
    26    23    22    1
    27    24    23    1
    28    24    25    1
    29    26    27    1
    30    26    13    2
    31    28    38    1
    32    29    40    1
    33    30    41    2
    34    31    37    2
    35    33    31    1
    36    34    28    2
    37    35    30    1
    38    35    32    1
    39    36    39    1
    40    36    29    1
    41    38    37    1
    42    38    32    1
    43    39    34    1
    44    40    34    1
    45    40    33    2
