@<TRIPOS>MOLECULE
outputs/IAG933/test6/raw/output_8528_IAG933_linker_design_.xyz
 42 45 0 0 0
SMALL
GASTEIGER

@<TRIPOS>ATOM
      1 C         -24.8550   -1.0120   30.1430 C.3     1  UNL1        0.0636
      2 C         -24.9730   -2.5050   29.7880 C.2     1  UNL1       -0.0168
      3 C         -23.9060   -3.1730   29.1460 C.2     1  UNL1       -0.0039
      4 C         -23.9890   -4.5490   28.8530 C.2     1  UNL1       -0.0003
      5 C         -25.1370   -5.2800   29.2050 C.2     1  UNL1       -0.0000
      6 C         -26.2320   -4.6110   29.7840 C.2     1  UNL1       -0.0003
      7 C         -26.1550   -3.2320   30.0650 C.2     1  UNL1       -0.0039
      8 C         -25.3870   -0.6790   31.5710 C.3     1  UNL1        0.0811
      9 C         -25.1890    0.7730   32.0280 C.3     1  UNL1        0.0195
     10 C         -25.3360    0.6840   33.5440 C.3     1  UNL1        0.0203
     11 C         -24.8290   -0.7150   33.9050 C.3     1  UNL1        0.0887
     12 N         -24.7580   -1.4810   32.6460 N.3     1  UNL1       -0.2188
     13 C         -25.6880    1.6140   26.4610 C.2     1  UNL1        0.0159
     14 C         -26.2500    2.9200   26.3950 C.2     1  UNL1        0.0726
     15 C         -25.6420    4.0930   27.1230 C.2     1  UNL1        0.2661
     16 N         -25.6140    5.2520   26.4490 N.am    1  UNL1       -0.1997
     17 C         -25.0260    6.4790   26.9630 C.3     1  UNL1        0.1388
     18 O         -25.1430    3.9660   28.2430 O.2     1  UNL1       -0.2683
     19 C         -27.4380    3.0910   25.6450 C.2     1  UNL1        0.1064
     20 N         -28.0750    2.0890   25.0030 N.2     1  UNL1       -0.2081
     21 C         -27.5430    0.8490   25.0790 C.2     1  UNL1        0.2530
     22 O         -28.1930   -0.2080   24.4770 O.2     1  UNL1       -0.4558
     23 C         -29.4600    0.0050   23.8660 C.3     1  UNL1        0.2426
     24 C         -30.0650   -1.3770   23.5730 C.3     1  UNL1        0.2292
     25 O         -30.7290   -1.8780   24.7210 O.3     1  UNL1       -0.2162
     26 C         -26.3540    0.5760   25.7770 C.2     1  UNL1        0.1891
     27 F         -25.8600   -0.6810   25.7950 F       1  UNL1       -0.1996
     28 C         -30.3296   -0.0757   28.3139 C.3     1  UNL1        0.2136
     29 C         -25.2252   -0.1654   28.9376 C.2     1  UNL1       -0.0047
     30 C         -22.1332    1.9647   26.5310 C.3     1  UNL1        0.0332
     31 C         -26.6720   -0.2543   28.6756 C.1     1  UNL1       -0.1064
     32 O         -20.5234    1.5499   28.1932 O.3     1  UNL1       -0.2231
     33 C         -27.9963   -0.2681   28.4168 C.2     1  UNL1        0.0808
     34 C         -22.9082    1.1396   28.8733 C.3     1  UNL1        0.0378
     35 C         -29.1545   -0.7798   28.8329 C.2     1  UNL1        0.2107
     36 C         -24.2731    1.4825   26.9964 C.3     1  UNL1        0.0294
     37 C         -21.8656    1.2001   27.7911 C.3     1  UNL1        0.1524
     38 O         -30.3220   -0.2404   26.8926 O.3     1  UNL1       -0.2147
     39 C         -23.3650    2.1160   26.1166 C.3     1  UNL1        0.0074
     40 C         -31.5974   -0.4561   29.0789 C.3     1  UNL1        0.0441
     41 C         -24.1612    0.5845   28.1437 C.3     1  UNL1        0.0324
     42 O         -29.1966   -1.7182   29.6487 O.2     1  UNL1       -0.2880
@<TRIPOS>BOND
     1     1    29    1
     2     2     7    1
     3     2     1    1
     4     3     2    2
     5     4     3    1
     6     4     5    2
     7     5     6    1
     8     6     7    2
     9     8     1    1
    10     8     9    1
    11     8    12    1
    12     9    10    1
    13    10    11    1
    14    12    11    1
    15    14    13    1
    16    14    15    1
    17    15    18    2
    18    16    17    1
    19    16    15    1
    20    19    14    2
    21    20    21    2
    22    20    19    1
    23    21    26    1
    24    22    21    1
    25    23    22    1
    26    24    23    1
    27    24    25    1
    28    26    27    1
    29    26    13    2
    30    28    35    1
    31    28    40    1
    32    30    37    1
    33    31    29    2
    34    33    31    2
    35    33    35    1
    36    35    42    2
    37    36    13    1
    38    36    41    1
    39    37    32    1
    40    37    34    1
    41    38    28    1
    42    39    30    1
    43    39    36    1
    44    41    34    1
    45    41    29    1
