@<TRIPOS>MOLECULE
outputs/IAG933/test6/raw/output_8529_IAG933_linker_design_.xyz
 43 47 0 0 0
SMALL
GASTEIGER

@<TRIPOS>ATOM
      1 C         -24.8550   -1.0120   30.1430 C.3     1  UNL1        0.0428
      2 C         -24.9730   -2.5050   29.7880 C.2     1  UNL1       -0.0208
      3 C         -23.9060   -3.1730   29.1460 C.2     1  UNL1       -0.0042
      4 C         -23.9890   -4.5490   28.8530 C.2     1  UNL1       -0.0003
      5 C         -25.1370   -5.2800   29.2050 C.2     1  UNL1       -0.0000
      6 C         -26.2320   -4.6110   29.7840 C.2     1  UNL1       -0.0003
      7 C         -26.1550   -3.2320   30.0650 C.2     1  UNL1       -0.0042
      8 C         -25.3870   -0.6790   31.5710 C.3     1  UNL1        0.0771
      9 C         -25.1890    0.7730   32.0280 C.3     1  UNL1        0.0192
     10 C         -25.3360    0.6840   33.5440 C.3     1  UNL1        0.0202
     11 C         -24.8290   -0.7150   33.9050 C.3     1  UNL1        0.0887
     12 N         -24.7580   -1.4810   32.6460 N.3     1  UNL1       -0.2191
     13 C         -25.6880    1.6140   26.4610 C.3     1  UNL1        0.0745
     14 C         -26.2500    2.9200   26.3950 C.2     1  UNL1        0.0551
     15 C         -25.6420    4.0930   27.1230 C.2     1  UNL1        0.2624
     16 N         -25.6140    5.2520   26.4490 N.am    1  UNL1       -0.2000
     17 C         -25.0260    6.4790   26.9630 C.3     1  UNL1        0.1388
     18 O         -25.1430    3.9660   28.2430 O.2     1  UNL1       -0.2687
     19 C         -27.4380    3.0910   25.6450 C.2     1  UNL1        0.1021
     20 N         -28.0750    2.0890   25.0030 N.2     1  UNL1       -0.2119
     21 C         -27.5430    0.8490   25.0790 C.2     1  UNL1        0.2341
     22 O         -28.1930   -0.2080   24.4770 O.2     1  UNL1       -0.4585
     23 C         -29.4600    0.0050   23.8660 C.3     1  UNL1        0.2423
     24 C         -30.0650   -1.3770   23.5730 C.3     1  UNL1        0.2292
     25 O         -30.7290   -1.8780   24.7210 O.3     1  UNL1       -0.2162
     26 C         -26.3540    0.5760   25.7770 C.3     1  UNL1        0.2403
     27 F         -25.8600   -0.6810   25.7950 F       1  UNL1       -0.2269
     28 C         -29.4841    2.7281   29.0238 C.2     1  UNL1        0.0033
     29 C         -26.1049   -0.2086   29.3711 C.3     1  UNL1        0.0352
     30 C         -28.4586    2.9731   29.9373 C.2     1  UNL1       -0.0001
     31 C         -27.3703    0.9032   29.3830 C.2     1  UNL1        0.0171
     32 C         -23.5589    0.4661   28.3323 C.2     1  UNL1       -0.0258
     33 C         -29.4857    1.4907   28.3855 C.2     1  UNL1        0.0417
     34 C         -28.4806    0.5402   28.6707 C.2     1  UNL1        0.1917
     35 C         -21.2345    0.0960   28.8508 C.2     1  UNL1       -0.0003
     36 C         -20.8968    0.9221   27.8065 C.2     1  UNL1       -0.0003
     37 C         -24.2768    1.5179   26.5164 C.3     1  UNL1        0.0338
     38 C         -22.5863   -0.1192   29.1065 C.2     1  UNL1       -0.0046
     39 C         -23.1894    1.1925   27.2770 C.2     1  UNL1       -0.0257
     40 C         -21.8512    1.4613   26.9866 C.2     1  UNL1       -0.0046
     41 C         -27.3794    2.1095   30.0594 C.2     1  UNL1       -0.0011
     42 C         -24.9831    0.4274   28.5137 C.3     1  UNL1        0.0308
     43 O         -28.5753   -0.7708   28.3123 O.2     1  UNL1       -0.2869
@<TRIPOS>BOND
     1     1    29    1
     2     2     7    1
     3     2     1    1
     4     3     2    2
     5     4     3    1
     6     4     5    2
     7     5     6    1
     8     6     7    2
     9     8     1    1
    10     8     9    1
    11     8    12    1
    12     9    10    1
    13    10    11    1
    14    12    11    1
    15    13    37    1
    16    14    13    1
    17    14    15    1
    18    15    18    2
    19    16    17    1
    20    16    15    1
    21    19    14    2
    22    20    21    2
    23    20    19    1
    24    21    26    1
    25    22    21    1
    26    23    22    1
    27    24    23    1
    28    24    25    1
    29    26    27    1
    30    26    13    1
    31    28    30    1
    32    29    42    1
    33    29    31    1
    34    30    41    2
    35    31    41    1
    36    32    42    1
    37    32    38    1
    38    33    34    1
    39    33    28    2
    40    34    31    2
    41    35    38    2
    42    36    35    1
    43    37    39    1
    44    39    32    2
    45    40    39    1
    46    40    36    2
    47    43    34    1
