@<TRIPOS>MOLECULE
outputs/IAG933/test6/raw/output_8530_IAG933_linker_design_.xyz
 48 52 0 0 0
SMALL
GASTEIGER

@<TRIPOS>ATOM
      1 C         -24.8550   -1.0120   30.1430 C.3     1  UNL1        0.0655
      2 C         -24.9730   -2.5050   29.7880 C.2     1  UNL1       -0.0190
      3 C         -23.9060   -3.1730   29.1460 C.2     1  UNL1       -0.0042
      4 C         -23.9890   -4.5490   28.8530 C.2     1  UNL1       -0.0003
      5 C         -25.1370   -5.2800   29.2050 C.2     1  UNL1       -0.0000
      6 C         -26.2320   -4.6110   29.7840 C.2     1  UNL1       -0.0003
      7 C         -26.1550   -3.2320   30.0650 C.2     1  UNL1       -0.0042
      8 C         -25.3870   -0.6790   31.5710 C.3     1  UNL1        0.0789
      9 C         -25.1890    0.7730   32.0280 C.3     1  UNL1        0.0193
     10 C         -25.3360    0.6840   33.5440 C.3     1  UNL1        0.0202
     11 C         -24.8290   -0.7150   33.9050 C.3     1  UNL1        0.0887
     12 N         -24.7580   -1.4810   32.6460 N.3     1  UNL1       -0.2191
     13 C         -25.6880    1.6140   26.4610 C.2     1  UNL1        0.0401
     14 C         -26.2500    2.9200   26.3950 C.2     1  UNL1        0.0766
     15 C         -25.6420    4.0930   27.1230 C.2     1  UNL1        0.2664
     16 N         -25.6140    5.2520   26.4490 N.am    1  UNL1       -0.1997
     17 C         -25.0260    6.4790   26.9630 C.3     1  UNL1        0.1388
     18 O         -25.1430    3.9660   28.2430 O.2     1  UNL1       -0.2683
     19 C         -27.4380    3.0910   25.6450 C.2     1  UNL1        0.1067
     20 N         -28.0750    2.0890   25.0030 N.2     1  UNL1       -0.2081
     21 C         -27.5430    0.8490   25.0790 C.2     1  UNL1        0.2533
     22 O         -28.1930   -0.2080   24.4770 O.2     1  UNL1       -0.4558
     23 C         -29.4600    0.0050   23.8660 C.3     1  UNL1        0.2426
     24 C         -30.0650   -1.3770   23.5730 C.3     1  UNL1        0.2292
     25 O         -30.7290   -1.8780   24.7210 O.3     1  UNL1       -0.2162
     26 C         -26.3540    0.5760   25.7770 C.2     1  UNL1        0.1931
     27 F         -25.8600   -0.6810   25.7950 F       1  UNL1       -0.1992
     28 C         -23.3404    1.7245   26.8448 C.2     1  UNL1        0.1574
     29 C         -28.2834    3.6576   29.9387 C.2     1  UNL1        0.0124
     30 C         -27.8923    5.8683   31.4593 C.2     1  UNL1        0.0031
     31 O         -27.3996   -0.5113   28.4336 O.2     1  UNL1       -0.2732
     32 C         -23.1442    0.3436   28.8505 C.2     1  UNL1        0.2095
     33 F         -22.7447    2.5776   25.9055 F       1  UNL1       -0.2056
     34 C         -24.6526   -0.0663   28.9618 C.3     1  UNL1        0.1608
     35 C         -22.5237    1.2076   27.8676 C.3     1  UNL1        0.2684
     36 C         -27.8565    4.8197   29.3147 C.2     1  UNL1       -0.0013
     37 C         -27.5248    1.3147   29.9522 C.3     1  UNL1        0.1262
     38 C         -24.7254    1.4650   26.9525 C.2     1  UNL1        0.0310
     39 C         -27.1699    0.3158   29.0203 C.2     1  UNL1        0.2453
     40 C         -28.5490    1.1309   31.0998 C.3     1  UNL1        0.2148
     41 O         -22.4475   -0.1480   29.7521 O.2     1  UNL1       -0.2909
     42 C         -28.5245    3.5757   31.3438 C.2     1  UNL1        0.1345
     43 C         -27.5435    5.9048   30.1021 C.2     1  UNL1       -0.0001
     44 O         -28.5722    2.3045   32.0195 O.2     1  UNL1       -0.4753
     45 N         -25.9915    0.1673   28.6688 N.am    1  UNL1       -0.1990
     46 C         -28.4119    4.7165   32.0652 C.2     1  UNL1        0.0366
     47 C         -28.1240    2.4410   29.0851 C.3     1  UNL1        0.0423
     48 F         -21.2133    1.5971   27.8366 F       1  UNL1       -0.2218
@<TRIPOS>BOND
     1     1    34    1
     2     2     7    1
     3     2     1    1
     4     3     2    2
     5     4     3    1
     6     4     5    2
     7     5     6    1
     8     6     7    2
     9     8     1    1
    10     8     9    1
    11     8    12    1
    12     9    10    1
    13    10    11    1
    14    12    11    1
    15    13    38    1
    16    14    13    1
    17    14    15    1
    18    15    18    2
    19    16    17    1
    20    16    15    1
    21    19    14    2
    22    20    21    2
    23    20    19    1
    24    21    26    1
    25    22    21    1
    26    23    22    1
    27    24    23    1
    28    24    25    1
    29    26    27    1
    30    26    13    2
    31    28    38    2
    32    28    35    1
    33    29    42    1
    34    30    46    1
    35    31    39    2
    36    32    34    1
    37    32    41    2
    38    33    28    1
    39    34    45    1
    40    35    48    1
    41    35    32    1
    42    36    29    2
    43    36    43    1
    44    37    39    1
    45    37    40    1
    46    40    44    1
    47    42    44    1
    48    42    46    2
    49    43    30    2
    50    45    39    1
    51    47    29    1
    52    47    37    1
