@<TRIPOS>MOLECULE
outputs/IAG933/test6/raw/output_8531_IAG933_linker_design_.xyz
 44 47 0 0 0
SMALL
GASTEIGER

@<TRIPOS>ATOM
      1 C         -24.8550   -1.0120   30.1430 C.3     1  UNL1        0.0438
      2 C         -24.9730   -2.5050   29.7880 C.2     1  UNL1       -0.0208
      3 C         -23.9060   -3.1730   29.1460 C.2     1  UNL1       -0.0042
      4 C         -23.9890   -4.5490   28.8530 C.2     1  UNL1       -0.0003
      5 C         -25.1370   -5.2800   29.2050 C.2     1  UNL1       -0.0000
      6 C         -26.2320   -4.6110   29.7840 C.2     1  UNL1       -0.0003
      7 C         -26.1550   -3.2320   30.0650 C.2     1  UNL1       -0.0042
      8 C         -25.3870   -0.6790   31.5710 C.3     1  UNL1        0.0789
      9 C         -25.1890    0.7730   32.0280 C.3     1  UNL1        0.0407
     10 C         -25.3360    0.6840   33.5440 C.3     1  UNL1        0.0220
     11 C         -24.8290   -0.7150   33.9050 C.3     1  UNL1        0.0888
     12 N         -24.7580   -1.4810   32.6460 N.3     1  UNL1       -0.2191
     13 C         -25.6880    1.6140   26.4610 C.3     1  UNL1        0.1621
     14 C         -26.2500    2.9200   26.3950 C.2     1  UNL1        0.0747
     15 C         -25.6420    4.0930   27.1230 C.2     1  UNL1        0.2641
     16 N         -25.6140    5.2520   26.4490 N.am    1  UNL1       -0.1999
     17 C         -25.0260    6.4790   26.9630 C.3     1  UNL1        0.1388
     18 O         -25.1430    3.9660   28.2430 O.2     1  UNL1       -0.2686
     19 C         -27.4380    3.0910   25.6450 C.2     1  UNL1        0.1038
     20 N         -28.0750    2.0890   25.0030 N.2     1  UNL1       -0.2118
     21 C         -27.5430    0.8490   25.0790 C.2     1  UNL1        0.2359
     22 O         -28.1930   -0.2080   24.4770 O.2     1  UNL1       -0.4585
     23 C         -29.4600    0.0050   23.8660 C.3     1  UNL1        0.2423
     24 C         -30.0650   -1.3770   23.5730 C.3     1  UNL1        0.2292
     25 O         -30.7290   -1.8780   24.7210 O.3     1  UNL1       -0.2162
     26 C         -26.3540    0.5760   25.7770 C.3     1  UNL1        0.2598
     27 F         -25.8600   -0.6810   25.7950 F       1  UNL1       -0.2250
     28 N         -24.8101    3.4047   31.6593 N.am    1  UNL1       -0.2037
     29 C         -23.8881    1.8743   30.0812 C.3     1  UNL1        0.1953
     30 O         -25.7799    7.6228   33.5555 O.co2   1  UNL1       -0.2451
     31 C         -25.1175    2.0615   31.1253 C.3     1  UNL1        0.1312
     32 O         -26.7586    3.5046   32.8838 O.2     1  UNL1       -0.2727
     33 C         -23.0055    2.0775   26.2019 C.2     1  UNL1        0.0159
     34 C         -25.6429    3.9496   32.6362 C.2     1  UNL1        0.2529
     35 O         -22.9793    1.2572   31.0400 O.3     1  UNL1       -0.2164
     36 O         -24.9792    6.6138   31.6839 O.co2   1  UNL1       -0.2451
     37 C         -25.1724    5.1653   33.4753 C.3     1  UNL1        0.2004
     38 C         -23.1824    1.6234   28.6649 C.2     1  UNL1        0.0243
     39 C         -21.0487    1.6086   27.4753 C.2     1  UNL1       -0.0002
     40 C         -23.7766    1.6877   27.3606 C.2     1  UNL1        0.0642
     41 C         -25.4549    6.5770   32.8572 C.2     1  UNL1        0.3741
     42 C         -21.5932    1.9745   26.2825 C.2     1  UNL1        0.0013
     43 C         -21.8358    1.4153   28.6332 C.2     1  UNL1       -0.0005
     44 N         -24.9520    1.1674   27.2648 N.pl3   1  UNL1       -0.2316
@<TRIPOS>BOND
     1     2     7    1
     2     2     1    1
     3     3     2    2
     4     4     3    1
     5     4     5    2
     6     5     6    1
     7     6     7    2
     8     8     1    1
     9     8     9    1
    10     8    12    1
    11     9    31    1
    12     9    10    1
    13    10    11    1
    14    12    11    1
    15    13    44    1
    16    14    13    1
    17    14    15    1
    18    15    18    2
    19    16    17    1
    20    16    15    1
    21    19    14    2
    22    20    21    2
    23    20    19    1
    24    21    26    1
    25    22    21    1
    26    23    22    1
    27    24    23    1
    28    24    25    1
    29    26    27    1
    30    26    13    1
    31    28    34    1
    32    29    35    1
    33    29    31    1
    34    31    28    1
    35    33    42    2
    36    33    40    1
    37    34    32    2
    38    34    37    1
    39    36    41   ar
    40    38    29    1
    41    39    43    2
    42    40    38    2
    43    41    37    1
    44    41    30   ar
    45    42    39    1
    46    43    38    1
    47    44    40    1
