@<TRIPOS>MOLECULE
outputs/IAG933/test6/raw/output_8534_IAG933_linker_design_.xyz
 48 52 0 0 0
SMALL
GASTEIGER

@<TRIPOS>ATOM
      1 C         -24.8550   -1.0120   30.1430 C.3     1  UNL1        0.0615
      2 C         -24.9730   -2.5050   29.7880 C.2     1  UNL1       -0.0194
      3 C         -23.9060   -3.1730   29.1460 C.2     1  UNL1       -0.0042
      4 C         -23.9890   -4.5490   28.8530 C.2     1  UNL1       -0.0003
      5 C         -25.1370   -5.2800   29.2050 C.2     1  UNL1       -0.0000
      6 C         -26.2320   -4.6110   29.7840 C.2     1  UNL1       -0.0003
      7 C         -26.1550   -3.2320   30.0650 C.2     1  UNL1       -0.0042
      8 C         -25.3870   -0.6790   31.5710 C.3     1  UNL1        0.0786
      9 C         -25.1890    0.7730   32.0280 C.3     1  UNL1        0.0193
     10 C         -25.3360    0.6840   33.5440 C.3     1  UNL1        0.0202
     11 C         -24.8290   -0.7150   33.9050 C.3     1  UNL1        0.0887
     12 N         -24.7580   -1.4810   32.6460 N.3     1  UNL1       -0.2191
     13 C         -25.6880    1.6140   26.4610 C.2     1  UNL1        0.0407
     14 C         -26.2500    2.9200   26.3950 C.2     1  UNL1        0.0745
     15 C         -25.6420    4.0930   27.1230 C.2     1  UNL1        0.2240
     16 N         -25.6140    5.2520   26.4490 N.2     1  UNL1       -0.2356
     17 C         -25.0260    6.4790   26.9630 C.3     1  UNL1        0.1550
     18 O         -25.1430    3.9660   28.2430 O.2     1  UNL1       -0.4363
     19 C         -27.4380    3.0910   25.6450 C.2     1  UNL1        0.1068
     20 N         -28.0750    2.0890   25.0030 N.2     1  UNL1       -0.2080
     21 C         -27.5430    0.8490   25.0790 C.2     1  UNL1        0.2541
     22 O         -28.1930   -0.2080   24.4770 O.2     1  UNL1       -0.4461
     23 C         -29.4600    0.0050   23.8660 C.3     1  UNL1        0.2634
     24 C         -30.0650   -1.3770   23.5730 C.3     1  UNL1        0.2391
     25 O         -30.7290   -1.8780   24.7210 O.3     1  UNL1       -0.2152
     26 C         -26.3540    0.5760   25.7770 C.2     1  UNL1        0.1932
     27 F         -25.8600   -0.6810   25.7950 F       1  UNL1       -0.1992
     28 N         -22.7560    0.1855   29.0936 N.pl3   1  UNL1       -0.1878
     29 C         -25.8273    3.4151   30.4310 C.3     1  UNL1        0.1333
     30 O         -28.1279    6.2313   31.2396 O.2     1  UNL1       -0.2496
     31 O         -23.8369    2.2587   28.8521 O.3     1  UNL1       -0.3186
     32 C         -27.1410    5.1733   31.1260 C.2     1  UNL1        0.3257
     33 C         -30.5259    3.1702   28.4320 C.3     1  UNL1        0.1162
     34 O         -28.0405    2.2109   29.5317 O.2     1  UNL1       -0.2728
     35 C         -25.0847    2.8625   29.1309 C.3     1  UNL1        0.2936
     36 C         -28.2559    3.4158   29.5588 C.2     1  UNL1        0.2520
     37 O         -26.0811    4.9527   31.9931 O.3     1  UNL1       -0.4479
     38 N         -29.4653    3.9367   29.0912 N.am    1  UNL1       -0.2049
     39 C         -21.9726    0.7177   28.3777 C.1     1  UNL1        0.0317
     40 C         -27.1156    4.2085   30.0798 C.3     1  UNL1        0.1863
     41 C         -31.3401    3.8802   27.2885 C.3     1  UNL1        0.0374
     42 C         -23.9458    0.7984   28.8937 C.3     1  UNL1        0.1685
     43 C         -30.8512    2.1749   25.1129 C.1     1  UNL1       -0.0875
     44 C         -30.4439    1.0488   24.4310 C.1     1  UNL1       -0.0459
     45 C         -25.2944    3.9537   31.5748 C.3     1  UNL1        0.2157
     46 C         -31.1281    3.4218   25.8520 C.3     1  UNL1        0.0780
     47 C         -21.5785    1.4916   27.4889 C.1     1  UNL1        0.0086
     48 C         -24.0165    0.0684   29.4848 C.3     1  UNL1        0.1370
@<TRIPOS>BOND
     1     1    48    1
     2     2     7    1
     3     2     1    1
     4     3     2    2
     5     4     3    1
     6     4     5    2
     7     5     6    1
     8     6     7    2
     9     8     1    1
    10     8     9    1
    11     8    12    1
    12     9    10    1
    13    10    11    1
    14    12    11    1
    15    14    13    1
    16    14    15    1
    17    15    18    1
    18    16    17    1
    19    16    15    2
    20    18    35    1
    21    19    14    2
    22    20    21    2
    23    20    19    1
    24    21    26    1
    25    22    21    1
    26    23    24    1
    27    23    44    1
    28    23    22    1
    29    24    25    1
    30    26    27    1
    31    26    13    2
    32    28    48    1
    33    29    45    1
    34    31    42    1
    35    32    30    2
    36    32    37    1
    37    33    38    1
    38    34    36    2
    39    35    31    1
    40    35    29    1
    41    38    36    1
    42    39    28    1
    43    40    36    1
    44    40    29    1
    45    40    32    1
    46    41    33    1
    47    43    46    1
    48    44    43    3
    49    45    37    1
    50    46    41    1
    51    47    39    3
    52    48    42    1
