@<TRIPOS>MOLECULE
outputs/IAG933/test6/raw/output_8542_IAG933_linker_design_.xyz
 39 43 0 0 0
SMALL
GASTEIGER

@<TRIPOS>ATOM
      1 C         -24.8550   -1.0120   30.1430 C.3     1  UNL1        0.2038
      2 C         -24.9730   -2.5050   29.7880 C.2     1  UNL1        0.0217
      3 C         -23.9060   -3.1730   29.1460 C.2     1  UNL1       -0.0004
      4 C         -23.9890   -4.5490   28.8530 C.2     1  UNL1       -0.0002
      5 C         -25.1370   -5.2800   29.2050 C.2     1  UNL1       -0.0000
      6 C         -26.2320   -4.6110   29.7840 C.2     1  UNL1       -0.0002
      7 C         -26.1550   -3.2320   30.0650 C.2     1  UNL1       -0.0004
      8 C         -25.3870   -0.6790   31.5710 C.3     1  UNL1        0.1201
      9 C         -25.1890    0.7730   32.0280 C.3     1  UNL1        0.0233
     10 C         -25.3360    0.6840   33.5440 C.3     1  UNL1        0.0204
     11 C         -24.8290   -0.7150   33.9050 C.3     1  UNL1        0.0889
     12 N         -24.7580   -1.4810   32.6460 N.3     1  UNL1       -0.2150
     13 C         -25.6880    1.6140   26.4610 C.2     1  UNL1        0.0453
     14 C         -26.2500    2.9200   26.3950 C.2     1  UNL1        0.0768
     15 C         -25.6420    4.0930   27.1230 C.2     1  UNL1        0.2664
     16 N         -25.6140    5.2520   26.4490 N.am    1  UNL1       -0.1997
     17 C         -25.0260    6.4790   26.9630 C.3     1  UNL1        0.1388
     18 O         -25.1430    3.9660   28.2430 O.2     1  UNL1       -0.2683
     19 C         -27.4380    3.0910   25.6450 C.2     1  UNL1        0.1067
     20 N         -28.0750    2.0890   25.0030 N.2     1  UNL1       -0.2081
     21 C         -27.5430    0.8490   25.0790 C.2     1  UNL1        0.2533
     22 O         -28.1930   -0.2080   24.4770 O.2     1  UNL1       -0.4558
     23 C         -29.4600    0.0050   23.8660 C.3     1  UNL1        0.2426
     24 C         -30.0650   -1.3770   23.5730 C.3     1  UNL1        0.2292
     25 O         -30.7290   -1.8780   24.7210 O.3     1  UNL1       -0.2162
     26 C         -26.3540    0.5760   25.7770 C.2     1  UNL1        0.1933
     27 F         -25.8600   -0.6810   25.7950 F       1  UNL1       -0.1992
     28 C         -25.0094    0.4412   28.2156 C.2     1  UNL1        0.2171
     29 C         -22.8929    0.1351   28.7261 C.2     1  UNL1        0.3555
     30 C         -23.5100    1.6869   26.9006 C.2     1  UNL1        0.2407
     31 C         -24.7397    1.2653   27.2776 C.2     1  UNL1        0.0924
     32 O         -27.1680   -0.4698   28.7248 O.2     1  UNL1       -0.2276
     33 C         -26.2989    0.0330   28.4987 C.1     1  UNL1        0.1743
     34 O         -23.2544    2.3410   25.6826 O.2     1  UNL1       -0.2829
     35 N         -21.7875   -0.2782   29.4089 N.pl3   1  UNL1        0.0162
     36 N         -24.1218   -0.2023   29.0899 N.pl3   1  UNL1       -0.1591
     37 C         -20.6702    0.1345   28.4906 C.3     1  UNL1        0.4672
     38 O         -21.1451    1.1505   27.6107 O.2     1  UNL1       -0.4223
     39 C         -22.4871    1.0771   27.7574 C.2     1  UNL1        0.2614
@<TRIPOS>BOND
     1     1     2    1
     2     2     7    1
     3     3     2    2
     4     4     3    1
     5     4     5    2
     6     5     6    1
     7     6     7    2
     8     8     1    1
     9     8     9    1
    10     8    12    1
    11     9    10    1
    12    10    11    1
    13    12    11    1
    14    13    31    1
    15    14    13    1
    16    14    15    1
    17    15    18    2
    18    16    17    1
    19    16    15    1
    20    19    14    2
    21    20    21    2
    22    20    19    1
    23    21    26    1
    24    22    21    1
    25    23    22    1
    26    24    23    1
    27    24    25    1
    28    26    27    1
    29    26    13    2
    30    28    33    2
    31    28    36    1
    32    29    36    1
    33    29    35    1
    34    30    31    2
    35    30    39    1
    36    31    28    1
    37    33    32    2
    38    34    30    1
    39    36     1    1
    40    37    35    1
    41    38    39    1
    42    38    37    1
    43    39    29    2
