@<TRIPOS>MOLECULE
No_855-gen_results/8p0m/2024-11-27-11-27-31/
 15 17 0 0 0
SMALL
GASTEIGER

@<TRIPOS>ATOM
      1 C         -28.0162   -0.8135   28.8779 C.ar    1  UNL1       -0.0000
      2 C         -27.0636   -0.1189   28.6079 C.ar    1  UNL1       -0.0003
      3 C         -25.7923   -0.4302   29.0761 C.ar    1  UNL1       -0.0000
      4 C         -24.5456    0.3494   28.8225 C.ar    1  UNL1       -0.0003
      5 C         -23.2409    0.0217   29.3323 C.ar    1  UNL1       -0.0000
      6 C         -22.1362    0.7695   29.0059 C.ar    1  UNL1       -0.0000
      7 C         -29.3516   -0.3508   28.7011 C.ar    1  UNL1       -0.0000
      8 C         -29.5331    0.7200   27.8442 C.ar    1  UNL1       -0.0000
      9 C         -28.4236    1.4160   27.3797 C.ar    1  UNL1       -0.0003
     10 C         -27.1068    1.0841   27.8138 C.ar    1  UNL1       -0.0040
     11 C         -22.1678    1.8202   28.0995 C.ar    1  UNL1       -0.0000
     12 C         -23.4336    2.1629   27.5494 C.ar    1  UNL1       -0.0003
     13 C         -24.5633    1.4269   27.8538 C.ar    1  UNL1       -0.0040
     14 C         -25.9408    1.8022   27.4070 C.ar    1  UNL1       -0.0218
     15 C         -26.0324    2.9558   26.5381 C.3     1  UNL1        0.0310
@<TRIPOS>BOND
     1    14    15    1
     2     1     2   ar
     3    10     9   ar
     4     9     8   ar
     5     8     7   ar
     6     7     1   ar
     7     2     3   ar
     8     3     4   ar
     9    13    14   ar
    10    14    10   ar
    11    10     2   ar
    12     4     5   ar
    13     5     6   ar
    14     6    11   ar
    15    11    12   ar
    16    12    13   ar
    17    13     4   ar
