@<TRIPOS>MOLECULE
outputs/IAG933/test6/raw/output_8551_IAG933_linker_design_.xyz
 47 50 0 0 0
SMALL
GASTEIGER

@<TRIPOS>ATOM
      1 C         -24.8550   -1.0120   30.1430 C.3     1  UNL1        0.2427
      2 C         -24.9730   -2.5050   29.7880 C.2     1  UNL1        0.0254
      3 C         -23.9060   -3.1730   29.1460 C.2     1  UNL1       -0.0003
      4 C         -23.9890   -4.5490   28.8530 C.2     1  UNL1       -0.0002
      5 C         -25.1370   -5.2800   29.2050 C.2     1  UNL1       -0.0000
      6 C         -26.2320   -4.6110   29.7840 C.2     1  UNL1       -0.0002
      7 C         -26.1550   -3.2320   30.0650 C.2     1  UNL1       -0.0003
      8 C         -25.3870   -0.6790   31.5710 C.3     1  UNL1        0.1239
      9 C         -25.1890    0.7730   32.0280 C.3     1  UNL1        0.0235
     10 C         -25.3360    0.6840   33.5440 C.3     1  UNL1        0.0204
     11 C         -24.8290   -0.7150   33.9050 C.3     1  UNL1        0.0889
     12 N         -24.7580   -1.4810   32.6460 N.3     1  UNL1       -0.2149
     13 C         -25.6880    1.6140   26.4610 C.2     1  UNL1        0.0407
     14 C         -26.2500    2.9200   26.3950 C.2     1  UNL1        0.0745
     15 C         -25.6420    4.0930   27.1230 C.2     1  UNL1        0.2240
     16 N         -25.6140    5.2520   26.4490 N.2     1  UNL1       -0.2356
     17 C         -25.0260    6.4790   26.9630 C.3     1  UNL1        0.1550
     18 O         -25.1430    3.9660   28.2430 O.2     1  UNL1       -0.4364
     19 C         -27.4380    3.0910   25.6450 C.2     1  UNL1        0.1068
     20 N         -28.0750    2.0890   25.0030 N.2     1  UNL1       -0.2081
     21 C         -27.5430    0.8490   25.0790 C.2     1  UNL1        0.2533
     22 O         -28.1930   -0.2080   24.4770 O.2     1  UNL1       -0.4558
     23 C         -29.4600    0.0050   23.8660 C.3     1  UNL1        0.2426
     24 C         -30.0650   -1.3770   23.5730 C.3     1  UNL1        0.2292
     25 O         -30.7290   -1.8780   24.7210 O.3     1  UNL1       -0.2162
     26 C         -26.3540    0.5760   25.7770 C.2     1  UNL1        0.1931
     27 F         -25.8600   -0.6810   25.7950 F       1  UNL1       -0.1992
     28 C         -25.4740    3.8417   29.3655 C.3     1  UNL1        0.2908
     29 C         -26.8925    4.1489   29.7852 C.3     1  UNL1        0.0937
     30 C         -29.2723    3.1124   29.1177 C.3     1  UNL1        0.0721
     31 N         -21.8983   -0.6949   29.2417 N.pl3   1  UNL1        0.0046
     32 C         -27.4251    3.2281   30.8692 C.3     1  UNL1        0.0786
     33 C         -29.0849    0.2816   30.3141 C.3     1  UNL1        0.0174
     34 N         -28.7035    2.7341   30.4407 N.3     1  UNL1       -0.2725
     35 C         -23.9687    2.2821   28.9669 C.3     1  UNL1        0.1796
     36 C         -21.0085    0.8426   27.7702 C.1     1  UNL1        0.0177
     37 C         -20.9474   -0.2883   28.4702 C.2     1  UNL1        0.2710
     38 N         -23.8110   -0.4258   29.7325 N.pl3   1  UNL1       -0.0315
     39 C         -23.2474    1.2979   29.0945 C.2     1  UNL1        0.0967
     40 C         -22.9902    0.0390   29.3651 C.2     1  UNL1        0.3509
     41 O         -22.4292    2.3679   26.6612 O.2     1  UNL1       -0.2450
     42 O         -24.9367    2.7723   29.9899 O.3     1  UNL1       -0.3154
     43 C         -21.3900    2.0157   27.3350 C.2     1  UNL1        0.3724
     44 C         -29.6842    1.8333   28.3866 C.3     1  UNL1        0.0174
     45 C         -29.2934    1.5514   31.1247 C.3     1  UNL1        0.0721
     46 C         -28.9217    0.6152   28.8464 C.3     1  UNL1        0.0029
     47 F         -20.5481    2.2106   27.4810 F       1  UNL1       -0.1500
@<TRIPOS>BOND
     1     1    38    1
     2     2     7    1
     3     2     1    1
     4     3     2    2
     5     4     3    1
     6     4     5    2
     7     5     6    1
     8     6     7    2
     9     8     1    1
    10     8     9    1
    11     8    12    1
    12     9    10    1
    13    10    11    1
    14    12    11    1
    15    14    13    1
    16    14    15    1
    17    15    18    1
    18    16    17    1
    19    16    15    2
    20    18    28    1
    21    19    14    2
    22    20    21    2
    23    20    19    1
    24    21    26    1
    25    22    21    1
    26    23    22    1
    27    24    23    1
    28    24    25    1
    29    26    27    1
    30    26    13    2
    31    28    29    1
    32    28    42    1
    33    29    32    1
    34    30    34    1
    35    31    40    1
    36    33    45    1
    37    34    32    1
    38    34    45    1
    39    35    39    1
    40    35    42    1
    41    36    37    2
    42    37    31    1
    43    39    40    2
    44    40    38    1
    45    41    43    1
    46    43    47    1
    47    43    36    2
    48    44    46    1
    49    44    30    1
    50    46    33    1
