@<TRIPOS>MOLECULE
outputs/IAG933/test6/raw/output_8554_IAG933_linker_design_.xyz
 45 49 0 0 0
SMALL
GASTEIGER

@<TRIPOS>ATOM
      1 C         -24.8550   -1.0120   30.1430 C.3     1  UNL1        0.1278
      2 C         -24.9730   -2.5050   29.7880 C.2     1  UNL1       -0.0003
      3 C         -23.9060   -3.1730   29.1460 C.2     1  UNL1       -0.0024
      4 C         -23.9890   -4.5490   28.8530 C.2     1  UNL1       -0.0003
      5 C         -25.1370   -5.2800   29.2050 C.2     1  UNL1       -0.0000
      6 C         -26.2320   -4.6110   29.7840 C.2     1  UNL1       -0.0003
      7 C         -26.1550   -3.2320   30.0650 C.2     1  UNL1       -0.0024
      8 C         -25.3870   -0.6790   31.5710 C.3     1  UNL1        0.0978
      9 C         -25.1890    0.7730   32.0280 C.3     1  UNL1        0.0211
     10 C         -25.3360    0.6840   33.5440 C.3     1  UNL1        0.0203
     11 C         -24.8290   -0.7150   33.9050 C.3     1  UNL1        0.0888
     12 N         -24.7580   -1.4810   32.6460 N.3     1  UNL1       -0.2172
     13 C         -25.6880    1.6140   26.4610 C.3     1  UNL1        0.0971
     14 C         -26.2500    2.9200   26.3950 C.2     1  UNL1        0.0590
     15 C         -25.6420    4.0930   27.1230 C.2     1  UNL1        0.2628
     16 N         -25.6140    5.2520   26.4490 N.am    1  UNL1       -0.2000
     17 C         -25.0260    6.4790   26.9630 C.3     1  UNL1        0.1388
     18 O         -25.1430    3.9660   28.2430 O.2     1  UNL1       -0.2686
     19 C         -27.4380    3.0910   25.6450 C.2     1  UNL1        0.1025
     20 N         -28.0750    2.0890   25.0030 N.2     1  UNL1       -0.2118
     21 C         -27.5430    0.8490   25.0790 C.2     1  UNL1        0.2344
     22 O         -28.1930   -0.2080   24.4770 O.2     1  UNL1       -0.4585
     23 C         -29.4600    0.0050   23.8660 C.3     1  UNL1        0.2423
     24 C         -30.0650   -1.3770   23.5730 C.3     1  UNL1        0.2292
     25 O         -30.7290   -1.8780   24.7210 O.3     1  UNL1       -0.2162
     26 C         -26.3540    0.5760   25.7770 C.3     1  UNL1        0.2442
     27 F         -25.8600   -0.6810   25.7950 F       1  UNL1       -0.2265
     28 C         -25.5239    0.4033   28.5676 C.ar    1  UNL1        0.2035
     29 C         -22.3230    1.5681   27.2174 C.2     1  UNL1        0.2868
     30 C         -31.0360    1.9418   30.0953 C.2     1  UNL1        0.0155
     31 N         -30.0714    0.5452   28.4611 N.pl3   1  UNL1       -0.2992
     32 C         -23.5944    0.9851   27.9232 C.ar    1  UNL1        0.0907
     33 C         -31.3106    0.0127   28.1030 C.3     1  UNL1        0.1176
     34 N         -24.6188   -0.1625   29.3126 N.ar    1  UNL1       -0.2819
     35 O         -26.8485    0.3563   28.8041 O.3     1  UNL1       -0.4597
     36 C         -27.9245   -0.6411   28.8262 C.3     1  UNL1        0.2284
     37 N         -22.3483   -0.0446   29.8280 N.pl3   1  UNL1       -0.1087
     38 C         -32.2784    1.3432   29.8064 C.2     1  UNL1       -0.0016
     39 O         -22.6908    2.0411   26.0092 O.2     1  UNL1       -0.2666
     40 C         -32.4198    0.2597   28.9206 C.2     1  UNL1       -0.0047
     41 C         -29.8881    1.3278   29.6011 C.2     1  UNL1        0.0617
     42 N         -21.1420    1.5177   27.6733 N.am    1  UNL1       -0.0836
     43 C         -24.9039    1.0791   27.5744 C.ar    1  UNL1        0.0437
     44 C         -23.3532    0.2113   29.0802 C.ar    1  UNL1        0.1579
     45 C         -29.0007   -0.2076   27.8380 C.3     1  UNL1        0.1388
@<TRIPOS>BOND
     1     1     2    1
     2     2     7    1
     3     3     2    2
     4     4     3    1
     5     4     5    2
     6     5     6    1
     7     6     7    2
     8     8     1    1
     9     8     9    1
    10     8    12    1
    11     9    10    1
    12    10    11    1
    13    12    11    1
    14    13    43    1
    15    14    13    1
    16    14    15    1
    17    15    18    2
    18    16    17    1
    19    16    15    1
    20    19    14    2
    21    20    21    2
    22    20    19    1
    23    21    26    1
    24    22    21    1
    25    23    22    1
    26    24    23    1
    27    24    25    1
    28    26    27    1
    29    26    13    1
    30    28    35    1
    31    28    34   ar
    32    29    42    1
    33    29    32    1
    34    31    41    1
    35    32    44   ar
    36    33    31    1
    37    33    40    1
    38    34     1    1
    39    35    36    1
    40    38    30    1
    41    39    29    2
    42    40    38    2
    43    41    30    2
    44    43    32   ar
    45    43    28   ar
    46    44    34   ar
    47    44    37    1
    48    45    31    1
    49    45    36    1
