@<TRIPOS>MOLECULE
outputs/IAG933/test6/raw/output_8557_IAG933_linker_design_.xyz
 42 47 0 0 0
SMALL
GASTEIGER

@<TRIPOS>ATOM
      1 C         -24.8550   -1.0120   30.1430 C.3     1  UNL1        0.1193
      2 C         -24.9730   -2.5050   29.7880 C.2     1  UNL1       -0.0026
      3 C         -23.9060   -3.1730   29.1460 C.2     1  UNL1       -0.0026
      4 C         -23.9890   -4.5490   28.8530 C.2     1  UNL1       -0.0003
      5 C         -25.1370   -5.2800   29.2050 C.2     1  UNL1       -0.0000
      6 C         -26.2320   -4.6110   29.7840 C.2     1  UNL1       -0.0003
      7 C         -26.1550   -3.2320   30.0650 C.2     1  UNL1       -0.0026
      8 C         -25.3870   -0.6790   31.5710 C.3     1  UNL1        0.0955
      9 C         -25.1890    0.7730   32.0280 C.3     1  UNL1        0.0209
     10 C         -25.3360    0.6840   33.5440 C.3     1  UNL1        0.0203
     11 C         -24.8290   -0.7150   33.9050 C.3     1  UNL1        0.0888
     12 N         -24.7580   -1.4810   32.6460 N.3     1  UNL1       -0.2174
     13 C         -25.6880    1.6140   26.4610 C.2     1  UNL1        0.0940
     14 C         -26.2500    2.9200   26.3950 C.2     1  UNL1        0.0903
     15 C         -25.6420    4.0930   27.1230 C.2     1  UNL1        0.2676
     16 N         -25.6140    5.2520   26.4490 N.am    1  UNL1       -0.1997
     17 C         -25.0260    6.4790   26.9630 C.3     1  UNL1        0.1388
     18 O         -25.1430    3.9660   28.2430 O.2     1  UNL1       -0.2683
     19 C         -27.4380    3.0910   25.6450 C.2     1  UNL1        0.1080
     20 N         -28.0750    2.0890   25.0030 N.2     1  UNL1       -0.2080
     21 C         -27.5430    0.8490   25.0790 C.2     1  UNL1        0.2546
     22 O         -28.1930   -0.2080   24.4770 O.2     1  UNL1       -0.4558
     23 C         -29.4600    0.0050   23.8660 C.3     1  UNL1        0.2426
     24 C         -30.0650   -1.3770   23.5730 C.3     1  UNL1        0.2292
     25 O         -30.7290   -1.8780   24.7210 O.3     1  UNL1       -0.2162
     26 C         -26.3540    0.5760   25.7770 C.2     1  UNL1        0.2067
     27 F         -25.8600   -0.6810   25.7950 F       1  UNL1       -0.1979
     28 C         -25.1509    0.4658   28.4690 C.2     1  UNL1        0.3154
     29 C         -20.4487    1.6535   27.3842 C.3     1  UNL1        0.3605
     30 O         -23.2185    2.6928   25.4881 O.2     1  UNL1       -0.2478
     31 N         -24.3006    0.1795   29.4785 N.am    1  UNL1       -0.2409
     32 C         -21.9119   -0.6882   29.8460 C.3     1  UNL1        0.1834
     33 O         -26.3298    0.0302   28.4562 O.2     1  UNL1       -0.2516
     34 O         -20.6960   -0.4163   29.1706 O.3     1  UNL1       -0.3392
     35 N         -24.6514    1.1472   27.3749 N.am    1  UNL1       -0.2280
     36 F         -19.3832    2.2495   27.7091 F       1  UNL1       -0.1853
     37 C         -22.5266    2.0361   26.3073 C.2     1  UNL1        0.3418
     38 O         -21.1495    2.0917   26.3337 O.3     1  UNL1       -0.4166
     39 C         -22.8857    0.0685   29.2629 C.2     1  UNL1        0.0593
     40 C         -22.3732    0.7003   28.2319 C.2     1  UNL1        0.0300
     41 C         -23.2800    1.2971   27.2371 C.3     1  UNL1        0.2022
     42 C         -20.9789    0.5852   28.2170 C.3     1  UNL1        0.2118
@<TRIPOS>BOND
     1     1     2    1
     2     2     7    1
     3     3     2    2
     4     4     3    1
     5     4     5    2
     6     5     6    1
     7     6     7    2
     8     8     1    1
     9     8     9    1
    10     8    12    1
    11     9    10    1
    12    10    11    1
    13    12    11    1
    14    13    35    1
    15    14    13    1
    16    14    15    1
    17    15    18    2
    18    16    17    1
    19    16    15    1
    20    19    14    2
    21    20    21    2
    22    20    19    1
    23    21    26    1
    24    22    21    1
    25    23    22    1
    26    24    23    1
    27    24    25    1
    28    26    27    1
    29    26    13    2
    30    28    31   am
    31    29    36    1
    32    29    42    1
    33    30    37    2
    34    31     1    1
    35    33    28    2
    36    34    32    1
    37    35    28   am
    38    37    38    1
    39    38    29    1
    40    39    31    1
    41    39    32    1
    42    40    39    2
    43    41    37    1
    44    41    35    1
    45    41    40    1
    46    42    40    1
    47    42    34    1
