@<TRIPOS>MOLECULE
outputs/IAG933/test6/raw/output_8561_IAG933_linker_design_.xyz
 45 48 0 0 0
SMALL
GASTEIGER

@<TRIPOS>ATOM
      1 C         -24.8550   -1.0120   30.1430 C.3     1  UNL1        0.0383
      2 C         -24.9730   -2.5050   29.7880 C.2     1  UNL1       -0.0212
      3 C         -23.9060   -3.1730   29.1460 C.2     1  UNL1       -0.0042
      4 C         -23.9890   -4.5490   28.8530 C.2     1  UNL1       -0.0003
      5 C         -25.1370   -5.2800   29.2050 C.2     1  UNL1       -0.0000
      6 C         -26.2320   -4.6110   29.7840 C.2     1  UNL1       -0.0003
      7 C         -26.1550   -3.2320   30.0650 C.2     1  UNL1       -0.0042
      8 C         -25.3870   -0.6790   31.5710 C.3     1  UNL1        0.0768
      9 C         -25.1890    0.7730   32.0280 C.3     1  UNL1        0.0192
     10 C         -25.3360    0.6840   33.5440 C.3     1  UNL1        0.0202
     11 C         -24.8290   -0.7150   33.9050 C.3     1  UNL1        0.0887
     12 N         -24.7580   -1.4810   32.6460 N.3     1  UNL1       -0.2191
     13 C         -25.6880    1.6140   26.4610 C.3     1  UNL1        0.0702
     14 C         -26.2500    2.9200   26.3950 C.2     1  UNL1        0.0548
     15 C         -25.6420    4.0930   27.1230 C.2     1  UNL1        0.2624
     16 N         -25.6140    5.2520   26.4490 N.am    1  UNL1       -0.2000
     17 C         -25.0260    6.4790   26.9630 C.3     1  UNL1        0.1388
     18 O         -25.1430    3.9660   28.2430 O.2     1  UNL1       -0.2687
     19 C         -27.4380    3.0910   25.6450 C.2     1  UNL1        0.1021
     20 N         -28.0750    2.0890   25.0030 N.2     1  UNL1       -0.2119
     21 C         -27.5430    0.8490   25.0790 C.2     1  UNL1        0.2341
     22 O         -28.1930   -0.2080   24.4770 O.2     1  UNL1       -0.4585
     23 C         -29.4600    0.0050   23.8660 C.3     1  UNL1        0.2423
     24 C         -30.0650   -1.3770   23.5730 C.3     1  UNL1        0.2292
     25 O         -30.7290   -1.8780   24.7210 O.3     1  UNL1       -0.2162
     26 C         -26.3540    0.5760   25.7770 C.3     1  UNL1        0.2400
     27 F         -25.8600   -0.6810   25.7950 F       1  UNL1       -0.2269
     28 C         -28.6460    0.5036   28.8031 C.3     1  UNL1        0.1422
     29 C         -31.6892    1.9538   26.2261 C.3     1  UNL1        0.1035
     30 O         -29.1992   -0.2420   27.6948 O.3     1  UNL1       -0.3537
     31 C         -23.4118    0.2799   28.6838 C.3     1  UNL1        0.0004
     32 C         -26.3591    0.0084   28.4071 C.3     1  UNL1        0.0029
     33 C         -30.6015    0.0211   27.4798 C.3     1  UNL1        0.1436
     34 C         -21.7668    1.6428   27.6824 C.3     1  UNL1        0.0000
     35 C         -23.4395    2.1062   25.4444 C.3     1  UNL1        0.0004
     36 C         -24.9867    0.1442   29.1526 C.3     1  UNL1        0.0055
     37 C         -30.6642    1.4815   27.1658 C.3     1  UNL1        0.0495
     38 C         -24.1874    1.5296   26.6417 C.3     1  UNL1        0.0074
     39 C         -32.7467    5.1785   26.4106 C.3     1  UNL1        0.2007
     40 C         -23.3126    1.5177   27.9338 C.3     1  UNL1        0.0004
     41 O         -31.8806    4.2568   25.8849 O.3     1  UNL1       -0.2795
     42 C         -31.6119    3.3790   28.0679 C.3     1  UNL1        0.1011
     43 C         -30.7107    2.3807   28.4189 C.3     1  UNL1        0.0238
     44 C         -27.5912   -0.4398   29.1963 C.3     1  UNL1        0.0321
     45 N         -31.8034    3.2674   26.6811 N.3     1  UNL1       -0.1657
@<TRIPOS>BOND
     1     1    36    1
     2     2     7    1
     3     2     1    1
     4     3     2    2
     5     4     3    1
     6     4     5    2
     7     5     6    1
     8     6     7    2
     9     8     1    1
    10     8     9    1
    11     8    12    1
    12     9    10    1
    13    10    11    1
    14    12    11    1
    15    13    38    1
    16    14    13    1
    17    14    15    1
    18    15    18    2
    19    16    17    1
    20    16    15    1
    21    19    14    2
    22    20    21    2
    23    20    19    1
    24    21    26    1
    25    22    21    1
    26    23    22    1
    27    24    23    1
    28    24    25    1
    29    26    27    1
    30    26    13    1
    31    28    44    1
    32    29    45    1
    33    29    37    1
    34    30    28    1
    35    31    36    1
    36    32    44    1
    37    33    30    1
    38    36    32    1
    39    37    33    1
    40    37    43    1
    41    38    35    1
    42    38    40    1
    43    40    34    1
    44    40    31    1
    45    41    39    1
    46    41    45    1
    47    42    43    1
    48    45    42    1
