@<TRIPOS>MOLECULE
outputs/IAG933/test6/raw/output_8562_IAG933_linker_design_.xyz
 39 43 0 0 0
SMALL
GASTEIGER

@<TRIPOS>ATOM
      1 C         -24.8550   -1.0120   30.1430 C.3     1  UNL1        0.2156
      2 C         -24.9730   -2.5050   29.7880 C.2     1  UNL1        0.0178
      3 C         -23.9060   -3.1730   29.1460 C.2     1  UNL1       -0.0009
      4 C         -23.9890   -4.5490   28.8530 C.2     1  UNL1       -0.0002
      5 C         -25.1370   -5.2800   29.2050 C.2     1  UNL1       -0.0000
      6 C         -26.2320   -4.6110   29.7840 C.2     1  UNL1       -0.0002
      7 C         -26.1550   -3.2320   30.0650 C.2     1  UNL1       -0.0009
      8 C         -25.3870   -0.6790   31.5710 C.3     1  UNL1        0.1162
      9 C         -25.1890    0.7730   32.0280 C.3     1  UNL1        0.0228
     10 C         -25.3360    0.6840   33.5440 C.3     1  UNL1        0.0204
     11 C         -24.8290   -0.7150   33.9050 C.3     1  UNL1        0.0888
     12 N         -24.7580   -1.4810   32.6460 N.3     1  UNL1       -0.2156
     13 C         -25.6880    1.6140   26.4610 C.3     1  UNL1        0.2167
     14 C         -26.2500    2.9200   26.3950 C.2     1  UNL1        0.0913
     15 C         -25.6420    4.0930   27.1230 C.2     1  UNL1        0.2656
     16 N         -25.6140    5.2520   26.4490 N.am    1  UNL1       -0.1999
     17 C         -25.0260    6.4790   26.9630 C.3     1  UNL1        0.1388
     18 O         -25.1430    3.9660   28.2430 O.2     1  UNL1       -0.2685
     19 C         -27.4380    3.0910   25.6450 C.2     1  UNL1        0.1054
     20 N         -28.0750    2.0890   25.0030 N.2     1  UNL1       -0.2116
     21 C         -27.5430    0.8490   25.0790 C.2     1  UNL1        0.2377
     22 O         -28.1930   -0.2080   24.4770 O.2     1  UNL1       -0.4584
     23 C         -29.4600    0.0050   23.8660 C.3     1  UNL1        0.2423
     24 C         -30.0650   -1.3770   23.5730 C.3     1  UNL1        0.2292
     25 O         -30.7290   -1.8780   24.7210 O.3     1  UNL1       -0.2162
     26 C         -26.3540    0.5760   25.7770 C.3     1  UNL1        0.2764
     27 F         -25.8600   -0.6810   25.7950 F       1  UNL1       -0.2232
     28 C         -23.5498    1.4741   27.5406 C.2     1  UNL1        0.1313
     29 C         -22.7126    1.9868   26.5205 C.2     1  UNL1        0.0317
     30 C         -20.9351    1.3484   27.8199 C.3     1  UNL1        0.1177
     31 C         -21.3975    1.9516   26.7319 C.2     1  UNL1       -0.0018
     32 C         -25.4657    0.9548   28.6814 C.2     1  UNL1        0.4654
     33 C         -22.6004    0.2638   29.6567 C.3     1  UNL1        0.1355
     34 N         -25.7468    1.9581   29.4000 N.pl3   1  UNL1        0.1282
     35 O         -26.6830   -0.8713   28.5677 O.3     1  UNL1       -0.0119
     36 C         -22.8647    0.9864   28.7315 C.2     1  UNL1        0.0769
     37 N         -21.8890    0.7047   28.8831 N.pl3   1  UNL1       -0.2983
     38 N         -25.6656   -0.2695   29.1483 N.3     1  UNL1       -0.0694
     39 N         -24.8531    1.2486   27.5485 N.pl3   1  UNL1       -0.2047
@<TRIPOS>BOND
     1     1    38    1
     2     2     7    1
     3     2     1    1
     4     3     2    2
     5     4     3    1
     6     4     5    2
     7     5     6    1
     8     6     7    2
     9     8     1    1
    10     8     9    1
    11     8    12    1
    12     9    10    1
    13    10    11    1
    14    12    11    1
    15    13    39    1
    16    14    13    1
    17    14    15    1
    18    15    18    2
    19    16    17    1
    20    16    15    1
    21    19    14    2
    22    20    21    2
    23    20    19    1
    24    21    26    1
    25    22    21    1
    26    23    22    1
    27    24    23    1
    28    24    25    1
    29    26    27    1
    30    26    13    1
    31    28    39    1
    32    28    36    2
    33    29    31    2
    34    29    28    1
    35    30    37    1
    36    31    30    1
    37    32    38    1
    38    32    34    2
    39    35    38    1
    40    36    37    1
    41    36    33    1
    42    37    33    1
    43    39    32    1
