@<TRIPOS>MOLECULE
outputs/IAG933/test6/raw/output_8563_IAG933_linker_design_.xyz
 44 48 0 0 0
SMALL
GASTEIGER

@<TRIPOS>ATOM
      1 C         -24.8550   -1.0120   30.1430 C.3     1  UNL1        0.1196
      2 C         -24.9730   -2.5050   29.7880 C.2     1  UNL1       -0.0025
      3 C         -23.9060   -3.1730   29.1460 C.2     1  UNL1       -0.0026
      4 C         -23.9890   -4.5490   28.8530 C.2     1  UNL1       -0.0003
      5 C         -25.1370   -5.2800   29.2050 C.2     1  UNL1       -0.0000
      6 C         -26.2320   -4.6110   29.7840 C.2     1  UNL1       -0.0003
      7 C         -26.1550   -3.2320   30.0650 C.2     1  UNL1       -0.0026
      8 C         -25.3870   -0.6790   31.5710 C.3     1  UNL1        0.0955
      9 C         -25.1890    0.7730   32.0280 C.3     1  UNL1        0.0209
     10 C         -25.3360    0.6840   33.5440 C.3     1  UNL1        0.0203
     11 C         -24.8290   -0.7150   33.9050 C.3     1  UNL1        0.0888
     12 N         -24.7580   -1.4810   32.6460 N.3     1  UNL1       -0.2174
     13 C         -25.6880    1.6140   26.4610 C.2     1  UNL1        0.0402
     14 C         -26.2500    2.9200   26.3950 C.2     1  UNL1        0.0766
     15 C         -25.6420    4.0930   27.1230 C.2     1  UNL1        0.2664
     16 N         -25.6140    5.2520   26.4490 N.am    1  UNL1       -0.1997
     17 C         -25.0260    6.4790   26.9630 C.3     1  UNL1        0.1388
     18 O         -25.1430    3.9660   28.2430 O.2     1  UNL1       -0.2683
     19 C         -27.4380    3.0910   25.6450 C.2     1  UNL1        0.1067
     20 N         -28.0750    2.0890   25.0030 N.2     1  UNL1       -0.2081
     21 C         -27.5430    0.8490   25.0790 C.2     1  UNL1        0.2533
     22 O         -28.1930   -0.2080   24.4770 O.2     1  UNL1       -0.4558
     23 C         -29.4600    0.0050   23.8660 C.3     1  UNL1        0.2426
     24 C         -30.0650   -1.3770   23.5730 C.3     1  UNL1        0.2292
     25 O         -30.7290   -1.8780   24.7210 O.3     1  UNL1       -0.2162
     26 C         -26.3540    0.5760   25.7770 C.2     1  UNL1        0.1931
     27 F         -25.8600   -0.6810   25.7950 F       1  UNL1       -0.1992
     28 C         -29.4722    2.1294   29.7274 C.3     1  UNL1        0.1638
     29 C         -22.8151    0.7435   28.8505 C.2     1  UNL1        0.1538
     30 C         -21.9209    1.8798   26.9067 C.2     1  UNL1        0.0138
     31 C         -27.9234    2.1753   29.6780 C.3     1  UNL1        0.1289
     32 N         -25.2643    0.0020   29.1719 N.am    1  UNL1       -0.2360
     33 C         -24.2508    0.7379   28.4127 C.2     1  UNL1        0.0839
     34 N         -27.3660    0.8097   29.8414 N.am    1  UNL1       -0.1873
     35 C         -26.6720    0.0738   28.9856 C.2     1  UNL1        0.3273
     36 C         -27.6952    3.1818   30.8503 C.3     1  UNL1        0.0563
     37 C         -28.7971    2.8441   31.8789 C.3     1  UNL1        0.1441
     38 O         -29.8202    2.1330   31.1308 O.3     1  UNL1       -0.3519
     39 C         -21.7529    1.2500   28.1343 C.2     1  UNL1        0.0318
     40 F         -22.4101    0.1589   29.9405 F       1  UNL1       -0.2029
     41 C         -23.2199    1.9384   26.4139 C.2     1  UNL1        0.0591
     42 CL        -23.2533    2.7316   24.9496 Cl      1  UNL1       -0.0822
     43 O         -27.1359   -0.7110   28.1782 O.2     1  UNL1       -0.2504
     44 C         -24.3616    1.3945   27.1067 C.2     1  UNL1        0.0290
@<TRIPOS>BOND
     1     1    32    1
     2     2     7    1
     3     2     1    1
     4     3     2    2
     5     4     3    1
     6     4     5    2
     7     5     6    1
     8     6     7    2
     9     8     1    1
    10     8     9    1
    11     8    12    1
    12     9    10    1
    13    10    11    1
    14    12    11    1
    15    13    44    1
    16    14    13    1
    17    14    15    1
    18    15    18    2
    19    16    17    1
    20    16    15    1
    21    19    14    2
    22    20    21    2
    23    20    19    1
    24    21    26    1
    25    22    21    1
    26    23    22    1
    27    24    23    1
    28    24    25    1
    29    26    27    1
    30    26    13    2
    31    28    38    1
    32    29    40    1
    33    30    39    1
    34    31    28    1
    35    31    34    1
    36    31    36    1
    37    33    29    1
    38    33    32    1
    39    35    32   am
    40    35    34    1
    41    36    37    1
    42    38    37    1
    43    39    29    2
    44    41    30    2
    45    41    44    1
    46    42    41    1
    47    43    35    2
    48    44    33    2
