@<TRIPOS>MOLECULE
outputs/IAG933/test6/raw/output_8566_IAG933_linker_design_.xyz
 45 49 0 0 0
SMALL
GASTEIGER

@<TRIPOS>ATOM
      1 C         -24.8550   -1.0120   30.1430 C.3     1  UNL1        0.0438
      2 C         -24.9730   -2.5050   29.7880 C.2     1  UNL1       -0.0208
      3 C         -23.9060   -3.1730   29.1460 C.2     1  UNL1       -0.0042
      4 C         -23.9890   -4.5490   28.8530 C.2     1  UNL1       -0.0003
      5 C         -25.1370   -5.2800   29.2050 C.2     1  UNL1       -0.0000
      6 C         -26.2320   -4.6110   29.7840 C.2     1  UNL1       -0.0003
      7 C         -26.1550   -3.2320   30.0650 C.2     1  UNL1       -0.0042
      8 C         -25.3870   -0.6790   31.5710 C.3     1  UNL1        0.0793
      9 C         -25.1890    0.7730   32.0280 C.3     1  UNL1        0.0431
     10 C         -25.3360    0.6840   33.5440 C.3     1  UNL1        0.0224
     11 C         -24.8290   -0.7150   33.9050 C.3     1  UNL1        0.0888
     12 N         -24.7580   -1.4810   32.6460 N.3     1  UNL1       -0.2190
     13 C         -25.6880    1.6140   26.4610 C.3     1  UNL1        0.0949
     14 C         -26.2500    2.9200   26.3950 C.2     1  UNL1        0.0590
     15 C         -25.6420    4.0930   27.1230 C.2     1  UNL1        0.2628
     16 N         -25.6140    5.2520   26.4490 N.am    1  UNL1       -0.2000
     17 C         -25.0260    6.4790   26.9630 C.3     1  UNL1        0.1388
     18 O         -25.1430    3.9660   28.2430 O.2     1  UNL1       -0.2686
     19 C         -27.4380    3.0910   25.6450 C.2     1  UNL1        0.1025
     20 N         -28.0750    2.0890   25.0030 N.2     1  UNL1       -0.2118
     21 C         -27.5430    0.8490   25.0790 C.2     1  UNL1        0.2344
     22 O         -28.1930   -0.2080   24.4770 O.2     1  UNL1       -0.4585
     23 C         -29.4600    0.0050   23.8660 C.3     1  UNL1        0.2423
     24 C         -30.0650   -1.3770   23.5730 C.3     1  UNL1        0.2292
     25 O         -30.7290   -1.8780   24.7210 O.3     1  UNL1       -0.2162
     26 C         -26.3540    0.5760   25.7770 C.3     1  UNL1        0.2441
     27 F         -25.8600   -0.6810   25.7950 F       1  UNL1       -0.2265
     28 C         -22.1952    1.7591   26.2937 C.2     1  UNL1        0.1817
     29 F         -23.7338    0.9305   24.5789 F       1  UNL1       -0.2024
     30 S         -26.3458    4.4991   33.1313 S.O2    1  UNL1       -0.0072
     31 S         -23.5613    1.4190   29.8644 S.3     1  UNL1       -0.0995
     32 C         -26.5945    3.4937   30.7105 C.3     1  UNL1        0.0983
     33 C         -26.8887    4.7915   31.4598 C.3     1  UNL1        0.1681
     34 F         -21.2232    2.0879   25.4613 F       1  UNL1       -0.2033
     35 C         -23.4006    1.3458   25.8794 C.2     1  UNL1        0.1630
     36 N         -25.3466    2.8855   31.0091 N.3     1  UNL1       -0.2619
     37 O         -26.8941    3.2103   33.4171 O.2     1  UNL1       -0.1729
     38 C         -25.0109    1.6677   30.8073 C.3     1  UNL1        0.1114
     39 F         -20.7810    2.0578   28.0863 F       1  UNL1       -0.2244
     40 C         -24.2962    3.4682   31.8571 C.3     1  UNL1        0.0983
     41 C         -24.2735    1.4863   26.8702 C.2     1  UNL1        0.0191
     42 O         -26.6315    5.5284   34.1393 O.2     1  UNL1       -0.1729
     43 C         -24.6608    4.5645   32.8334 C.3     1  UNL1        0.1681
     44 C         -23.2780    1.6727   28.1517 C.2     1  UNL1        0.0416
     45 C         -22.0640    1.9023   27.6373 C.3     1  UNL1        0.2402
@<TRIPOS>BOND
     1     2     7    1
     2     2     1    1
     3     3     2    2
     4     4     3    1
     5     4     5    2
     6     5     6    1
     7     6     7    2
     8     8     1    1
     9     8     9    1
    10     8    12    1
    11     9    38    1
    12     9    10    1
    13    10    11    1
    14    12    11    1
    15    13    41    1
    16    14    13    1
    17    14    15    1
    18    15    18    2
    19    16    17    1
    20    16    15    1
    21    19    14    2
    22    20    21    2
    23    20    19    1
    24    21    26    1
    25    22    21    1
    26    23    22    1
    27    24    23    1
    28    24    25    1
    29    26    27    1
    30    26    13    1
    31    28    45    1
    32    29    35    1
    33    30    37    2
    34    30    42    2
    35    32    36    1
    36    32    33    1
    37    33    30    1
    38    34    28    1
    39    35    28    2
    40    35    41    1
    41    36    40    1
    42    38    31    1
    43    38    36    1
    44    40    43    1
    45    41    44    2
    46    43    30    1
    47    44    31    1
    48    45    39    1
    49    45    44    1
