@<TRIPOS>MOLECULE
outputs/IAG933/test6/raw/output_8569_IAG933_linker_design_.xyz
 42 45 0 0 0
SMALL
GASTEIGER

@<TRIPOS>ATOM
      1 C         -24.8550   -1.0120   30.1430 C.3     1  UNL1        0.0584
      2 C         -24.9730   -2.5050   29.7880 C.2     1  UNL1       -0.0195
      3 C         -23.9060   -3.1730   29.1460 C.2     1  UNL1       -0.0042
      4 C         -23.9890   -4.5490   28.8530 C.2     1  UNL1       -0.0003
      5 C         -25.1370   -5.2800   29.2050 C.2     1  UNL1       -0.0000
      6 C         -26.2320   -4.6110   29.7840 C.2     1  UNL1       -0.0003
      7 C         -26.1550   -3.2320   30.0650 C.2     1  UNL1       -0.0042
      8 C         -25.3870   -0.6790   31.5710 C.3     1  UNL1        0.0785
      9 C         -25.1890    0.7730   32.0280 C.3     1  UNL1        0.0192
     10 C         -25.3360    0.6840   33.5440 C.3     1  UNL1        0.0202
     11 C         -24.8290   -0.7150   33.9050 C.3     1  UNL1        0.0887
     12 N         -24.7580   -1.4810   32.6460 N.3     1  UNL1       -0.2191
     13 C         -25.6880    1.6140   26.4610 C.3     1  UNL1        0.0703
     14 C         -26.2500    2.9200   26.3950 C.2     1  UNL1        0.0548
     15 C         -25.6420    4.0930   27.1230 C.2     1  UNL1        0.2624
     16 N         -25.6140    5.2520   26.4490 N.am    1  UNL1       -0.2000
     17 C         -25.0260    6.4790   26.9630 C.3     1  UNL1        0.1388
     18 O         -25.1430    3.9660   28.2430 O.2     1  UNL1       -0.2687
     19 C         -27.4380    3.0910   25.6450 C.2     1  UNL1        0.1021
     20 N         -28.0750    2.0890   25.0030 N.2     1  UNL1       -0.2119
     21 C         -27.5430    0.8490   25.0790 C.2     1  UNL1        0.2341
     22 O         -28.1930   -0.2080   24.4770 O.2     1  UNL1       -0.4585
     23 C         -29.4600    0.0050   23.8660 C.3     1  UNL1        0.2423
     24 C         -30.0650   -1.3770   23.5730 C.3     1  UNL1        0.2292
     25 O         -30.7290   -1.8780   24.7210 O.3     1  UNL1       -0.2162
     26 C         -26.3540    0.5760   25.7770 C.3     1  UNL1        0.2400
     27 F         -25.8600   -0.6810   25.7950 F       1  UNL1       -0.2269
     28 C         -28.5908    3.3688   28.7186 C.3     1  UNL1        0.0216
     29 C         -24.0224    0.4200   27.8725 C.3     1  UNL1        0.0513
     30 C         -28.5324    1.6648   31.0976 C.3     1  UNL1        0.0950
     31 C         -22.6595    0.9235   28.5647 C.3     1  UNL1        0.1537
     32 C         -24.2658    1.4950   26.8105 C.3     1  UNL1        0.0121
     33 C         -28.9711    1.9174   28.6066 C.3     1  UNL1        0.0950
     34 O         -22.3142   -0.0151   29.4761 O.3     1  UNL1       -0.2231
     35 O         -27.7448   -0.8694   29.1083 O.2     1  UNL1       -0.2508
     36 N         -26.2163    0.8299   29.2886 N.am    1  UNL1       -0.1897
     37 N         -28.4972    1.1534   29.7202 N.am    1  UNL1       -0.2629
     38 C         -25.0312   -0.0230   28.9868 C.3     1  UNL1        0.1046
     39 C         -28.7495    3.9277   30.1305 C.3     1  UNL1        0.0035
     40 C         -21.7354    1.5771   27.5940 C.3     1  UNL1        0.0355
     41 C         -27.5267    0.2654   29.3974 C.2     1  UNL1        0.3232
     42 C         -27.9867    3.0728   31.1109 C.3     1  UNL1        0.0216
@<TRIPOS>BOND
     1     1    38    1
     2     2     7    1
     3     2     1    1
     4     3     2    2
     5     4     3    1
     6     4     5    2
     7     5     6    1
     8     6     7    2
     9     8     1    1
    10     8     9    1
    11     8    12    1
    12     9    10    1
    13    10    11    1
    14    12    11    1
    15    13    32    1
    16    14    13    1
    17    14    15    1
    18    15    18    2
    19    16    17    1
    20    16    15    1
    21    19    14    2
    22    20    21    2
    23    20    19    1
    24    21    26    1
    25    22    21    1
    26    23    22    1
    27    24    23    1
    28    24    25    1
    29    26    27    1
    30    26    13    1
    31    28    39    1
    32    29    32    1
    33    29    31    1
    34    29    38    1
    35    30    42    1
    36    31    40    1
    37    31    34    1
    38    33    28    1
    39    33    37    1
    40    35    41    2
    41    36    41    1
    42    37    30    1
    43    38    36    1
    44    39    42    1
    45    41    37   am
