@<TRIPOS>MOLECULE
outputs/IAG933/test6/raw/output_8572_IAG933_linker_design_.xyz
 44 47 0 0 0
SMALL
GASTEIGER

@<TRIPOS>ATOM
      1 C         -24.8550   -1.0120   30.1430 C.3     1  UNL1        0.1126
      2 C         -24.9730   -2.5050   29.7880 C.2     1  UNL1       -0.0030
      3 C         -23.9060   -3.1730   29.1460 C.2     1  UNL1       -0.0026
      4 C         -23.9890   -4.5490   28.8530 C.2     1  UNL1       -0.0003
      5 C         -25.1370   -5.2800   29.2050 C.2     1  UNL1       -0.0000
      6 C         -26.2320   -4.6110   29.7840 C.2     1  UNL1       -0.0003
      7 C         -26.1550   -3.2320   30.0650 C.2     1  UNL1       -0.0026
      8 C         -25.3870   -0.6790   31.5710 C.3     1  UNL1        0.0951
      9 C         -25.1890    0.7730   32.0280 C.3     1  UNL1        0.0209
     10 C         -25.3360    0.6840   33.5440 C.3     1  UNL1        0.0203
     11 C         -24.8290   -0.7150   33.9050 C.3     1  UNL1        0.0888
     12 N         -24.7580   -1.4810   32.6460 N.3     1  UNL1       -0.2174
     13 C         -25.6880    1.6140   26.4610 C.2     1  UNL1        0.1051
     14 C         -26.2500    2.9200   26.3950 C.2     1  UNL1        0.0927
     15 C         -25.6420    4.0930   27.1230 C.2     1  UNL1        0.2678
     16 N         -25.6140    5.2520   26.4490 N.am    1  UNL1       -0.1997
     17 C         -25.0260    6.4790   26.9630 C.3     1  UNL1        0.1388
     18 O         -25.1430    3.9660   28.2430 O.2     1  UNL1       -0.2683
     19 C         -27.4380    3.0910   25.6450 C.2     1  UNL1        0.1082
     20 N         -28.0750    2.0890   25.0030 N.2     1  UNL1       -0.2080
     21 C         -27.5430    0.8490   25.0790 C.2     1  UNL1        0.2548
     22 O         -28.1930   -0.2080   24.4770 O.2     1  UNL1       -0.4558
     23 C         -29.4600    0.0050   23.8660 C.3     1  UNL1        0.2426
     24 C         -30.0650   -1.3770   23.5730 C.3     1  UNL1        0.2292
     25 O         -30.7290   -1.8780   24.7210 O.3     1  UNL1       -0.2162
     26 C         -26.3540    0.5760   25.7770 C.2     1  UNL1        0.2091
     27 F         -25.8600   -0.6810   25.7950 F       1  UNL1       -0.1977
     28 C         -30.5664    2.2596   31.2106 C.3     1  UNL1        0.0336
     29 C         -22.5295    1.1380   27.9469 C.ar    1  UNL1        0.0422
     30 F         -23.1330    2.3386   25.8987 F       1  UNL1       -0.1849
     31 C         -21.0760    1.4473   27.7676 C.3     1  UNL1        0.0365
     32 C         -29.1721    2.1874   30.6155 C.3     1  UNL1        0.1423
     33 N         -22.9084    0.4709   30.1883 N.pl3   1  UNL1       -0.1254
     34 C         -28.1134    0.5697   29.2692 C.3     1  UNL1        0.1635
     35 C         -27.1472   -0.3551   29.1643 C.3     1  UNL1        0.1244
     36 O         -29.1832    1.2743   29.5266 O.3     1  UNL1       -0.3520
     37 N         -24.6977    1.2767   27.3336 N.ar    1  UNL1       -0.2686
     38 N         -33.3713    2.8321   29.1117 N.3     1  UNL1       -0.1314
     39 N         -25.6594   -0.2595   29.1008 N.pl3   1  UNL1       -0.2871
     40 C         -23.3566    0.6455   28.9636 C.ar    1  UNL1        0.1189
     41 C         -24.7042    0.5736   28.4856 C.ar    1  UNL1        0.1351
     42 C         -23.4151    1.5968   26.9711 C.ar    1  UNL1        0.2060
     43 C         -31.3270    3.1582   30.2363 C.3     1  UNL1        0.0231
     44 C         -32.8016    2.8947   30.4540 C.3     1  UNL1        0.1094
@<TRIPOS>BOND
     1     1    39    1
     2     2     7    1
     3     2     1    1
     4     3     2    2
     5     4     3    1
     6     4     5    2
     7     5     6    1
     8     6     7    2
     9     8     1    1
    10     8     9    1
    11     8    12    1
    12     9    10    1
    13    10    11    1
    14    12    11    1
    15    13    37    1
    16    14    13    1
    17    14    15    1
    18    15    18    2
    19    16    17    1
    20    16    15    1
    21    19    14    2
    22    20    21    2
    23    20    19    1
    24    21    26    1
    25    22    21    1
    26    23    22    1
    27    24    23    1
    28    24    25    1
    29    26    27    1
    30    26    13    2
    31    29    40   ar
    32    30    42    1
    33    31    29    1
    34    32    28    1
    35    34    36    1
    36    35    34    1
    37    36    32    1
    38    37    41   ar
    39    38    44    1
    40    39    35    1
    41    40    33    1
    42    41    40   ar
    43    41    39    1
    44    42    37   ar
    45    42    29   ar
    46    43    44    1
    47    43    28    1
