@<TRIPOS>MOLECULE
outputs/IAG933/test6/raw/output_8574_IAG933_linker_design_.xyz
 44 47 0 0 0
SMALL
GASTEIGER

@<TRIPOS>ATOM
      1 C         -24.8550   -1.0120   30.1430 C.3     1  UNL1        0.0543
      2 C         -24.9730   -2.5050   29.7880 C.2     1  UNL1       -0.0198
      3 C         -23.9060   -3.1730   29.1460 C.2     1  UNL1       -0.0042
      4 C         -23.9890   -4.5490   28.8530 C.2     1  UNL1       -0.0003
      5 C         -25.1370   -5.2800   29.2050 C.2     1  UNL1       -0.0000
      6 C         -26.2320   -4.6110   29.7840 C.2     1  UNL1       -0.0003
      7 C         -26.1550   -3.2320   30.0650 C.2     1  UNL1       -0.0042
      8 C         -25.3870   -0.6790   31.5710 C.3     1  UNL1        0.0782
      9 C         -25.1890    0.7730   32.0280 C.3     1  UNL1        0.0192
     10 C         -25.3360    0.6840   33.5440 C.3     1  UNL1        0.0202
     11 C         -24.8290   -0.7150   33.9050 C.3     1  UNL1        0.0887
     12 N         -24.7580   -1.4810   32.6460 N.3     1  UNL1       -0.2191
     13 C         -25.6880    1.6140   26.4610 C.3     1  UNL1        0.0864
     14 C         -26.2500    2.9200   26.3950 C.2     1  UNL1        0.0562
     15 C         -25.6420    4.0930   27.1230 C.2     1  UNL1        0.2625
     16 N         -25.6140    5.2520   26.4490 N.am    1  UNL1       -0.2000
     17 C         -25.0260    6.4790   26.9630 C.3     1  UNL1        0.1388
     18 O         -25.1430    3.9660   28.2430 O.2     1  UNL1       -0.2687
     19 C         -27.4380    3.0910   25.6450 C.2     1  UNL1        0.1022
     20 N         -28.0750    2.0890   25.0030 N.2     1  UNL1       -0.2119
     21 C         -27.5430    0.8490   25.0790 C.2     1  UNL1        0.2341
     22 O         -28.1930   -0.2080   24.4770 O.2     1  UNL1       -0.4585
     23 C         -29.4600    0.0050   23.8660 C.3     1  UNL1        0.2423
     24 C         -30.0650   -1.3770   23.5730 C.3     1  UNL1        0.2292
     25 O         -30.7290   -1.8780   24.7210 O.3     1  UNL1       -0.2162
     26 C         -26.3540    0.5760   25.7770 C.3     1  UNL1        0.2414
     27 F         -25.8600   -0.6810   25.7950 F       1  UNL1       -0.2268
     28 N         -21.0188    1.4274   27.9791 N.am    1  UNL1       -0.0866
     29 O         -22.2115   -0.0687   29.1046 O.2     1  UNL1       -0.2701
     30 N         -24.3442    0.7704   28.2311 N.3     1  UNL1       -0.2639
     31 C         -30.3025    1.0616   30.1160 C.3     1  UNL1        0.1096
     32 C         -22.0849    0.7870   28.2445 C.2     1  UNL1        0.2771
     33 C         -30.6276   -0.3022   29.4790 C.3     1  UNL1        0.0135
     34 C         -30.6317    2.1700   29.0937 C.3     1  UNL1        0.1911
     35 C         -25.6188    1.2594   27.8877 C.3     1  UNL1        0.0852
     36 C         -28.3295   -0.3010   28.5332 C.3     1  UNL1        0.0935
     37 C         -28.8291    1.2996   30.3537 C.2     1  UNL1        0.2278
     38 C         -29.3554   -1.0640   29.2472 C.3     1  UNL1        0.0221
     39 C         -26.9177    1.4992   28.5391 C.3     1  UNL1        0.1097
     40 C         -24.8104   -0.1431   29.0386 C.3     1  UNL1        0.0783
     41 O         -28.4580    1.8913   31.3771 O.2     1  UNL1       -0.2748
     42 C         -23.2783    1.1100   27.3327 C.3     1  UNL1        0.1619
     43 O         -29.6943    2.3946   28.0707 O.3     1  UNL1       -0.2199
     44 N         -27.9549    0.9595   29.2073 N.am    1  UNL1       -0.2781
@<TRIPOS>BOND
     1     1    40    1
     2     2     7    1
     3     2     1    1
     4     3     2    2
     5     4     3    1
     6     4     5    2
     7     5     6    1
     8     6     7    2
     9     8     1    1
    10     8     9    1
    11     8    12    1
    12     9    10    1
    13    10    11    1
    14    12    11    1
    15    13    35    1
    16    14    13    1
    17    14    15    1
    18    15    18    2
    19    16    17    1
    20    16    15    1
    21    19    14    2
    22    20    21    2
    23    20    19    1
    24    21    26    1
    25    22    21    1
    26    23    22    1
    27    24    23    1
    28    24    25    1
    29    26    27    1
    30    26    13    1
    31    28    32    1
    32    30    40    1
    33    31    34    1
    34    31    37    1
    35    32    29    2
    36    33    31    1
    37    35    30    1
    38    35    39    1
    39    36    44    1
    40    36    38    1
    41    37    41    2
    42    38    33    1
    43    39    44    1
    44    42    30    1
    45    42    32    1
    46    43    34    1
    47    44    37   am
