@<TRIPOS>MOLECULE
No_858-gen_results/8p0m/2024-11-27-11-27-31/
 17 18 0 0 0
SMALL
GASTEIGER

@<TRIPOS>ATOM
      1 C         -28.0162   -0.8135   28.8779 C.ar    1  UNL1        0.0068
      2 C         -27.0636   -0.1189   28.6079 C.ar    1  UNL1        0.0027
      3 C         -25.7923   -0.4302   29.0761 C.ar    1  UNL1        0.0001
      4 C         -25.5756   -1.5654   29.9363 C.ar    1  UNL1        0.0005
      5 C         -26.7354   -2.3004   30.2173 C.ar    1  UNL1        0.0067
      6 C         -27.9184   -1.9537   29.7629 C.ar    1  UNL1        0.0346
      7 C         -27.1057    1.1023   27.7593 C.ar    1  UNL1        0.0288
      8 C         -26.7157    2.2350   27.9945 C.ar    1  UNL1        0.0187
      9 C         -26.3325    3.1723   27.6009 C.ar    1  UNL1        0.0707
     10 C         -26.0979    3.3212   26.1621 C.ar    1  UNL1        0.0188
     11 C         -26.5258    2.1448   25.4984 C.ar    1  UNL1        0.0310
     12 C         -26.8704    0.8997   26.2231 C.ar    1  UNL1        0.1402
     13 BR        -29.3838   -2.9777   30.3080 Br      1  UNL1       -0.0490
     14 F         -27.1552   -0.0875   25.5495 F       1  UNL1       -0.2042
     15 N         -25.9659    4.4346   28.2654 N.pl3   1  UNL1       -0.2112
     16 C         -26.9006    5.2583   28.7516 C.2     1  UNL1        0.0857
     17 C         -26.4328    6.3425   29.4592 C.2     1  UNL1        0.0192
@<TRIPOS>BOND
     1     2     7    1
     2     6    13    1
     3    12    14    1
     4     9    15    1
     5    15    16    1
     6    16    17    2
     7     1     2   ar
     8     2     3   ar
     9     3     4   ar
    10     4     5   ar
    11     5     6   ar
    12     6     1   ar
    13     7     8   ar
    14     8     9   ar
    15     9    10   ar
    16    10    11   ar
    17    11    12   ar
    18    12     7   ar
