@<TRIPOS>MOLECULE
outputs/IAG933/test6/raw/output_8581_IAG933_linker_design_.xyz
 43 46 0 0 0
SMALL
GASTEIGER

@<TRIPOS>ATOM
      1 C         -24.8550   -1.0120   30.1430 C.3     1  UNL1        0.1109
      2 C         -24.9730   -2.5050   29.7880 C.2     1  UNL1       -0.0051
      3 C         -23.9060   -3.1730   29.1460 C.2     1  UNL1       -0.0029
      4 C         -23.9890   -4.5490   28.8530 C.2     1  UNL1       -0.0003
      5 C         -25.1370   -5.2800   29.2050 C.2     1  UNL1       -0.0000
      6 C         -26.2320   -4.6110   29.7840 C.2     1  UNL1       -0.0003
      7 C         -26.1550   -3.2320   30.0650 C.2     1  UNL1       -0.0029
      8 C         -25.3870   -0.6790   31.5710 C.3     1  UNL1        0.0929
      9 C         -25.1890    0.7730   32.0280 C.3     1  UNL1        0.0206
     10 C         -25.3360    0.6840   33.5440 C.3     1  UNL1        0.0203
     11 C         -24.8290   -0.7150   33.9050 C.3     1  UNL1        0.0888
     12 N         -24.7580   -1.4810   32.6460 N.3     1  UNL1       -0.2177
     13 C         -25.6880    1.6140   26.4610 C.2     1  UNL1        0.0407
     14 C         -26.2500    2.9200   26.3950 C.2     1  UNL1        0.0745
     15 C         -25.6420    4.0930   27.1230 C.2     1  UNL1        0.2241
     16 N         -25.6140    5.2520   26.4490 N.2     1  UNL1       -0.2356
     17 C         -25.0260    6.4790   26.9630 C.3     1  UNL1        0.1550
     18 O         -25.1430    3.9660   28.2430 O.2     1  UNL1       -0.4366
     19 C         -27.4380    3.0910   25.6450 C.2     1  UNL1        0.1068
     20 N         -28.0750    2.0890   25.0030 N.2     1  UNL1       -0.2081
     21 C         -27.5430    0.8490   25.0790 C.2     1  UNL1        0.2533
     22 O         -28.1930   -0.2080   24.4770 O.2     1  UNL1       -0.4558
     23 C         -29.4600    0.0050   23.8660 C.3     1  UNL1        0.2426
     24 C         -30.0650   -1.3770   23.5730 C.3     1  UNL1        0.2292
     25 O         -30.7290   -1.8780   24.7210 O.3     1  UNL1       -0.2162
     26 C         -26.3540    0.5760   25.7770 C.2     1  UNL1        0.1931
     27 F         -25.8600   -0.6810   25.7950 F       1  UNL1       -0.1992
     28 N         -23.7829   -0.2267   29.7423 N.3     1  UNL1       -0.2124
     29 C         -22.7928    0.6403   29.1215 C.3     1  UNL1        0.1065
     30 O         -22.7063    0.8882   26.2428 O.3     1  UNL1       -0.2186
     31 C         -28.0750    2.9721   29.5531 C.2     1  UNL1        0.0016
     32 C         -25.1252    2.1448   29.7280 C.3     1  UNL1        0.0787
     33 C         -29.7480    4.3541   28.4502 C.2     1  UNL1       -0.0000
     34 C         -28.8571    5.4296   28.4197 C.2     1  UNL1       -0.0001
     35 C         -29.3372    3.1108   28.9796 C.2     1  UNL1       -0.0001
     36 C         -25.7336    3.5571   29.4971 C.3     1  UNL1        0.2787
     37 C         -23.6812    1.9975   29.3034 C.3     1  UNL1        0.0268
     38 C         -22.2816    0.8281   27.6144 C.3     1  UNL1        0.2029
     39 O         -25.1493    4.4902   30.4735 O.3     1  UNL1       -0.1765
     40 C         -27.1451    3.9741   29.3717 C.2     1  UNL1        0.0431
     41 C         -27.5571    5.2524   28.9194 C.2     1  UNL1        0.0016
     42 F         -20.7528    0.7410   27.4355 F       1  UNL1       -0.2315
     43 C         -21.2852    1.9139   27.6757 C.3     1  UNL1        0.2273
@<TRIPOS>BOND
     1     1    28    1
     2     2     7    1
     3     2     1    1
     4     3     2    2
     5     4     3    1
     6     4     5    2
     7     5     6    1
     8     6     7    2
     9     8     1    1
    10     8     9    1
    11     8    12    1
    12     9    10    1
    13    10    11    1
    14    12    11    1
    15    14    13    1
    16    14    15    1
    17    15    18    1
    18    16    17    1
    19    16    15    2
    20    18    36    1
    21    19    14    2
    22    20    21    2
    23    20    19    1
    24    21    26    1
    25    22    21    1
    26    23    22    1
    27    24    23    1
    28    24    25    1
    29    26    27    1
    30    26    13    2
    31    29    37    1
    32    29    28    1
    33    33    35    1
    34    34    33    2
    35    34    41    1
    36    35    31    2
    37    36    32    1
    38    36    39    1
    39    37    32    1
    40    38    30    1
    41    38    43    1
    42    38    29    1
    43    40    36    1
    44    40    31    1
    45    41    40    2
    46    42    43    1
