@<TRIPOS>MOLECULE
outputs/IAG933/test6/raw/output_8589_IAG933_linker_design_.xyz
 43 46 0 0 0
SMALL
GASTEIGER

@<TRIPOS>ATOM
      1 C         -24.8550   -1.0120   30.1430 C.3     1  UNL1        0.0581
      2 C         -24.9730   -2.5050   29.7880 C.2     1  UNL1       -0.0195
      3 C         -23.9060   -3.1730   29.1460 C.2     1  UNL1       -0.0042
      4 C         -23.9890   -4.5490   28.8530 C.2     1  UNL1       -0.0003
      5 C         -25.1370   -5.2800   29.2050 C.2     1  UNL1       -0.0000
      6 C         -26.2320   -4.6110   29.7840 C.2     1  UNL1       -0.0003
      7 C         -26.1550   -3.2320   30.0650 C.2     1  UNL1       -0.0042
      8 C         -25.3870   -0.6790   31.5710 C.3     1  UNL1        0.0785
      9 C         -25.1890    0.7730   32.0280 C.3     1  UNL1        0.0192
     10 C         -25.3360    0.6840   33.5440 C.3     1  UNL1        0.0202
     11 C         -24.8290   -0.7150   33.9050 C.3     1  UNL1        0.0887
     12 N         -24.7580   -1.4810   32.6460 N.3     1  UNL1       -0.2191
     13 C         -25.6880    1.6140   26.4610 C.2     1  UNL1        0.0381
     14 C         -26.2500    2.9200   26.3950 C.2     1  UNL1        0.0744
     15 C         -25.6420    4.0930   27.1230 C.2     1  UNL1        0.2662
     16 N         -25.6140    5.2520   26.4490 N.am    1  UNL1       -0.1997
     17 C         -25.0260    6.4790   26.9630 C.3     1  UNL1        0.1388
     18 O         -25.1430    3.9660   28.2430 O.2     1  UNL1       -0.2683
     19 C         -27.4380    3.0910   25.6450 C.2     1  UNL1        0.1065
     20 N         -28.0750    2.0890   25.0030 N.2     1  UNL1       -0.2081
     21 C         -27.5430    0.8490   25.0790 C.2     1  UNL1        0.2530
     22 O         -28.1930   -0.2080   24.4770 O.2     1  UNL1       -0.4558
     23 C         -29.4600    0.0050   23.8660 C.3     1  UNL1        0.2426
     24 C         -30.0650   -1.3770   23.5730 C.3     1  UNL1        0.2292
     25 O         -30.7290   -1.8780   24.7210 O.3     1  UNL1       -0.2162
     26 C         -26.3540    0.5760   25.7770 C.2     1  UNL1        0.1910
     27 F         -25.8600   -0.6810   25.7950 F       1  UNL1       -0.1995
     28 C         -26.5190    3.6094   32.5077 C.2     1  UNL1        0.0149
     29 C         -23.2105    2.1965   25.5124 C.2     1  UNL1        0.2111
     30 C         -24.7126    1.9063   29.7410 C.2     1  UNL1        0.1640
     31 O         -21.9293    2.3968   25.2136 O.2     1  UNL1       -0.3507
     32 C         -21.9531    1.3415   27.1644 C.2     1  UNL1        0.1317
     33 C         -24.6292    1.2585   27.3791 C.3     1  UNL1        0.1263
     34 C         -25.6697   -0.2452   29.1246 C.3     1  UNL1        0.0985
     35 C         -25.5856    3.4621   31.3205 C.2     1  UNL1        0.0973
     36 N         -27.5258    5.8140   33.0698 N.3     1  UNL1       -0.1262
     37 C         -26.5149    4.8146   33.4593 C.3     1  UNL1        0.1369
     38 C         -23.2892    1.5655   26.7427 C.2     1  UNL1        0.0595
     39 O         -22.2217    0.3227   29.4114 O.3     1  UNL1       -0.2133
     40 C         -21.4262    0.6865   28.3041 C.3     1  UNL1        0.2305
     41 N         -24.9608    0.9663   28.7942 N.pl3   1  UNL1       -0.2845
     42 N         -25.7289    2.5910   30.2803 N.2     1  UNL1       -0.2266
     43 N         -21.1012    1.9229   26.3243 N.2     1  UNL1       -0.0789
@<TRIPOS>BOND
     1     1    34    1
     2     2     7    1
     3     2     1    1
     4     3     2    2
     5     4     3    1
     6     4     5    2
     7     5     6    1
     8     6     7    2
     9     8     1    1
    10     8     9    1
    11     8    12    1
    12     9    10    1
    13    10    11    1
    14    12    11    1
    15    13    33    1
    16    14    13    1
    17    14    15    1
    18    15    18    2
    19    16    17    1
    20    16    15    1
    21    19    14    2
    22    20    21    2
    23    20    19    1
    24    21    26    1
    25    22    21    1
    26    23    22    1
    27    24    23    1
    28    24    25    1
    29    26    27    1
    30    26    13    2
    31    28    37    1
    32    29    38    2
    33    30    42    2
    34    31    29    1
    35    31    43    1
    36    32    40    1
    37    33    41    1
    38    35    28    2
    39    36    37    1
    40    38    32    1
    41    38    33    1
    42    40    39    1
    43    41    34    1
    44    41    30    1
    45    42    35    1
    46    43    32    2
