@<TRIPOS>MOLECULE
No_859-gen_results/8p0m/2024-11-27-11-27-31/
 31 34 0 0 0
SMALL
GASTEIGER

@<TRIPOS>ATOM
      1 C         -28.0162   -0.8135   28.8779 C.ar    1  UNL1        0.0568
      2 C         -27.0636   -0.1189   28.6079 C.ar    1  UNL1        0.0043
      3 C         -26.9716    0.7139   27.5060 C.ar    1  UNL1       -0.0036
      4 C         -28.1053    0.7744   26.6421 C.ar    1  UNL1       -0.0155
      5 C         -29.2041    0.1179   27.0477 C.ar    1  UNL1        0.0760
      6 C         -30.3488    0.2568   26.2203 C.2     1  UNL1        0.3874
      7 C         -29.1817   -0.6758   28.1173 C.ar    1  UNL1        0.0109
      8 O         -30.3285   -0.0553   25.0162 O.co2   1  UNL1       -0.2406
      9 O         -31.5408    0.4942   26.7257 O.co2   1  UNL1       -0.2406
     10 C         -25.5690    1.2623   27.2745 C.ar    1  UNL1       -0.0003
     11 C         -25.1492    2.2903   28.0592 C.ar    1  UNL1       -0.0000
     12 C         -23.8360    2.8067   27.8103 C.ar    1  UNL1       -0.0000
     13 C         -23.0309    2.2348   26.8172 C.ar    1  UNL1       -0.0000
     14 C         -24.6716    0.7602   26.3056 C.ar    1  UNL1       -0.0000
     15 C         -23.4584    1.2267   26.0712 C.ar    1  UNL1       -0.0000
     16 C         -28.0504   -1.6768   30.1077 C.2     1  UNL1        0.2842
     17 N         -26.9731   -2.2651   30.4835 N.am    1  UNL1       -0.0837
     18 O         -29.1259   -1.9580   30.6345 O.2     1  UNL1       -0.2667
     19 C         -27.9552    1.7009   25.4887 C.3     1  UNL1        0.0312
     20 C         -25.9030    2.9424   29.1701 C.ar    1  UNL1       -0.0000
     21 C         -25.7886    4.1740   29.3749 C.ar    1  UNL1       -0.0000
     22 C         -26.3532    4.7890   30.5641 C.ar    1  UNL1        0.0000
     23 C         -27.1787    4.0194   31.3116 C.ar    1  UNL1        0.0000
     24 C         -27.3423    2.6634   31.0556 C.ar    1  UNL1        0.0000
     25 C         -26.6340    2.1350   30.0318 C.ar    1  UNL1       -0.0000
     26 C         -28.1734    1.8275   31.9453 C.ar    1  UNL1        0.0000
     27 C         -27.6191    1.1930   32.9272 C.ar    1  UNL1        0.0000
     28 C         -29.5474    1.7625   31.5857 C.ar    1  UNL1        0.0000
     29 C         -28.2643    0.0738   33.5823 C.ar    1  UNL1        0.0000
     30 C         -30.2756    0.7200   32.3258 C.ar    1  UNL1        0.0000
     31 C         -29.6459   -0.0055   33.3298 C.ar    1  UNL1        0.0000
@<TRIPOS>BOND
     1     5     6    1
     2     6     8   ar
     3     6     9   ar
     4     3    10    1
     5     1    16    1
     6    16    17   am
     7    16    18    2
     8     4    19    1
     9    11    20    1
    10    24    26    1
    11    26    27   ar
    12    27    29   ar
    13    29    31   ar
    14    31    30   ar
    15    30    28   ar
    16    28    26   ar
    17     1     2   ar
    18     2     3   ar
    19     3     4   ar
    20     4     5   ar
    21     5     7   ar
    22     7     1   ar
    23    10    11   ar
    24    11    12   ar
    25    12    13   ar
    26    13    15   ar
    27    15    14   ar
    28    14    10   ar
    29    20    21   ar
    30    21    22   ar
    31    22    23   ar
    32    23    24   ar
    33    24    25   ar
    34    25    20   ar
