@<TRIPOS>MOLECULE
outputs/IAG933/test6/raw/output_8597_IAG933_linker_design_.xyz
 41 45 0 0 0
SMALL
GASTEIGER

@<TRIPOS>ATOM
      1 C         -24.8550   -1.0120   30.1430 C.3     1  UNL1        0.0408
      2 C         -24.9730   -2.5050   29.7880 C.2     1  UNL1       -0.0211
      3 C         -23.9060   -3.1730   29.1460 C.2     1  UNL1       -0.0042
      4 C         -23.9890   -4.5490   28.8530 C.2     1  UNL1       -0.0003
      5 C         -25.1370   -5.2800   29.2050 C.2     1  UNL1       -0.0000
      6 C         -26.2320   -4.6110   29.7840 C.2     1  UNL1       -0.0003
      7 C         -26.1550   -3.2320   30.0650 C.2     1  UNL1       -0.0042
      8 C         -25.3870   -0.6790   31.5710 C.3     1  UNL1        0.0769
      9 C         -25.1890    0.7730   32.0280 C.3     1  UNL1        0.0192
     10 C         -25.3360    0.6840   33.5440 C.3     1  UNL1        0.0202
     11 C         -24.8290   -0.7150   33.9050 C.3     1  UNL1        0.0887
     12 N         -24.7580   -1.4810   32.6460 N.3     1  UNL1       -0.2191
     13 C         -25.6880    1.6140   26.4610 C.3     1  UNL1        0.0770
     14 C         -26.2500    2.9200   26.3950 C.2     1  UNL1        0.0550
     15 C         -25.6420    4.0930   27.1230 C.2     1  UNL1        0.2624
     16 N         -25.6140    5.2520   26.4490 N.am    1  UNL1       -0.2000
     17 C         -25.0260    6.4790   26.9630 C.3     1  UNL1        0.1388
     18 O         -25.1430    3.9660   28.2430 O.2     1  UNL1       -0.2687
     19 C         -27.4380    3.0910   25.6450 C.2     1  UNL1        0.1021
     20 N         -28.0750    2.0890   25.0030 N.2     1  UNL1       -0.2119
     21 C         -27.5430    0.8490   25.0790 C.2     1  UNL1        0.2341
     22 O         -28.1930   -0.2080   24.4770 O.2     1  UNL1       -0.4585
     23 C         -29.4600    0.0050   23.8660 C.3     1  UNL1        0.2423
     24 C         -30.0650   -1.3770   23.5730 C.3     1  UNL1        0.2292
     25 O         -30.7290   -1.8780   24.7210 O.3     1  UNL1       -0.2162
     26 C         -26.3540    0.5760   25.7770 C.3     1  UNL1        0.2402
     27 F         -25.8600   -0.6810   25.7950 F       1  UNL1       -0.2269
     28 C         -24.5218    1.3805   26.1252 C.3     1  UNL1        0.0931
     29 C         -24.8470    0.0044   28.1509 C.3     1  UNL1        0.1582
     30 C         -23.7028    0.9994   27.1680 C.3     1  UNL1        0.0836
     31 C         -24.0452    1.4067   24.8686 C.3     1  UNL1        0.3533
     32 C         -21.8620    0.4306   29.1942 C.3     1  UNL1        0.0706
     33 C         -22.3466    1.6250   26.7948 C.2     1  UNL1        0.1339
     34 C         -23.0408   -0.1996   29.7645 C.3     1  UNL1        0.0111
     35 C         -21.4724    1.0230   27.8740 C.2     1  UNL1        0.1897
     36 C         -24.4042    0.2618   29.3888 C.3     1  UNL1        0.0367
     37 F         -24.5781    0.5481   23.9177 F       1  UNL1       -0.1862
     38 N         -22.0351    2.1578   25.6881 N.2     1  UNL1       -0.0813
     39 O         -20.3877    0.9681   27.5432 O.2     1  UNL1       -0.2900
     40 O         -22.8775    1.9997   24.6706 O.2     1  UNL1       -0.3454
     41 O         -26.3947   -0.0304   28.3740 O.3     1  UNL1       -0.2227
@<TRIPOS>BOND
     1     1     2    1
     2     2     7    1
     3     3     2    2
     4     4     3    1
     5     4     5    2
     6     5     6    1
     7     6     7    2
     8     8     1    1
     9     8     9    1
    10     8    12    1
    11     9    10    1
    12    10    11    1
    13    12    11    1
    14    13    14    1
    15    14    15    1
    16    15    18    2
    17    16    17    1
    18    16    15    1
    19    19    14    2
    20    20    21    2
    21    20    19    1
    22    21    26    1
    23    22    21    1
    24    23    22    1
    25    24    23    1
    26    24    25    1
    27    26    27    1
    28    26    13    1
    29    28    13    1
    30    28    30    1
    31    29    41    1
    32    29    36    1
    33    30    33    1
    34    30    29    1
    35    31    37    1
    36    31    28    1
    37    32    34    1
    38    33    35    1
    39    35    32    1
    40    36    34    1
    41    36     1    1
    42    38    33    2
    43    39    35    2
    44    40    31    1
    45    40    38    1
