@<TRIPOS>MOLECULE
outputs/IAG933/test6/raw/output_8607_IAG933_linker_design_.xyz
 41 45 0 0 0
SMALL
GASTEIGER

@<TRIPOS>ATOM
      1 C         -24.8550   -1.0120   30.1430 C.3     1  UNL1        0.0653
      2 C         -24.9730   -2.5050   29.7880 C.2     1  UNL1       -0.0192
      3 C         -23.9060   -3.1730   29.1460 C.2     1  UNL1       -0.0042
      4 C         -23.9890   -4.5490   28.8530 C.2     1  UNL1       -0.0003
      5 C         -25.1370   -5.2800   29.2050 C.2     1  UNL1       -0.0000
      6 C         -26.2320   -4.6110   29.7840 C.2     1  UNL1       -0.0003
      7 C         -26.1550   -3.2320   30.0650 C.2     1  UNL1       -0.0042
      8 C         -25.3870   -0.6790   31.5710 C.3     1  UNL1        0.0787
      9 C         -25.1890    0.7730   32.0280 C.3     1  UNL1        0.0193
     10 C         -25.3360    0.6840   33.5440 C.3     1  UNL1        0.0202
     11 C         -24.8290   -0.7150   33.9050 C.3     1  UNL1        0.0887
     12 N         -24.7580   -1.4810   32.6460 N.3     1  UNL1       -0.2191
     13 C         -25.6880    1.6140   26.4610 C.3     1  UNL1        0.0765
     14 C         -26.2500    2.9200   26.3950 C.2     1  UNL1        0.0550
     15 C         -25.6420    4.0930   27.1230 C.2     1  UNL1        0.2624
     16 N         -25.6140    5.2520   26.4490 N.am    1  UNL1       -0.2000
     17 C         -25.0260    6.4790   26.9630 C.3     1  UNL1        0.1388
     18 O         -25.1430    3.9660   28.2430 O.2     1  UNL1       -0.2687
     19 C         -27.4380    3.0910   25.6450 C.2     1  UNL1        0.1021
     20 N         -28.0750    2.0890   25.0030 N.2     1  UNL1       -0.2119
     21 C         -27.5430    0.8490   25.0790 C.2     1  UNL1        0.2341
     22 O         -28.1930   -0.2080   24.4770 O.2     1  UNL1       -0.4585
     23 C         -29.4600    0.0050   23.8660 C.3     1  UNL1        0.2423
     24 C         -30.0650   -1.3770   23.5730 C.3     1  UNL1        0.2292
     25 O         -30.7290   -1.8780   24.7210 O.3     1  UNL1       -0.2162
     26 C         -26.3540    0.5760   25.7770 C.3     1  UNL1        0.2402
     27 F         -25.8600   -0.6810   25.7950 F       1  UNL1       -0.2269
     28 N         -22.3868    0.2277   29.5613 N.3     1  UNL1       -0.1288
     29 C         -22.8159    0.9432   28.3804 C.3     1  UNL1        0.1374
     30 N         -25.1836    0.8912   28.6141 N.3     1  UNL1       -0.2077
     31 C         -24.0847    1.0549   27.8128 C.3     1  UNL1        0.0987
     32 C         -23.7633    0.9884   25.3685 C.3     1  UNL1        0.1919
     33 C         -23.4281    2.3333   25.6680 C.3     1  UNL1        0.1520
     34 C         -21.8935    1.6817   27.6040 C.3     1  UNL1        0.1625
     35 C         -24.1096    1.4095   26.4835 C.3     1  UNL1        0.0834
     36 OXT       -27.8976    0.8102   29.6245 O.co2   1  UNL1       -0.2441
     37 O         -21.9566    1.8937   26.2811 O.3     1  UNL1       -0.3517
     38 O         -28.0006   -1.1519   28.6085 O.co2   1  UNL1       -0.2441
     39 CA        -25.8403   -0.3131   29.0929 C.3     1  UNL1        0.1811
     40 C         -27.3701   -0.2100   29.0996 C.2     1  UNL1        0.3806
     41 F         -24.1383    0.2641   24.2582 F       1  UNL1       -0.2345
@<TRIPOS>BOND
     1     1    39    1
     2     2     7    1
     3     2     1    1
     4     3     2    2
     5     4     3    1
     6     4     5    2
     7     5     6    1
     8     6     7    2
     9     8     1    1
    10     8     9    1
    11     8    12    1
    12     9    10    1
    13    10    11    1
    14    12    11    1
    15    13    14    1
    16    14    15    1
    17    15    18    2
    18    16    17    1
    19    16    15    1
    20    19    14    2
    21    20    21    2
    22    20    19    1
    23    21    26    1
    24    22    21    1
    25    23    22    1
    26    24    23    1
    27    24    25    1
    28    26    27    1
    29    26    13    1
    30    29    28    1
    31    31    29    1
    32    31    30    1
    33    32    41    1
    34    32    33    1
    35    32    35    1
    36    33    37    1
    37    33    35    1
    38    34    29    1
    39    35    13    1
    40    35    31    1
    41    37    34    1
    42    38    40   ar
    43    39    30    1
    44    39    40    1
    45    40    36   ar
