@<TRIPOS>MOLECULE
outputs/IAG933/test6/raw/output_8609_IAG933_linker_design_.xyz
 41 44 0 0 0
SMALL
GASTEIGER

@<TRIPOS>ATOM
      1 C         -24.8550   -1.0120   30.1430 C.3     1  UNL1        0.0982
      2 C         -24.9730   -2.5050   29.7880 C.2     1  UNL1       -0.0064
      3 C         -23.9060   -3.1730   29.1460 C.2     1  UNL1       -0.0029
      4 C         -23.9890   -4.5490   28.8530 C.2     1  UNL1       -0.0003
      5 C         -25.1370   -5.2800   29.2050 C.2     1  UNL1       -0.0000
      6 C         -26.2320   -4.6110   29.7840 C.2     1  UNL1       -0.0003
      7 C         -26.1550   -3.2320   30.0650 C.2     1  UNL1       -0.0029
      8 C         -25.3870   -0.6790   31.5710 C.3     1  UNL1        0.0916
      9 C         -25.1890    0.7730   32.0280 C.3     1  UNL1        0.0206
     10 C         -25.3360    0.6840   33.5440 C.3     1  UNL1        0.0203
     11 C         -24.8290   -0.7150   33.9050 C.3     1  UNL1        0.0888
     12 N         -24.7580   -1.4810   32.6460 N.3     1  UNL1       -0.2178
     13 C         -25.6880    1.6140   26.4610 C.2     1  UNL1        0.0340
     14 C         -26.2500    2.9200   26.3950 C.2     1  UNL1        0.0740
     15 C         -25.6420    4.0930   27.1230 C.2     1  UNL1        0.2662
     16 N         -25.6140    5.2520   26.4490 N.am    1  UNL1       -0.1997
     17 C         -25.0260    6.4790   26.9630 C.3     1  UNL1        0.1388
     18 O         -25.1430    3.9660   28.2430 O.2     1  UNL1       -0.2683
     19 C         -27.4380    3.0910   25.6450 C.2     1  UNL1        0.1065
     20 N         -28.0750    2.0890   25.0030 N.2     1  UNL1       -0.2081
     21 C         -27.5430    0.8490   25.0790 C.2     1  UNL1        0.2530
     22 O         -28.1930   -0.2080   24.4770 O.2     1  UNL1       -0.4558
     23 C         -29.4600    0.0050   23.8660 C.3     1  UNL1        0.2426
     24 C         -30.0650   -1.3770   23.5730 C.3     1  UNL1        0.2292
     25 O         -30.7290   -1.8780   24.7210 O.3     1  UNL1       -0.2162
     26 C         -26.3540    0.5760   25.7770 C.2     1  UNL1        0.1905
     27 F         -25.8600   -0.6810   25.7950 F       1  UNL1       -0.1995
     28 N         -22.1651   -0.7400   29.2734 N.3     1  UNL1       -0.1137
     29 F         -22.2455    1.7869   24.7635 F       1  UNL1       -0.0271
     30 O         -23.4248    1.2309   24.8554 O.3     1  UNL1       -0.0937
     31 O         -27.5835   -0.4254   28.5090 O.3     1  UNL1       -0.2005
     32 C         -24.4489    1.2325   27.1793 C.3     1  UNL1        0.1266
     33 N         -23.4339    1.3970   26.3039 N.3     1  UNL1       -0.1245
     34 C         -22.3422    1.7295   26.4330 C.3     1  UNL1        0.1234
     35 C         -22.9659    1.5701   29.1448 C.3     1  UNL1        0.0548
     36 N         -25.3508   -0.0217   29.2053 N.3     1  UNL1       -0.2407
     37 N         -20.7489    0.9838   28.3725 N.3     1  UNL1       -0.1993
     38 C         -21.0456    1.4360   26.9940 C.3     1  UNL1        0.1102
     39 C         -26.6014   -0.1775   28.6330 C.3     1  UNL1        0.2592
     40 C         -21.7592    0.5346   28.9999 C.3     1  UNL1        0.1654
     41 C         -24.4266    1.0584   28.6825 C.3     1  UNL1        0.0842
@<TRIPOS>BOND
     1     1    36    1
     2     2     7    1
     3     2     1    1
     4     3     2    2
     5     4     3    1
     6     4     5    2
     7     5     6    1
     8     6     7    2
     9     8     1    1
    10     8     9    1
    11     8    12    1
    12     9    10    1
    13    10    11    1
    14    12    11    1
    15    14    13    1
    16    14    15    1
    17    15    18    2
    18    16    17    1
    19    16    15    1
    20    19    14    2
    21    20    21    2
    22    20    19    1
    23    21    26    1
    24    22    21    1
    25    23    22    1
    26    24    23    1
    27    24    25    1
    28    26    27    1
    29    26    13    2
    30    29    30    1
    31    30    33    1
    32    31    39    1
    33    32    13    1
    34    32    41    1
    35    33    34    1
    36    33    32    1
    37    34    38    1
    38    37    40    1
    39    38    37    1
    40    39    36    1
    41    40    35    1
    42    40    28    1
    43    41    35    1
    44    41    36    1
