@<TRIPOS>MOLECULE
No_861-gen_results/8p0m/2024-11-27-11-27-31/
 35 38 0 0 0
SMALL
GASTEIGER

@<TRIPOS>ATOM
      1 C         -28.0162   -0.8135   28.8779 C.ar    1  UNL1        0.0821
      2 C         -27.0636   -0.1190   28.6079 C.ar    1  UNL1        0.0082
      3 C         -27.0010    0.6913   27.4910 C.ar    1  UNL1        0.0201
      4 C         -28.1420    0.8282   26.7994 C.ar    1  UNL1        0.0311
      5 C         -29.2898   -0.4871   28.3661 C.ar    1  UNL1        0.0362
      6 C         -29.2849    0.2608   27.2623 C.ar    1  UNL1        0.1404
      7 C         -27.9393   -1.6862   30.1403 C.2     1  UNL1        0.3878
      8 O         -28.6761   -1.9168   30.8763 O.co2   1  UNL1       -0.2406
      9 O         -26.6589   -2.1931   30.3158 O.co2   1  UNL1       -0.2406
     10 F         -30.4296    0.4511   26.5887 F       1  UNL1       -0.2042
     11 C         -25.7048    1.3337   27.0020 C.ar    1  UNL1        0.0828
     12 N         -24.6428    0.9232   27.6023 N.ar    1  UNL1       -0.2307
     13 C         -23.4767    1.7306   27.7008 C.ar    1  UNL1        0.1317
     14 C         -23.0382    2.2479   26.6594 C.ar    1  UNL1        0.0343
     15 C         -25.6223    2.2278   26.0212 C.ar    1  UNL1        0.0192
     16 C         -24.2683    2.9419   25.8741 C.ar    1  UNL1        0.0044
     17 N         -22.4699    1.2701   28.5871 N.pl3   1  UNL1       -0.2911
     18 C         -21.3506    0.6860   28.2430 C.3     1  UNL1        0.1136
     19 C         -22.9746    1.2368   30.0339 C.3     1  UNL1        0.0969
     20 C         -23.9395    2.1111   30.4977 C.3     1  UNL1        0.0480
     21 C         -24.8557    1.6642   31.5297 C.ar    1  UNL1       -0.0141
     22 C         -24.9361    0.4000   31.9249 C.ar    1  UNL1       -0.0040
     23 C         -25.8237   -0.0137   32.9382 C.ar    1  UNL1       -0.0003
     24 C         -26.6678    0.9107   33.5274 C.ar    1  UNL1        0.0002
     25 C         -26.5678    2.2856   33.1808 C.ar    1  UNL1        0.0063
     26 C         -25.6862    2.6925   32.1999 C.ar    1  UNL1        0.0759
     27 C         -25.5786    4.0875   31.8569 C.2     1  UNL1        0.3874
     28 O         -25.9800    4.5846   30.7946 O.co2   1  UNL1       -0.2406
     29 O         -24.8996    4.8938   32.7738 O.co2   1  UNL1       -0.2406
     30 C         -27.6147    0.5077   34.6030 C.ar    1  UNL1        0.0000
     31 C         -28.5996    0.6805   34.6700 C.ar    1  UNL1        0.0000
     32 C         -29.5770    0.2536   35.7319 C.ar    1  UNL1        0.0000
     33 C         -26.9431   -0.2975   35.6735 C.ar    1  UNL1        0.0000
     34 C         -27.6981   -0.8134   36.7338 C.ar    1  UNL1        0.0000
     35 C         -29.0360   -0.4968   36.7627 C.ar    1  UNL1        0.0000
@<TRIPOS>BOND
     1     1     7    1
     2     7     8   ar
     3     7     9   ar
     4     6    10    1
     5     3    11    1
     6    13    17    1
     7    17    18    1
     8    17    19    1
     9    19    20    1
    10    20    21    1
    11    26    27    1
    12    27    28   ar
    13    27    29   ar
    14    24    30    1
    15    21    22   ar
    16    22    23   ar
    17    23    24   ar
    18    24    25   ar
    19    25    26   ar
    20    26    21   ar
    21     1     2   ar
    22     2     3   ar
    23     3     4   ar
    24     4     6   ar
    25     6     5   ar
    26     5     1   ar
    27    30    31   ar
    28    31    32   ar
    29    32    35   ar
    30    35    34   ar
    31    34    33   ar
    32    33    30   ar
    33    11    12   ar
    34    12    13   ar
    35    13    14   ar
    36    14    16   ar
    37    16    15   ar
    38    15    11   ar
