@<TRIPOS>MOLECULE
outputs/IAG933/test6/raw/output_8610_IAG933_linker_design_.xyz
 43 47 0 0 0
SMALL
GASTEIGER

@<TRIPOS>ATOM
      1 C         -24.8550   -1.0120   30.1430 C.3     1  UNL1        0.0813
      2 C         -24.9730   -2.5050   29.7880 C.2     1  UNL1       -0.0174
      3 C         -23.9060   -3.1730   29.1460 C.2     1  UNL1       -0.0041
      4 C         -23.9890   -4.5490   28.8530 C.2     1  UNL1       -0.0003
      5 C         -25.1370   -5.2800   29.2050 C.2     1  UNL1       -0.0000
      6 C         -26.2320   -4.6110   29.7840 C.2     1  UNL1       -0.0003
      7 C         -26.1550   -3.2320   30.0650 C.2     1  UNL1       -0.0041
      8 C         -25.3870   -0.6790   31.5710 C.3     1  UNL1        0.0806
      9 C         -25.1890    0.7730   32.0280 C.3     1  UNL1        0.0193
     10 C         -25.3360    0.6840   33.5440 C.3     1  UNL1        0.0202
     11 C         -24.8290   -0.7150   33.9050 C.3     1  UNL1        0.0887
     12 N         -24.7580   -1.4810   32.6460 N.3     1  UNL1       -0.2190
     13 C         -25.6880    1.6140   26.4610 C.2     1  UNL1        0.0316
     14 C         -26.2500    2.9200   26.3950 C.2     1  UNL1        0.0739
     15 C         -25.6420    4.0930   27.1230 C.2     1  UNL1        0.2662
     16 N         -25.6140    5.2520   26.4490 N.am    1  UNL1       -0.1997
     17 C         -25.0260    6.4790   26.9630 C.3     1  UNL1        0.1388
     18 O         -25.1430    3.9660   28.2430 O.2     1  UNL1       -0.2683
     19 C         -27.4380    3.0910   25.6450 C.2     1  UNL1        0.1065
     20 N         -28.0750    2.0890   25.0030 N.2     1  UNL1       -0.2081
     21 C         -27.5430    0.8490   25.0790 C.2     1  UNL1        0.2530
     22 O         -28.1930   -0.2080   24.4770 O.2     1  UNL1       -0.4558
     23 C         -29.4600    0.0050   23.8660 C.3     1  UNL1        0.2426
     24 C         -30.0650   -1.3770   23.5730 C.3     1  UNL1        0.2292
     25 O         -30.7290   -1.8780   24.7210 O.3     1  UNL1       -0.2162
     26 C         -26.3540    0.5760   25.7770 C.2     1  UNL1        0.1904
     27 F         -25.8600   -0.6810   25.7950 F       1  UNL1       -0.1995
     28 C         -31.3939    0.3300   29.5319 C.3     1  UNL1        0.1778
     29 C         -24.3551    1.2114   27.0602 C.3     1  UNL1        0.0996
     30 C         -22.8317    0.7174   28.6142 C.3     1  UNL1        0.0759
     31 C         -29.6266    1.5131   28.7659 C.3     1  UNL1        0.2739
     32 CL        -22.4528    2.2553   25.0416 Cl      1  UNL1       -0.1132
     33 C         -30.3734   -0.7428   29.0304 C.3     1  UNL1        0.1888
     34 C         -21.8571    1.2294   27.4784 C.3     1  UNL1        0.0354
     35 N         -24.2880    0.4794   28.2546 N.3     1  UNL1       -0.2468
     36 O         -29.2280    1.9214   30.1004 O.3     1  UNL1       -0.1897
     37 C         -22.9790    1.8814   26.6940 C.3     1  UNL1        0.1002
     38 O         -31.1272    1.5565   28.7847 O.3     1  UNL1       -0.3256
     39 C         -29.1296    0.1441   28.7208 C.3     1  UNL1        0.1218
     40 C         -27.8443   -0.0890   28.1207 C.3     1  UNL1        0.1515
     41 O         -26.7696   -0.5327   28.8029 O.3     1  UNL1       -0.3402
     42 C         -25.2678   -0.2500   28.9320 C.3     1  UNL1        0.1817
     43 O         -30.8503   -1.4430   27.8215 O.3     1  UNL1       -0.2202
@<TRIPOS>BOND
     1     1    42    1
     2     2     7    1
     3     2     1    1
     4     3     2    2
     5     4     3    1
     6     4     5    2
     7     5     6    1
     8     6     7    2
     9     8     1    1
    10     8     9    1
    11     8    12    1
    12     9    10    1
    13    10    11    1
    14    12    11    1
    15    14    13    1
    16    14    15    1
    17    15    18    2
    18    16    17    1
    19    16    15    1
    20    19    14    2
    21    20    21    2
    22    20    19    1
    23    21    26    1
    24    22    21    1
    25    23    22    1
    26    24    23    1
    27    24    25    1
    28    26    27    1
    29    26    13    2
    30    29    13    1
    31    29    35    1
    32    31    38    1
    33    31    36    1
    34    33    43    1
    35    33    28    1
    36    34    30    1
    37    35    30    1
    38    35    42    1
    39    37    32    1
    40    37    29    1
    41    37    34    1
    42    38    28    1
    43    39    40    1
    44    39    31    1
    45    39    33    1
    46    40    41    1
    47    42    41    1
