@<TRIPOS>MOLECULE
outputs/IAG933/test6/raw/output_8612_IAG933_linker_design_.xyz
 43 49 0 0 0
SMALL
GASTEIGER

@<TRIPOS>ATOM
      1 C         -24.8550   -1.0120   30.1430 C.3     1  UNL1        0.0428
      2 C         -24.9730   -2.5050   29.7880 C.2     1  UNL1       -0.0208
      3 C         -23.9060   -3.1730   29.1460 C.2     1  UNL1       -0.0042
      4 C         -23.9890   -4.5490   28.8530 C.2     1  UNL1       -0.0003
      5 C         -25.1370   -5.2800   29.2050 C.2     1  UNL1       -0.0000
      6 C         -26.2320   -4.6110   29.7840 C.2     1  UNL1       -0.0003
      7 C         -26.1550   -3.2320   30.0650 C.2     1  UNL1       -0.0042
      8 C         -25.3870   -0.6790   31.5710 C.3     1  UNL1        0.0771
      9 C         -25.1890    0.7730   32.0280 C.3     1  UNL1        0.0192
     10 C         -25.3360    0.6840   33.5440 C.3     1  UNL1        0.0202
     11 C         -24.8290   -0.7150   33.9050 C.3     1  UNL1        0.0887
     12 N         -24.7580   -1.4810   32.6460 N.3     1  UNL1       -0.2191
     13 C         -25.6880    1.6140   26.4610 C.2     1  UNL1        0.0747
     14 C         -26.2500    2.9200   26.3950 C.2     1  UNL1        0.0798
     15 C         -25.6420    4.0930   27.1230 C.2     1  UNL1        0.2665
     16 N         -25.6140    5.2520   26.4490 N.am    1  UNL1       -0.1997
     17 C         -25.0260    6.4790   26.9630 C.3     1  UNL1        0.1388
     18 O         -25.1430    3.9660   28.2430 O.2     1  UNL1       -0.2683
     19 C         -27.4380    3.0910   25.6450 C.2     1  UNL1        0.1068
     20 N         -28.0750    2.0890   25.0030 N.2     1  UNL1       -0.2081
     21 C         -27.5430    0.8490   25.0790 C.2     1  UNL1        0.2534
     22 O         -28.1930   -0.2080   24.4770 O.2     1  UNL1       -0.4558
     23 C         -29.4600    0.0050   23.8660 C.3     1  UNL1        0.2426
     24 C         -30.0650   -1.3770   23.5730 C.3     1  UNL1        0.2292
     25 O         -30.7290   -1.8780   24.7210 O.3     1  UNL1       -0.2162
     26 C         -26.3540    0.5760   25.7770 C.2     1  UNL1        0.1963
     27 F         -25.8600   -0.6810   25.7950 F       1  UNL1       -0.1991
     28 C         -22.1995    1.3554   27.7461 C.2     1  UNL1        0.3687
     29 C         -22.6931    2.1431   25.4213 C.3     1  UNL1        0.2585
     30 N         -23.0911    1.6755   26.7288 N.pl3   1  UNL1       -0.1643
     31 C         -26.6664    0.2631   28.6566 C.3     1  UNL1        0.0231
     32 C         -27.6225   -0.9919   28.2573 C.3     1  UNL1        0.0087
     33 C         -30.2796    1.6880   28.6842 C.2     1  UNL1       -0.0258
     34 C         -22.7852    0.7369   28.7273 C.2     1  UNL1        0.0911
     35 N         -20.7583    1.5820   27.8481 N.pl3   1  UNL1        0.2100
     36 C         -28.1110    2.4904   29.2972 C.2     1  UNL1       -0.0088
     37 C         -29.7388    0.4695   28.2577 C.3     1  UNL1        0.0301
     38 C         -24.3482    1.4004   27.1083 C.2     1  UNL1        0.1375
     39 C         -27.6080    1.1342   28.7278 C.2     1  UNL1       -0.0442
     40 C         -25.2539    0.0060   29.0454 C.3     1  UNL1        0.0350
     41 C         -29.4598    2.6597   29.2607 C.2     1  UNL1       -0.0052
     42 C         -28.2965    0.2000   28.4364 C.3     1  UNL1        0.0230
     43 C         -24.2171    0.7427   28.3758 C.2     1  UNL1        0.0226
@<TRIPOS>BOND
     1     1    40    1
     2     2     7    1
     3     2     1    1
     4     3     2    2
     5     4     3    1
     6     4     5    2
     7     5     6    1
     8     6     7    2
     9     8     1    1
    10     8     9    1
    11     8    12    1
    12     9    10    1
    13    10    11    1
    14    12    11    1
    15    13    38    1
    16    14    13    1
    17    14    15    1
    18    15    18    2
    19    16    17    1
    20    16    15    1
    21    19    14    2
    22    20    21    2
    23    20    19    1
    24    21    26    1
    25    22    21    1
    26    23    22    1
    27    24    23    1
    28    24    25    1
    29    26    27    1
    30    26    13    2
    31    28    35    1
    32    28    34    2
    33    29    30    1
    34    30    38    1
    35    30    28    1
    36    31    39    1
    37    31    40    1
    38    32    31    1
    39    33    41    2
    40    37    42    1
    41    37    33    1
    42    38    43    2
    43    39    36    2
    44    40    43    1
    45    41    36    1
    46    42    32    1
    47    42    31    1
    48    42    39    1
    49    43    34    1
