@<TRIPOS>MOLECULE
outputs/IAG933/test6/raw/output_8614_IAG933_linker_design_.xyz
 44 47 0 0 0
SMALL
GASTEIGER

@<TRIPOS>ATOM
      1 C         -24.8550   -1.0120   30.1430 C.3     1  UNL1        0.0441
      2 C         -24.9730   -2.5050   29.7880 C.2     1  UNL1       -0.0208
      3 C         -23.9060   -3.1730   29.1460 C.2     1  UNL1       -0.0042
      4 C         -23.9890   -4.5490   28.8530 C.2     1  UNL1       -0.0003
      5 C         -25.1370   -5.2800   29.2050 C.2     1  UNL1       -0.0000
      6 C         -26.2320   -4.6110   29.7840 C.2     1  UNL1       -0.0003
      7 C         -26.1550   -3.2320   30.0650 C.2     1  UNL1       -0.0042
      8 C         -25.3870   -0.6790   31.5710 C.3     1  UNL1        0.0825
      9 C         -25.1890    0.7730   32.0280 C.3     1  UNL1        0.0595
     10 C         -25.3360    0.6840   33.5440 C.3     1  UNL1        0.0260
     11 C         -24.8290   -0.7150   33.9050 C.3     1  UNL1        0.0891
     12 N         -24.7580   -1.4810   32.6460 N.3     1  UNL1       -0.2187
     13 C         -25.6880    1.6140   26.4610 C.2     1  UNL1        0.1033
     14 C         -26.2500    2.9200   26.3950 C.2     1  UNL1        0.0914
     15 C         -25.6420    4.0930   27.1230 C.2     1  UNL1        0.2677
     16 N         -25.6140    5.2520   26.4490 N.am    1  UNL1       -0.1997
     17 C         -25.0260    6.4790   26.9630 C.3     1  UNL1        0.1388
     18 O         -25.1430    3.9660   28.2430 O.2     1  UNL1       -0.2683
     19 C         -27.4380    3.0910   25.6450 C.2     1  UNL1        0.1080
     20 N         -28.0750    2.0890   25.0030 N.2     1  UNL1       -0.2080
     21 C         -27.5430    0.8490   25.0790 C.2     1  UNL1        0.2546
     22 O         -28.1930   -0.2080   24.4770 O.2     1  UNL1       -0.4558
     23 C         -29.4600    0.0050   23.8660 C.3     1  UNL1        0.2426
     24 C         -30.0650   -1.3770   23.5730 C.3     1  UNL1        0.2292
     25 O         -30.7290   -1.8780   24.7210 O.3     1  UNL1       -0.2162
     26 C         -26.3540    0.5760   25.7770 C.2     1  UNL1        0.2078
     27 F         -25.8600   -0.6810   25.7950 F       1  UNL1       -0.1979
     28 C         -25.4873    4.3766   31.4870 C.3     1  UNL1        0.0357
     29 C         -22.3699    0.5928   28.8493 C.3     1  UNL1        0.2751
     30 O         -25.2343    3.3296   33.6995 O.3     1  UNL1       -0.3388
     31 C         -23.0778    2.4459   25.4678 C.3     1  UNL1        0.0264
     32 C         -27.2800    5.0281   34.3670 C.3     1  UNL1        0.0496
     33 C         -22.1167    1.0852   27.3895 C.3     1  UNL1        0.2268
     34 F         -21.0380    1.9605   27.3553 F       1  UNL1       -0.2313
     35 C         -23.3143    1.8866   26.8890 C.3     1  UNL1        0.1289
     36 C         -25.5903    5.7525   32.2253 C.3     1  UNL1        0.0068
     37 N         -25.6297    4.2240   35.8352 N.3     1  UNL1       -0.1042
     38 C         -25.0136    5.6107   33.6094 C.3     1  UNL1        0.0457
     39 C         -25.0751    3.2783   32.1926 C.3     1  UNL1        0.1554
     40 N         -24.6187    1.3266   27.2401 N.pl3   1  UNL1       -0.2338
     41 O         -23.0564    1.7417   29.6079 O.2     1  UNL1       -0.3748
     42 C         -25.7778    4.5350   34.4041 C.3     1  UNL1        0.1690
     43 N         -24.3915    2.3069   30.2832 N.2     1  UNL1       -0.0893
     44 C         -24.8174    1.9650   31.4601 C.2     1  UNL1        0.1027
@<TRIPOS>BOND
     1     2     7    1
     2     2     1    1
     3     3     2    2
     4     4     3    1
     5     4     5    2
     6     5     6    1
     7     6     7    2
     8     8     1    1
     9     8     9    1
    10     8    12    1
    11     9    44    1
    12     9    10    1
    13    10    11    1
    14    12    11    1
    15    13    40    1
    16    14    13    1
    17    14    15    1
    18    15    18    2
    19    16    17    1
    20    16    15    1
    21    19    14    2
    22    20    21    2
    23    20    19    1
    24    21    26    1
    25    22    21    1
    26    23    22    1
    27    24    23    1
    28    24    25    1
    29    26    27    1
    30    26    13    2
    31    28    39    1
    32    28    36    1
    33    29    41    1
    34    30    42    1
    35    33    34    1
    36    33    29    1
    37    35    31    1
    38    35    40    1
    39    35    33    1
    40    36    38    1
    41    38    42    1
    42    39    44    1
    43    39    30    1
    44    41    43    1
    45    42    32    1
    46    42    37    1
    47    43    44    2
