@<TRIPOS>MOLECULE
outputs/IAG933/test6/raw/output_8615_IAG933_linker_design_.xyz
 45 48 0 0 0
SMALL
GASTEIGER

@<TRIPOS>ATOM
      1 C         -24.8550   -1.0120   30.1430 C.3     1  UNL1        0.2208
      2 C         -24.9730   -2.5050   29.7880 C.2     1  UNL1        0.0231
      3 C         -23.9060   -3.1730   29.1460 C.2     1  UNL1       -0.0003
      4 C         -23.9890   -4.5490   28.8530 C.2     1  UNL1       -0.0002
      5 C         -25.1370   -5.2800   29.2050 C.2     1  UNL1       -0.0000
      6 C         -26.2320   -4.6110   29.7840 C.2     1  UNL1       -0.0002
      7 C         -26.1550   -3.2320   30.0650 C.2     1  UNL1       -0.0003
      8 C         -25.3870   -0.6790   31.5710 C.3     1  UNL1        0.1218
      9 C         -25.1890    0.7730   32.0280 C.3     1  UNL1        0.0262
     10 C         -25.3360    0.6840   33.5440 C.3     1  UNL1        0.0207
     11 C         -24.8290   -0.7150   33.9050 C.3     1  UNL1        0.0889
     12 N         -24.7580   -1.4810   32.6460 N.3     1  UNL1       -0.2150
     13 C         -25.6880    1.6140   26.4610 C.2     1  UNL1        0.1093
     14 C         -26.2500    2.9200   26.3950 C.2     1  UNL1        0.0917
     15 C         -25.6420    4.0930   27.1230 C.2     1  UNL1        0.2677
     16 N         -25.6140    5.2520   26.4490 N.am    1  UNL1       -0.1997
     17 C         -25.0260    6.4790   26.9630 C.3     1  UNL1        0.1388
     18 O         -25.1430    3.9660   28.2430 O.2     1  UNL1       -0.2683
     19 C         -27.4380    3.0910   25.6450 C.2     1  UNL1        0.1080
     20 N         -28.0750    2.0890   25.0030 N.2     1  UNL1       -0.2080
     21 C         -27.5430    0.8490   25.0790 C.2     1  UNL1        0.2546
     22 O         -28.1930   -0.2080   24.4770 O.2     1  UNL1       -0.4558
     23 C         -29.4600    0.0050   23.8660 C.3     1  UNL1        0.2426
     24 C         -30.0650   -1.3770   23.5730 C.3     1  UNL1        0.2292
     25 O         -30.7290   -1.8780   24.7210 O.3     1  UNL1       -0.2162
     26 C         -26.3540    0.5760   25.7770 C.2     1  UNL1        0.2080
     27 F         -25.8600   -0.6810   25.7950 F       1  UNL1       -0.1979
     28 C         -24.3916    5.6453   34.4685 C.3     1  UNL1        0.1740
     29 C         -23.4251    1.6904   26.3513 C.2     1  UNL1        0.0501
     30 N         -24.2571    0.1159   29.3823 N.pl3   1  UNL1       -0.0830
     31 C         -25.9992    1.5880   31.2294 C.3     1  UNL1        0.0287
     32 C         -25.6928    5.3848   31.4620 C.3     1  UNL1        0.0739
     33 C         -26.9937    5.2117   33.8289 C.3     1  UNL1        0.0325
     34 N         -24.7679    1.3383   27.2827 N.pl3   1  UNL1       -0.1807
     35 N         -28.0454    4.2700   31.3085 N.pl3   1  UNL1       -0.1330
     36 C         -23.1778    2.0937   24.8824 C.3     1  UNL1        0.0491
     37 O         -24.9887    6.5178   33.4958 O.3     1  UNL1       -0.3532
     38 C         -22.1036    1.2634   28.3417 C.2     1  UNL1        0.0945
     39 N         -22.2679   -0.4550   30.0492 N.pl3   1  UNL1        0.2115
     40 C         -26.0792    5.9485   32.8511 C.3     1  UNL1        0.1211
     41 C         -22.9336    0.2770   29.2314 C.2     1  UNL1        0.3844
     42 C         -25.7696    3.0973   31.1601 C.2     1  UNL1       -0.0124
     43 N         -25.1188    0.9296   28.7107 N.3     1  UNL1        0.0683
     44 C         -22.1912    1.8249   27.1219 C.2     1  UNL1        0.0196
     45 C         -26.5204    4.1483   31.1983 C.2     1  UNL1        0.0649
@<TRIPOS>BOND
     1     1     2    1
     2     2     7    1
     3     3     2    2
     4     4     3    1
     5     4     5    2
     6     5     6    1
     7     6     7    2
     8     8     1    1
     9     8     9    1
    10     8    12    1
    11     9    31    1
    12     9    10    1
    13    10    11    1
    14    12    11    1
    15    13    34    1
    16    14    13    1
    17    14    15    1
    18    15    18    2
    19    16    17    1
    20    16    15    1
    21    19    14    2
    22    20    21    2
    23    20    19    1
    24    21    26    1
    25    22    21    1
    26    23    22    1
    27    24    23    1
    28    24    25    1
    29    26    27    1
    30    26    13    2
    31    29    44    2
    32    29    34    1
    33    30     1    1
    34    32    40    1
    35    34    43    1
    36    36    29    1
    37    37    28    1
    38    38    41    2
    39    40    37    1
    40    40    33    1
    41    41    30    1
    42    41    39    1
    43    42    45    2
    44    42    31    1
    45    43    30    1
    46    44    38    1
    47    45    35    1
    48    45    32    1
