@<TRIPOS>MOLECULE
outputs/IAG933/test6/raw/output_8618_IAG933_linker_design_.xyz
 45 48 0 0 0
SMALL
GASTEIGER

@<TRIPOS>ATOM
      1 C         -24.8550   -1.0120   30.1430 C.3     1  UNL1        0.0577
      2 C         -24.9730   -2.5050   29.7880 C.2     1  UNL1       -0.0197
      3 C         -23.9060   -3.1730   29.1460 C.2     1  UNL1       -0.0042
      4 C         -23.9890   -4.5490   28.8530 C.2     1  UNL1       -0.0003
      5 C         -25.1370   -5.2800   29.2050 C.2     1  UNL1       -0.0000
      6 C         -26.2320   -4.6110   29.7840 C.2     1  UNL1       -0.0003
      7 C         -26.1550   -3.2320   30.0650 C.2     1  UNL1       -0.0042
      8 C         -25.3870   -0.6790   31.5710 C.3     1  UNL1        0.0783
      9 C         -25.1890    0.7730   32.0280 C.3     1  UNL1        0.0192
     10 C         -25.3360    0.6840   33.5440 C.3     1  UNL1        0.0202
     11 C         -24.8290   -0.7150   33.9050 C.3     1  UNL1        0.0887
     12 N         -24.7580   -1.4810   32.6460 N.3     1  UNL1       -0.2191
     13 C         -25.6880    1.6140   26.4610 C.3     1  UNL1        0.1351
     14 C         -26.2500    2.9200   26.3950 C.2     1  UNL1        0.0698
     15 C         -25.6420    4.0930   27.1230 C.2     1  UNL1        0.2637
     16 N         -25.6140    5.2520   26.4490 N.am    1  UNL1       -0.2000
     17 C         -25.0260    6.4790   26.9630 C.3     1  UNL1        0.1388
     18 O         -25.1430    3.9660   28.2430 O.2     1  UNL1       -0.2686
     19 C         -27.4380    3.0910   25.6450 C.2     1  UNL1        0.1035
     20 N         -28.0750    2.0890   25.0030 N.2     1  UNL1       -0.2118
     21 C         -27.5430    0.8490   25.0790 C.2     1  UNL1        0.2355
     22 O         -28.1930   -0.2080   24.4770 O.2     1  UNL1       -0.4585
     23 C         -29.4600    0.0050   23.8660 C.3     1  UNL1        0.2423
     24 C         -30.0650   -1.3770   23.5730 C.3     1  UNL1        0.2292
     25 O         -30.7290   -1.8780   24.7210 O.3     1  UNL1       -0.2162
     26 C         -26.3540    0.5760   25.7770 C.3     1  UNL1        0.2548
     27 F         -25.8600   -0.6810   25.7950 F       1  UNL1       -0.2254
     28 N         -22.7227   -0.3713   30.0694 N.3     1  UNL1       -0.1292
     29 F         -24.0685    0.9558   24.2243 F       1  UNL1       -0.1553
     30 C         -27.4767    2.3644   29.7205 C.3     1  UNL1        0.0964
     31 O         -25.6680    3.6613   30.5810 O.2     1  UNL1       -0.2733
     32 C         -21.3974    0.5631   28.3116 C.3     1  UNL1        0.2159
     33 N         -24.2097    1.4848   26.4105 N.3     1  UNL1       -0.1853
     34 F         -23.5683    3.1459   25.0893 F       1  UNL1       -0.1553
     35 C         -23.5763    1.8236   25.0908 C.3     1  UNL1        0.4632
     36 F         -21.3318    1.7337   26.4894 F       1  UNL1       -0.2326
     37 C         -24.2374    1.0282   28.7994 C.3     1  UNL1        0.1307
     38 C         -23.5716    1.2669   27.5236 C.3     1  UNL1        0.1220
     39 C         -26.0358    2.6508   29.9154 C.2     1  UNL1        0.2419
     40 N         -25.1221    1.8678   29.3504 N.am    1  UNL1       -0.2042
     41 N         -21.9508    0.1935   29.4105 N.3     1  UNL1       -0.1104
     42 N         -20.0985   -0.0015   28.3042 N.3     1  UNL1       -0.1090
     43 F         -22.4069    1.8263   24.3607 F       1  UNL1       -0.1553
     44 C         -23.8589   -0.0576   29.5219 C.3     1  UNL1        0.1185
     45 C         -22.1281    1.1940   27.4103 C.3     1  UNL1        0.2127
@<TRIPOS>BOND
     1     1     2    1
     2     2     7    1
     3     3     2    2
     4     4     3    1
     5     4     5    2
     6     5     6    1
     7     6     7    2
     8     8     1    1
     9     8     9    1
    10     8    12    1
    11     9    10    1
    12    10    11    1
    13    12    11    1
    14    13    33    1
    15    14    13    1
    16    14    15    1
    17    15    18    2
    18    16    17    1
    19    16    15    1
    20    19    14    2
    21    20    21    2
    22    20    19    1
    23    21    26    1
    24    22    21    1
    25    23    22    1
    26    24    23    1
    27    24    25    1
    28    26    27    1
    29    26    13    1
    30    29    35    1
    31    30    39    1
    32    32    42    1
    33    32    41    1
    34    34    35    1
    35    35    33    1
    36    37    40    1
    37    37    44    1
    38    38    33    1
    39    38    37    1
    40    39    31    2
    41    40    39    1
    42    41    28    1
    43    43    35    1
    44    44    28    1
    45    44     1    1
    46    45    36    1
    47    45    38    1
    48    45    32    1
