@<TRIPOS>MOLECULE
outputs/IAG933/test6/raw/output_8620_IAG933_linker_design_.xyz
 43 47 0 0 0
SMALL
GASTEIGER

@<TRIPOS>ATOM
      1 C         -24.8550   -1.0120   30.1430 C.3     1  UNL1        0.1155
      2 C         -24.9730   -2.5050   29.7880 C.2     1  UNL1       -0.0027
      3 C         -23.9060   -3.1730   29.1460 C.2     1  UNL1       -0.0026
      4 C         -23.9890   -4.5490   28.8530 C.2     1  UNL1       -0.0003
      5 C         -25.1370   -5.2800   29.2050 C.2     1  UNL1       -0.0000
      6 C         -26.2320   -4.6110   29.7840 C.2     1  UNL1       -0.0003
      7 C         -26.1550   -3.2320   30.0650 C.2     1  UNL1       -0.0026
      8 C         -25.3870   -0.6790   31.5710 C.3     1  UNL1        0.0954
      9 C         -25.1890    0.7730   32.0280 C.3     1  UNL1        0.0209
     10 C         -25.3360    0.6840   33.5440 C.3     1  UNL1        0.0203
     11 C         -24.8290   -0.7150   33.9050 C.3     1  UNL1        0.0888
     12 N         -24.7580   -1.4810   32.6460 N.3     1  UNL1       -0.2174
     13 C         -25.6880    1.6140   26.4610 C.2     1  UNL1        0.0390
     14 C         -26.2500    2.9200   26.3950 C.2     1  UNL1        0.0766
     15 C         -25.6420    4.0930   27.1230 C.2     1  UNL1        0.2664
     16 N         -25.6140    5.2520   26.4490 N.am    1  UNL1       -0.1997
     17 C         -25.0260    6.4790   26.9630 C.3     1  UNL1        0.1388
     18 O         -25.1430    3.9660   28.2430 O.2     1  UNL1       -0.2683
     19 C         -27.4380    3.0910   25.6450 C.2     1  UNL1        0.1067
     20 N         -28.0750    2.0890   25.0030 N.2     1  UNL1       -0.2081
     21 C         -27.5430    0.8490   25.0790 C.2     1  UNL1        0.2533
     22 O         -28.1930   -0.2080   24.4770 O.2     1  UNL1       -0.4558
     23 C         -29.4600    0.0050   23.8660 C.3     1  UNL1        0.2426
     24 C         -30.0650   -1.3770   23.5730 C.3     1  UNL1        0.2292
     25 O         -30.7290   -1.8780   24.7210 O.3     1  UNL1       -0.2162
     26 C         -26.3540    0.5760   25.7770 C.2     1  UNL1        0.1931
     27 F         -25.8600   -0.6810   25.7950 F       1  UNL1       -0.1992
     28 C         -28.1957    1.7589   30.1112 C.2     1  UNL1       -0.0144
     29 F         -22.3731   -0.2907   29.4871 F       1  UNL1       -0.2072
     30 C         -29.2494    0.8547   30.2104 C.2     1  UNL1        0.0307
     31 C         -27.9198   -0.7196   29.0365 C.2     1  UNL1        0.0153
     32 C         -20.9291    1.7257   27.4251 C.3     1  UNL1        0.0119
     33 C         -23.3052    2.0822   26.7897 C.2     1  UNL1       -0.0183
     34 C         -24.5411    1.3456   27.1400 C.2     1  UNL1        0.0142
     35 C         -22.3826    1.4672   27.6364 C.3     1  UNL1        0.0735
     36 C         -22.9404    0.5007   28.5531 C.2     1  UNL1        0.1347
     37 C         -28.3870    3.1585   30.5813 C.3     1  UNL1        0.0316
     38 C         -24.3350    0.4895   28.2749 C.2     1  UNL1        0.0754
     39 N         -25.3460   -0.1357   28.9823 N.pl3   1  UNL1       -0.2816
     40 C         -29.1239   -0.3972   29.6380 C.2     1  UNL1        0.0077
     41 C         -26.7985    0.1449   29.1342 C.2     1  UNL1        0.0516
     42 BR        -30.7670    1.3412   31.0575 Br      1  UNL1       -0.0493
     43 C         -27.0571    1.4063   29.5340 C.2     1  UNL1        0.0111
@<TRIPOS>BOND
     1     1    39    1
     2     2     7    1
     3     2     1    1
     4     3     2    2
     5     4     3    1
     6     4     5    2
     7     5     6    1
     8     6     7    2
     9     8     1    1
    10     8     9    1
    11     8    12    1
    12     9    10    1
    13    10    11    1
    14    12    11    1
    15    13    34    1
    16    14    13    1
    17    14    15    1
    18    15    18    2
    19    16    17    1
    20    16    15    1
    21    19    14    2
    22    20    21    2
    23    20    19    1
    24    21    26    1
    25    22    21    1
    26    23    22    1
    27    24    23    1
    28    24    25    1
    29    26    27    1
    30    26    13    2
    31    28    30    1
    32    28    37    1
    33    30    42    1
    34    31    41    2
    35    31    40    1
    36    33    34    2
    37    33    35    1
    38    34    38    1
    39    35    32    1
    40    35    36    1
    41    36    29    1
    42    38    36    2
    43    38    39    1
    44    39    41    1
    45    40    30    2
    46    41    43    1
    47    43    28    2
