@<TRIPOS>MOLECULE
outputs/IAG933/test6/raw/output_8623_IAG933_linker_design_.xyz
 44 48 0 0 0
SMALL
GASTEIGER

@<TRIPOS>ATOM
      1 C         -24.8550   -1.0120   30.1430 C.3     1  UNL1        0.0437
      2 C         -24.9730   -2.5050   29.7880 C.2     1  UNL1       -0.0208
      3 C         -23.9060   -3.1730   29.1460 C.2     1  UNL1       -0.0042
      4 C         -23.9890   -4.5490   28.8530 C.2     1  UNL1       -0.0003
      5 C         -25.1370   -5.2800   29.2050 C.2     1  UNL1       -0.0000
      6 C         -26.2320   -4.6110   29.7840 C.2     1  UNL1       -0.0003
      7 C         -26.1550   -3.2320   30.0650 C.2     1  UNL1       -0.0042
      8 C         -25.3870   -0.6790   31.5710 C.3     1  UNL1        0.0772
      9 C         -25.1890    0.7730   32.0280 C.3     1  UNL1        0.0214
     10 C         -25.3360    0.6840   33.5440 C.3     1  UNL1        0.0203
     11 C         -24.8290   -0.7150   33.9050 C.3     1  UNL1        0.0887
     12 N         -24.7580   -1.4810   32.6460 N.3     1  UNL1       -0.2191
     13 C         -25.6880    1.6140   26.4610 C.3     1  UNL1        0.1303
     14 C         -26.2500    2.9200   26.3950 C.2     1  UNL1        0.0696
     15 C         -25.6420    4.0930   27.1230 C.2     1  UNL1        0.2637
     16 N         -25.6140    5.2520   26.4490 N.am    1  UNL1       -0.2000
     17 C         -25.0260    6.4790   26.9630 C.3     1  UNL1        0.1388
     18 O         -25.1430    3.9660   28.2430 O.2     1  UNL1       -0.2686
     19 C         -27.4380    3.0910   25.6450 C.2     1  UNL1        0.1035
     20 N         -28.0750    2.0890   25.0030 N.2     1  UNL1       -0.2118
     21 C         -27.5430    0.8490   25.0790 C.2     1  UNL1        0.2355
     22 O         -28.1930   -0.2080   24.4770 O.2     1  UNL1       -0.4585
     23 C         -29.4600    0.0050   23.8660 C.3     1  UNL1        0.2423
     24 C         -30.0650   -1.3770   23.5730 C.3     1  UNL1        0.2292
     25 O         -30.7290   -1.8780   24.7210 O.3     1  UNL1       -0.2162
     26 C         -26.3540    0.5760   25.7770 C.3     1  UNL1        0.2546
     27 F         -25.8600   -0.6810   25.7950 F       1  UNL1       -0.2254
     28 C         -23.4320    1.6765   27.6986 C.3     1  UNL1        0.1219
     29 F         -21.0339    1.6373   27.7912 F       1  UNL1       -0.2025
     30 C         -23.4788    1.7422   29.2078 C.3     1  UNL1        0.0216
     31 O         -26.0889    3.3066   32.6320 O.2     1  UNL1       -0.4755
     32 C         -24.8886    1.4332   29.5452 C.3     1  UNL1        0.0053
     33 C         -22.1691    1.7827   27.2227 C.3     1  UNL1        0.2943
     34 C         -23.5382    1.9455   25.4839 C.3     1  UNL1        0.2228
     35 C         -26.4299    2.7459   31.3184 C.3     1  UNL1        0.2053
     36 C         -25.0929    7.3716   32.6054 C.2     1  UNL1        0.0002
     37 N         -24.3362    1.5811   26.6809 N.3     1  UNL1       -0.2384
     38 C         -25.6653    4.6363   32.5499 C.2     1  UNL1        0.1386
     39 C         -26.4558    5.5240   31.7658 C.2     1  UNL1        0.0369
     40 C         -24.2417    6.4883   33.3160 C.2     1  UNL1        0.0031
     41 O         -22.2810    2.1010   25.8752 O.3     1  UNL1       -0.3083
     42 C         -25.3002    1.8041   30.8867 C.3     1  UNL1        0.0452
     43 C         -26.2023    6.9197   31.8059 C.2     1  UNL1        0.0031
     44 C         -24.5139    5.0828   33.2847 C.2     1  UNL1        0.0369
@<TRIPOS>BOND
     1     2     7    1
     2     2     1    1
     3     3     2    2
     4     4     3    1
     5     4     5    2
     6     5     6    1
     7     6     7    2
     8     8     1    1
     9     8     9    1
    10     8    12    1
    11     9    42    1
    12     9    10    1
    13    10    11    1
    14    12    11    1
    15    13    14    1
    16    13    37    1
    17    14    15    1
    18    15    18    2
    19    16    17    1
    20    16    15    1
    21    19    14    2
    22    20    21    2
    23    20    19    1
    24    21    26    1
    25    22    21    1
    26    23    22    1
    27    24    23    1
    28    24    25    1
    29    26    27    1
    30    26    13    1
    31    28    30    1
    32    30    32    1
    33    33    28    1
    34    33    29    1
    35    34    41    1
    36    35    31    1
    37    36    40    1
    38    37    34    1
    39    37    28    1
    40    38    31    1
    41    38    44    1
    42    39    43    1
    43    39    38    2
    44    41    33    1
    45    42    32    1
    46    42    35    1
    47    43    36    2
    48    44    40    2
