@<TRIPOS>MOLECULE
outputs/IAG933/test6/raw/output_8626_IAG933_linker_design_.xyz
 44 47 0 0 0
SMALL
GASTEIGER

@<TRIPOS>ATOM
      1 C         -24.8550   -1.0120   30.1430 C.3     1  UNL1        0.1333
      2 C         -24.9730   -2.5050   29.7880 C.2     1  UNL1       -0.0012
      3 C         -23.9060   -3.1730   29.1460 C.2     1  UNL1       -0.0026
      4 C         -23.9890   -4.5490   28.8530 C.2     1  UNL1       -0.0003
      5 C         -25.1370   -5.2800   29.2050 C.2     1  UNL1       -0.0000
      6 C         -26.2320   -4.6110   29.7840 C.2     1  UNL1       -0.0003
      7 C         -26.1550   -3.2320   30.0650 C.2     1  UNL1       -0.0026
      8 C         -25.3870   -0.6790   31.5710 C.3     1  UNL1        0.0969
      9 C         -25.1890    0.7730   32.0280 C.3     1  UNL1        0.0210
     10 C         -25.3360    0.6840   33.5440 C.3     1  UNL1        0.0203
     11 C         -24.8290   -0.7150   33.9050 C.3     1  UNL1        0.0888
     12 N         -24.7580   -1.4810   32.6460 N.3     1  UNL1       -0.2174
     13 C         -25.6880    1.6140   26.4610 C.3     1  UNL1        0.0882
     14 C         -26.2500    2.9200   26.3950 C.2     1  UNL1        0.0540
     15 C         -25.6420    4.0930   27.1230 C.2     1  UNL1        0.2189
     16 N         -25.6140    5.2520   26.4490 N.2     1  UNL1       -0.2359
     17 C         -25.0260    6.4790   26.9630 C.3     1  UNL1        0.1550
     18 O         -25.1430    3.9660   28.2430 O.2     1  UNL1       -0.4448
     19 C         -27.4380    3.0910   25.6450 C.2     1  UNL1        0.1022
     20 N         -28.0750    2.0890   25.0030 N.2     1  UNL1       -0.2119
     21 C         -27.5430    0.8490   25.0790 C.2     1  UNL1        0.2341
     22 O         -28.1930   -0.2080   24.4770 O.2     1  UNL1       -0.4585
     23 C         -29.4600    0.0050   23.8660 C.3     1  UNL1        0.2423
     24 C         -30.0650   -1.3770   23.5730 C.3     1  UNL1        0.2292
     25 O         -30.7290   -1.8780   24.7210 O.3     1  UNL1       -0.2162
     26 C         -26.3540    0.5760   25.7770 C.3     1  UNL1        0.2414
     27 F         -25.8600   -0.6810   25.7950 F       1  UNL1       -0.2268
     28 O         -26.7565    1.8463   29.4086 O.3     1  UNL1       -0.3528
     29 C         -24.1039    1.5950   26.6871 C.3     1  UNL1        0.1079
     30 N         -20.3266    1.5635   27.9574 N.2     1  UNL1       -0.1488
     31 C         -22.7878    2.9716   25.1395 C.3     1  UNL1        0.2348
     32 C         -27.4860    0.5680   29.0000 C.2     1  UNL1        0.5637
     33 C         -25.5585    4.3877   29.5273 C.3     1  UNL1        0.3061
     34 O         -26.9721   -0.5505   28.4462 O.co2   1  UNL1       -0.1992
     35 O         -22.7686    0.3982   29.7592 O.2     1  UNL1       -0.2733
     36 N         -24.5487   -0.3841   28.8725 N.am    1  UNL1       -0.2012
     37 S         -26.6173    3.3882   30.4228 S.3     1  UNL1        0.1230
     38 N         -23.9985    2.5952   25.6063 N.3     1  UNL1       -0.1876
     39 O         -21.9516    2.1802   25.6123 O.3     1  UNL1       -0.3313
     40 C         -24.2735    1.7056   28.2522 C.3     1  UNL1        0.1061
     41 C         -22.3624    1.5688   26.6837 C.3     1  UNL1        0.1751
     42 C         -21.5147    1.1096   27.7191 C.2     1  UNL1        0.1264
     43 C         -23.7762    0.6372   29.0452 C.2     1  UNL1        0.2431
     44 O         -28.6790    0.4708   29.2998 O.co2   1  UNL1       -0.1992
@<TRIPOS>BOND
     1     1    36    1
     2     2     7    1
     3     2     1    1
     4     3     2    2
     5     4     3    1
     6     4     5    2
     7     5     6    1
     8     6     7    2
     9     8     1    1
    10     8     9    1
    11     8    12    1
    12     9    10    1
    13    10    11    1
    14    12    11    1
    15    13    14    1
    16    13    29    1
    17    14    15    1
    18    15    18    1
    19    16    17    1
    20    16    15    2
    21    18    33    1
    22    19    14    2
    23    20    21    2
    24    20    19    1
    25    21    26    1
    26    22    21    1
    27    23    22    1
    28    24    23    1
    29    24    25    1
    30    26    27    1
    31    26    13    1
    32    28    37    1
    33    29    40    1
    34    31    38    1
    35    31    39    1
    36    32    44   ar
    37    32    28    1
    38    33    37    1
    39    34    32   ar
    40    36    43    1
    41    38    29    1
    42    39    41    1
    43    40    43    1
    44    41    29    1
    45    41    42    1
    46    42    30    2
    47    43    35    2
