@<TRIPOS>MOLECULE
outputs/IAG933/test6/raw/output_8627_IAG933_linker_design_.xyz
 44 48 0 0 0
SMALL
GASTEIGER

@<TRIPOS>ATOM
      1 C         -24.8550   -1.0120   30.1430 C.3     1  UNL1        0.0814
      2 C         -24.9730   -2.5050   29.7880 C.2     1  UNL1       -0.0152
      3 C         -23.9060   -3.1730   29.1460 C.2     1  UNL1       -0.0038
      4 C         -23.9890   -4.5490   28.8530 C.2     1  UNL1       -0.0003
      5 C         -25.1370   -5.2800   29.2050 C.2     1  UNL1       -0.0000
      6 C         -26.2320   -4.6110   29.7840 C.2     1  UNL1       -0.0003
      7 C         -26.1550   -3.2320   30.0650 C.2     1  UNL1       -0.0038
      8 C         -25.3870   -0.6790   31.5710 C.3     1  UNL1        0.0827
      9 C         -25.1890    0.7730   32.0280 C.3     1  UNL1        0.0196
     10 C         -25.3360    0.6840   33.5440 C.3     1  UNL1        0.0203
     11 C         -24.8290   -0.7150   33.9050 C.3     1  UNL1        0.0887
     12 N         -24.7580   -1.4810   32.6460 N.3     1  UNL1       -0.2187
     13 C         -25.6880    1.6140   26.4610 C.2     1  UNL1        0.0337
     14 C         -26.2500    2.9200   26.3950 C.2     1  UNL1        0.0741
     15 C         -25.6420    4.0930   27.1230 C.2     1  UNL1        0.2662
     16 N         -25.6140    5.2520   26.4490 N.am    1  UNL1       -0.1997
     17 C         -25.0260    6.4790   26.9630 C.3     1  UNL1        0.1388
     18 O         -25.1430    3.9660   28.2430 O.2     1  UNL1       -0.2683
     19 C         -27.4380    3.0910   25.6450 C.2     1  UNL1        0.1065
     20 N         -28.0750    2.0890   25.0030 N.2     1  UNL1       -0.2081
     21 C         -27.5430    0.8490   25.0790 C.2     1  UNL1        0.2530
     22 O         -28.1930   -0.2080   24.4770 O.2     1  UNL1       -0.4558
     23 C         -29.4600    0.0050   23.8660 C.3     1  UNL1        0.2426
     24 C         -30.0650   -1.3770   23.5730 C.3     1  UNL1        0.2292
     25 O         -30.7290   -1.8780   24.7210 O.3     1  UNL1       -0.2162
     26 C         -26.3540    0.5760   25.7770 C.2     1  UNL1        0.1907
     27 F         -25.8600   -0.6810   25.7950 F       1  UNL1       -0.1995
     28 C         -25.5406   -0.1833   29.0358 C.2     1  UNL1        0.0651
     29 C         -30.6729   -2.8629   27.4082 C.3     1  UNL1        0.0025
     30 C         -30.0046   -0.4164   27.5509 C.3     1  UNL1        0.0075
     31 N         -24.6292    0.4559   28.2907 N.pl3   1  UNL1       -0.3026
     32 O         -29.0801   -2.4555   30.6290 O.3     1  UNL1       -0.2228
     33 C         -30.3700   -3.2606   28.8720 C.3     1  UNL1        0.0308
     34 C         -30.8538   -4.3763   29.6328 C.3     1  UNL1        0.0026
     35 C         -24.7446    1.1190   27.3464 C.3     1  UNL1        0.0981
     36 C         -29.3484   -0.8396   28.8739 C.3     1  UNL1        0.0602
     37 C         -23.2388    0.2942   28.8113 C.3     1  UNL1        0.0913
     38 C         -26.9666    0.0287   28.9383 C.1     1  UNL1       -0.0952
     39 C         -31.1240   -1.4449   27.4026 C.3     1  UNL1        0.0005
     40 C         -21.1205    1.1615   27.2428 C.3     1  UNL1        0.0018
     41 C         -23.3968    1.5053   26.7707 C.3     1  UNL1        0.0261
     42 C         -22.5064    1.1505   27.7787 C.3     1  UNL1        0.0218
     43 C         -28.3631    0.1646   29.3352 C.2     1  UNL1        0.0183
     44 C         -29.7401   -2.1327   29.4914 C.3     1  UNL1        0.1565
@<TRIPOS>BOND
     1     1    28    1
     2     2     7    1
     3     2     1    1
     4     3     2    2
     5     4     3    1
     6     4     5    2
     7     5     6    1
     8     6     7    2
     9     8     1    1
    10     8     9    1
    11     8    12    1
    12     9    10    1
    13    10    11    1
    14    12    11    1
    15    14    13    1
    16    14    15    1
    17    15    18    2
    18    16    17    1
    19    16    15    1
    20    19    14    2
    21    20    21    2
    22    20    19    1
    23    21    26    1
    24    22    21    1
    25    23    22    1
    26    24    23    1
    27    24    25    1
    28    26    27    1
    29    26    13    2
    30    29    33    1
    31    30    36    1
    32    31    37    1
    33    31    28    1
    34    33    44    1
    35    33    34    1
    36    35    13    1
    37    35    31    1
    38    36    43    1
    39    36    44    1
    40    38    28    2
    41    38    43    2
    42    39    29    1
    43    39    30    1
    44    41    35    1
    45    41    42    1
    46    42    40    1
    47    42    37    1
    48    44    32    1
