@<TRIPOS>MOLECULE
outputs/IAG933/test6/raw/output_8629_IAG933_linker_design_.xyz
 45 50 0 0 0
SMALL
GASTEIGER

@<TRIPOS>ATOM
      1 C         -24.8550   -1.0120   30.1430 C.3     1  UNL1        0.0454
      2 C         -24.9730   -2.5050   29.7880 C.2     1  UNL1       -0.0207
      3 C         -23.9060   -3.1730   29.1460 C.2     1  UNL1       -0.0042
      4 C         -23.9890   -4.5490   28.8530 C.2     1  UNL1       -0.0003
      5 C         -25.1370   -5.2800   29.2050 C.2     1  UNL1       -0.0000
      6 C         -26.2320   -4.6110   29.7840 C.2     1  UNL1       -0.0003
      7 C         -26.1550   -3.2320   30.0650 C.2     1  UNL1       -0.0042
      8 C         -25.3870   -0.6790   31.5710 C.3     1  UNL1        0.0952
      9 C         -25.1890    0.7730   32.0280 C.3     1  UNL1        0.0930
     10 C         -25.3360    0.6840   33.5440 C.3     1  UNL1        0.0400
     11 C         -24.8290   -0.7150   33.9050 C.3     1  UNL1        0.0905
     12 N         -24.7580   -1.4810   32.6460 N.3     1  UNL1       -0.2174
     13 C         -25.6880    1.6140   26.4610 C.3     1  UNL1        0.0881
     14 C         -26.2500    2.9200   26.3950 C.2     1  UNL1        0.0586
     15 C         -25.6420    4.0930   27.1230 C.2     1  UNL1        0.2627
     16 N         -25.6140    5.2520   26.4490 N.am    1  UNL1       -0.2000
     17 C         -25.0260    6.4790   26.9630 C.3     1  UNL1        0.1388
     18 O         -25.1430    3.9660   28.2430 O.2     1  UNL1       -0.2686
     19 C         -27.4380    3.0910   25.6450 C.2     1  UNL1        0.1025
     20 N         -28.0750    2.0890   25.0030 N.2     1  UNL1       -0.2118
     21 C         -27.5430    0.8490   25.0790 C.2     1  UNL1        0.2344
     22 O         -28.1930   -0.2080   24.4770 O.2     1  UNL1       -0.4585
     23 C         -29.4600    0.0050   23.8660 C.3     1  UNL1        0.2423
     24 C         -30.0650   -1.3770   23.5730 C.3     1  UNL1        0.2292
     25 O         -30.7290   -1.8780   24.7210 O.3     1  UNL1       -0.2162
     26 C         -26.3540    0.5760   25.7770 C.3     1  UNL1        0.2437
     27 F         -25.8600   -0.6810   25.7950 F       1  UNL1       -0.2265
     28 C         -27.4174    7.4112   33.9002 C.2     1  UNL1       -0.0000
     29 C         -27.1769    6.3054   34.7700 C.2     1  UNL1       -0.0003
     30 N         -24.9292    2.0120   31.3141 N.am    1  UNL1       -0.2795
     31 C         -21.9567    1.9350   25.9269 C.3     1  UNL1        0.0254
     32 C         -27.1427    3.2595   32.2864 C.3     1  UNL1        0.1116
     33 C         -23.7215    1.6431   27.9988 C.3     1  UNL1        0.0201
     34 C         -27.0279    4.9972   34.2434 C.2     1  UNL1       -0.0038
     35 C         -25.7384    3.1823   31.5266 C.2     1  UNL1        0.2301
     36 C         -23.8492    2.0177   30.4144 C.3     1  UNL1        0.0937
     37 C         -27.2049    4.7003   32.8597 C.2     1  UNL1       -0.0131
     38 C         -23.3975    1.9609   25.6160 C.2     1  UNL1       -0.0342
     39 O         -25.2046    4.2216   31.2448 O.2     1  UNL1       -0.2745
     40 C         -27.3709    5.8324   31.9650 C.2     1  UNL1       -0.0038
     41 C         -23.4433    1.8210   29.0629 C.3     1  UNL1        0.0239
     42 C         -21.4341    1.7343   27.2685 C.3     1  UNL1        0.0050
     43 C         -27.4358    7.1708   32.4847 C.2     1  UNL1       -0.0003
     44 C         -22.5594    1.4587   28.2735 C.3     1  UNL1        0.0061
     45 C         -24.3459    1.6640   26.7350 C.2     1  UNL1       -0.0417
@<TRIPOS>BOND
     1     2     7    1
     2     2     1    1
     3     3     2    2
     4     4     3    1
     5     4     5    2
     6     5     6    1
     7     6     7    2
     8     8     1    1
     9     8     9    1
    10     8    12    1
    11     9    30    1
    12     9    10    1
    13    10    11    1
    14    12    11    1
    15    13    45    1
    16    14    13    1
    17    14    15    1
    18    15    18    2
    19    16    17    1
    20    16    15    1
    21    19    14    2
    22    20    21    2
    23    20    19    1
    24    21    26    1
    25    22    21    1
    26    23    22    1
    27    24    23    1
    28    24    25    1
    29    26    27    1
    30    26    13    1
    31    28    29    1
    32    30    35   am
    33    31    42    1
    34    32    37    1
    35    33    45    1
    36    33    44    1
    37    33    41    1
    38    34    29    2
    39    35    32    1
    40    36    30    1
    41    37    34    1
    42    38    31    1
    43    38    45    2
    44    39    35    2
    45    40    43    1
    46    40    37    2
    47    41    36    1
    48    43    28    2
    49    44    42    1
    50    44    41    1
