@<TRIPOS>MOLECULE
outputs/IAG933/test6/raw/output_863_IAG933_linker_design_.xyz
 44 47 0 0 0
SMALL
GASTEIGER

@<TRIPOS>ATOM
      1 C         -24.8550   -1.0120   30.1430 C.3     1  UNL1        0.0969
      2 C         -24.9730   -2.5050   29.7880 C.2     1  UNL1       -0.0064
      3 C         -23.9060   -3.1730   29.1460 C.2     1  UNL1       -0.0029
      4 C         -23.9890   -4.5490   28.8530 C.2     1  UNL1       -0.0003
      5 C         -25.1370   -5.2800   29.2050 C.2     1  UNL1       -0.0000
      6 C         -26.2320   -4.6110   29.7840 C.2     1  UNL1       -0.0003
      7 C         -26.1550   -3.2320   30.0650 C.2     1  UNL1       -0.0029
      8 C         -25.3870   -0.6790   31.5710 C.3     1  UNL1        0.0916
      9 C         -25.1890    0.7730   32.0280 C.3     1  UNL1        0.0206
     10 C         -25.3360    0.6840   33.5440 C.3     1  UNL1        0.0203
     11 C         -24.8290   -0.7150   33.9050 C.3     1  UNL1        0.0888
     12 N         -24.7580   -1.4810   32.6460 N.3     1  UNL1       -0.2178
     13 C         -25.6880    1.6140   26.4610 C.2     1  UNL1        0.0380
     14 C         -26.2500    2.9200   26.3950 C.2     1  UNL1        0.0741
     15 C         -25.6420    4.0930   27.1230 C.2     1  UNL1        0.2219
     16 N         -25.6140    5.2520   26.4490 N.2     1  UNL1       -0.2357
     17 C         -25.0260    6.4790   26.9630 C.3     1  UNL1        0.1550
     18 O         -25.1430    3.9660   28.2430 O.2     1  UNL1       -0.4616
     19 C         -27.4380    3.0910   25.6450 C.2     1  UNL1        0.1068
     20 N         -28.0750    2.0890   25.0030 N.2     1  UNL1       -0.2081
     21 C         -27.5430    0.8490   25.0790 C.2     1  UNL1        0.2533
     22 O         -28.1930   -0.2080   24.4770 O.2     1  UNL1       -0.4558
     23 C         -29.4600    0.0050   23.8660 C.3     1  UNL1        0.2426
     24 C         -30.0650   -1.3770   23.5730 C.3     1  UNL1        0.2292
     25 O         -30.7290   -1.8780   24.7210 O.3     1  UNL1       -0.2162
     26 C         -26.3540    0.5760   25.7770 C.2     1  UNL1        0.1929
     27 F         -25.8600   -0.6810   25.7950 F       1  UNL1       -0.1992
     28 N         -25.1570   -0.1436   29.0029 N.3     1  UNL1       -0.2554
     29 C         -26.4938   -0.0575   28.5073 C.3     1  UNL1        0.1054
     30 O         -22.8878    2.3035   29.5386 O.co2   1  UNL1       -0.2438
     31 O         -27.9454    2.0013   28.9524 O.3     1  UNL1       -0.3485
     32 C         -26.0608    5.0410   30.2938 C.3     1  UNL1        0.0500
     33 C         -23.2534    1.9342   26.4150 C.2     1  UNL1        0.1815
     34 F         -21.2353    1.6488   27.7766 F       1  UNL1       -0.1907
     35 F         -23.5678    2.5754   25.2949 F       1  UNL1       -0.2033
     36 C         -27.3293    3.2175   29.3982 C.3     1  UNL1        0.1855
     37 F         -21.1162    1.8424   25.5795 F       1  UNL1       -0.1907
     38 C         -23.1022    1.1160   29.3071 C.2     1  UNL1        0.3832
     39 C         -25.8378    3.7364   29.5335 C.3     1  UNL1        0.1971
     40 C         -24.3885    1.3786   27.1367 C.2     1  UNL1        0.0344
     41 C         -21.7782    1.8792   26.6434 C.3     1  UNL1        0.3674
     42 O         -22.4205    0.1722   29.8665 O.co2   1  UNL1       -0.2438
     43 C         -24.2078    0.7728   28.4367 C.3     1  UNL1        0.1872
     44 C         -27.6631    0.4465   29.3469 C.3     1  UNL1        0.1596
@<TRIPOS>BOND
     1     1     2    1
     2     2     7    1
     3     3     2    2
     4     4     3    1
     5     4     5    2
     6     5     6    1
     7     6     7    2
     8     8     1    1
     9     8     9    1
    10     8    12    1
    11     9    10    1
    12    10    11    1
    13    12    11    1
    14    13    40    1
    15    14    13    1
    16    14    15    1
    17    15    18    1
    18    16    17    1
    19    16    15    2
    20    18    39    1
    21    19    14    2
    22    20    21    2
    23    20    19    1
    24    21    26    1
    25    22    21    1
    26    23    22    1
    27    24    23    1
    28    24    25    1
    29    26    27    1
    30    26    13    2
    31    28     1    1
    32    29    28    1
    33    29    44    1
    34    31    44    1
    35    31    36    1
    36    33    41    1
    37    33    40    2
    38    35    33    1
    39    36    39    1
    40    37    41    1
    41    38    30   ar
    42    38    42   ar
    43    39    32    1
    44    40    43    1
    45    41    34    1
    46    43    28    1
    47    43    38    1
