@<TRIPOS>MOLECULE
outputs/IAG933/test6/raw/output_8632_IAG933_linker_design_.xyz
 40 43 0 0 0
SMALL
GASTEIGER

@<TRIPOS>ATOM
      1 C         -24.8550   -1.0120   30.1430 C.3     0  UNK0        0.0477
      2 C         -24.9730   -2.5050   29.7880 C.2     0  UNK0       -0.0205
      3 C         -23.9060   -3.1730   29.1460 C.2     0  UNK0       -0.0042
      4 C         -23.9890   -4.5490   28.8530 C.2     0  UNK0       -0.0003
      5 C         -25.1370   -5.2800   29.2050 C.2     0  UNK0       -0.0000
      6 C         -26.2320   -4.6110   29.7840 C.2     0  UNK0       -0.0003
      7 C         -26.1550   -3.2320   30.0650 C.2     0  UNK0       -0.0042
      8 C         -25.3870   -0.6790   31.5710 C.3     0  UNK0        0.0775
      9 C         -25.1890    0.7730   32.0280 C.3     0  UNK0        0.0192
     10 C         -25.3360    0.6840   33.5440 C.3     0  UNK0        0.0202
     11 C         -24.8290   -0.7150   33.9050 C.3     0  UNK0        0.0887
     12 N         -24.7580   -1.4810   32.6460 N.3     0  UNK0       -0.2191
     13 C         -25.6880    1.6140   26.4610 C.2     0  UNK0        0.0387
     14 C         -26.2500    2.9200   26.3950 C.2     0  UNK0        0.0766
     15 C         -25.6420    4.0930   27.1230 C.2     0  UNK0        0.2664
     16 N         -25.6140    5.2520   26.4490 N.am    0  UNK0       -0.1997
     17 C         -25.0260    6.4790   26.9630 C.3     0  UNK0        0.1388
     18 O         -25.1430    3.9660   28.2430 O.2     0  UNK0       -0.2683
     19 C         -27.4380    3.0910   25.6450 C.2     0  UNK0        0.1067
     20 N         -28.0750    2.0890   25.0030 N.2     0  UNK0       -0.2081
     21 C         -27.5430    0.8490   25.0790 C.2     0  UNK0        0.2533
     22 O         -28.1930   -0.2080   24.4770 O.2     0  UNK0       -0.4558
     23 C         -29.4600    0.0050   23.8660 C.3     0  UNK0        0.2426
     24 C         -30.0650   -1.3770   23.5730 C.3     0  UNK0        0.2292
     25 O         -30.7290   -1.8780   24.7210 O.3     0  UNK0       -0.2162
     26 C         -26.3540    0.5760   25.7770 C.2     0  UNK0        0.1931
     27 F         -25.8600   -0.6810   25.7950 F       0  UNK0       -0.1992
     28 C         -25.2549    0.5610   28.4363 C.2     0  UNK0        0.0468
     29 C         -24.3813    0.0667   29.2994 C.3     0  UNK0        0.0647
     30 C         -22.0997    0.9081   27.0837 C.2     0  UNK0       -0.0045
     31 C         -23.3401    1.2007   25.1706 C.3     0  UNK0        0.0311
     32 CB        -29.1567   -1.7359   29.5136 C.3     1  ALA1        0.0261
     33 C         -28.7667    0.7179   30.0203 C.3     1  ALA1        0.2034
     34 C         -23.4013    1.1280   26.5319 C.2     0  UNK0       -0.0208
     35 CA        -28.1930   -0.5092   29.3093 C.3     1  ALA1        0.1250
     36 C         -22.9994    0.3466   29.4515 C.2     0  UNK0       -0.0204
     37 C         -24.7536    1.1824   27.1789 C.2     0  UNK0        0.0097
     38 N         -26.6670    0.1114   28.7261 N.pl3   1  ALA1       -0.2407
     39 O         -30.1715    0.7512   30.0178 O.3     1  ALA1       -0.2185
     40 C         -21.9013    0.7507   28.4832 C.2     0  UNK0       -0.0045
@<TRIPOS>BOND
     1     1     2    1
     2     2     7    1
     3     3     2    2
     4     4     3    1
     5     4     5    2
     6     5     6    1
     7     6     7    2
     8     8     1    1
     9     8     9    1
    10     8    12    1
    11     9    10    1
    12    10    11    1
    13    12    11    1
    14    13    37    1
    15    14    13    1
    16    14    15    1
    17    15    18    2
    18    16    17    1
    19    16    15    1
    20    19    14    2
    21    20    21    2
    22    20    19    1
    23    21    26    1
    24    22    21    1
    25    23    22    1
    26    24    23    1
    27    24    25    1
    28    26    27    1
    29    26    13    2
    30    28    38    1
    31    28    29    1
    32    29    36    1
    33    29     1    1
    34    30    40    1
    35    31    34    1
    36    34    30    2
    37    34    37    1
    38    35    32    1
    39    35    33    1
    40    37    28    2
    41    38    35    1
    42    39    33    1
    43    40    36    2
