@<TRIPOS>MOLECULE
outputs/IAG933/test6/raw/output_8638_IAG933_linker_design_.xyz
 42 45 0 0 0
SMALL
GASTEIGER

@<TRIPOS>ATOM
      1 C         -24.8550   -1.0120   30.1430 C.3     1  UNL1        0.1335
      2 C         -24.9730   -2.5050   29.7880 C.2     1  UNL1       -0.0032
      3 C         -23.9060   -3.1730   29.1460 C.2     1  UNL1       -0.0028
      4 C         -23.9890   -4.5490   28.8530 C.2     1  UNL1       -0.0003
      5 C         -25.1370   -5.2800   29.2050 C.2     1  UNL1       -0.0000
      6 C         -26.2320   -4.6110   29.7840 C.2     1  UNL1       -0.0003
      7 C         -26.1550   -3.2320   30.0650 C.2     1  UNL1       -0.0028
      8 C         -25.3870   -0.6790   31.5710 C.3     1  UNL1        0.0948
      9 C         -25.1890    0.7730   32.0280 C.3     1  UNL1        0.0207
     10 C         -25.3360    0.6840   33.5440 C.3     1  UNL1        0.0203
     11 C         -24.8290   -0.7150   33.9050 C.3     1  UNL1        0.0888
     12 N         -24.7580   -1.4810   32.6460 N.3     1  UNL1       -0.2176
     13 C         -25.6880    1.6140   26.4610 C.3     1  UNL1        0.0716
     14 C         -26.2500    2.9200   26.3950 C.2     1  UNL1        0.0548
     15 C         -25.6420    4.0930   27.1230 C.2     1  UNL1        0.2624
     16 N         -25.6140    5.2520   26.4490 N.am    1  UNL1       -0.2000
     17 C         -25.0260    6.4790   26.9630 C.3     1  UNL1        0.1388
     18 O         -25.1430    3.9660   28.2430 O.2     1  UNL1       -0.2687
     19 C         -27.4380    3.0910   25.6450 C.2     1  UNL1        0.1021
     20 N         -28.0750    2.0890   25.0030 N.2     1  UNL1       -0.2119
     21 C         -27.5430    0.8490   25.0790 C.2     1  UNL1        0.2341
     22 O         -28.1930   -0.2080   24.4770 O.2     1  UNL1       -0.4585
     23 C         -29.4600    0.0050   23.8660 C.3     1  UNL1        0.2423
     24 C         -30.0650   -1.3770   23.5730 C.3     1  UNL1        0.2292
     25 O         -30.7290   -1.8780   24.7210 O.3     1  UNL1       -0.2162
     26 C         -26.3540    0.5760   25.7770 C.3     1  UNL1        0.2400
     27 F         -25.8600   -0.6810   25.7950 F       1  UNL1       -0.2269
     28 F         -20.8767    1.9919   27.1790 F       1  UNL1       -0.1987
     29 C         -25.6498    5.5547   32.0172 C.3     1  UNL1        0.0850
     30 C         -21.1156    0.9702   28.0523 C.2     1  UNL1        0.2021
     31 C         -23.3414    1.6754   28.7120 C.3     1  UNL1        0.1092
     32 C         -25.9725    5.0735   33.2003 C.3     1  UNL1        0.1862
     33 O         -24.8411    3.5108   30.8372 O.3     1  UNL1       -0.3377
     34 N         -23.9899   -0.3346   29.2750 N.3     1  UNL1       -0.1181
     35 O         -22.3852   -0.2761   29.6118 O.2     1  UNL1       -0.4030
     36 C         -24.2297    1.2857   26.7746 C.3     1  UNL1        0.0277
     37 C         -22.1140    0.8482   28.7957 C.2     1  UNL1        0.1756
     38 C         -24.1942    0.3690   28.0383 C.3     1  UNL1        0.1059
     39 O         -26.6290    3.9363   33.3192 O.3     1  UNL1       -0.2203
     40 C         -24.3457    2.2215   29.7452 C.3     1  UNL1        0.1529
     41 N         -27.3653    4.7401   30.5921 N.3     1  UNL1       -0.1001
     42 C         -26.0837    4.7698   31.0987 C.3     1  UNL1        0.2088
@<TRIPOS>BOND
     1     1     2    1
     2     2     7    1
     3     3     2    2
     4     4     3    1
     5     4     5    2
     6     5     6    1
     7     6     7    2
     8     8     1    1
     9     8     9    1
    10     8    12    1
    11     9    10    1
    12    10    11    1
    13    12    11    1
    14    13    36    1
    15    14    13    1
    16    14    15    1
    17    15    18    2
    18    16    17    1
    19    16    15    1
    20    19    14    2
    21    20    21    2
    22    20    19    1
    23    21    26    1
    24    22    21    1
    25    23    22    1
    26    24    23    1
    27    24    25    1
    28    26    27    1
    29    26    13    1
    30    28    30    1
    31    29    32    1
    32    30    37    2
    33    31    37    1
    34    31    40    1
    35    32    39    1
    36    33    42    1
    37    34    35    1
    38    34     1    1
    39    37    35    1
    40    38    36    1
    41    38    31    1
    42    38    34    1
    43    40    33    1
    44    42    41    1
    45    42    29    1
