@<TRIPOS>MOLECULE
No_864-gen_results/8p0m/2024-11-27-11-27-31/
 26 31 0 0 0
SMALL
GASTEIGER

@<TRIPOS>ATOM
      1 C         -28.0162   -0.8135   28.8779 C.ar    1  UNL1       -0.0003
      2 C         -28.4690   -0.7850   29.8287 C.ar    1  UNL1       -0.0003
      3 C         -27.0871    0.2903   28.6377 C.ar    1  UNL1       -0.0046
      4 C         -26.7676    1.0274   29.4716 C.ar    1  UNL1       -0.0266
      5 C         -28.2764    0.0268   31.0145 C.ar    1  UNL1       -0.0046
      6 C         -27.3287    1.0538   30.7535 C.ar    1  UNL1       -0.0261
      7 C         -25.8480    2.2567   29.4277 C.3     1  UNL1        0.0228
      8 C         -25.5646    2.6421   28.0994 C.3     1  UNL1        0.0080
      9 C         -24.6795    1.7957   27.4049 C.3     1  UNL1        0.0258
     10 C         -23.4996    1.4150   28.0755 C.2     1  UNL1       -0.0049
     11 C         -22.2290    1.4501   27.4882 C.2     1  UNL1       -0.0019
     12 C         -21.0770    1.0713   28.2672 C.2     1  UNL1        0.0395
     13 C         -23.2958    1.4818   29.4991 C.3     1  UNL1        0.1846
     14 O         -22.3121    0.8779   30.1420 O.2     1  UNL1       -0.4720
     15 C         -21.1561    0.7648   29.5621 C.2     1  UNL1        0.1725
     16 C         -24.3906    1.8991   30.0091 C.3     1  UNL1        0.0478
     17 C         -26.4081    3.4590   30.2105 C.3     1  UNL1        0.0077
     18 C         -26.5459    4.6485   29.5462 C.3     1  UNL1        0.0006
     19 C         -26.1651    4.8346   28.2579 C.3     1  UNL1        0.0000
     20 C         -25.8068    3.8619   27.4429 C.3     1  UNL1        0.0006
     21 C         -27.7243    2.9037   30.8607 C.3     1  UNL1        0.0263
     22 C         -25.4957    3.7713   31.5675 C.3     1  UNL1        0.0020
     23 C         -25.8197    4.8160   32.3669 C.3     1  UNL1        0.0175
     24 C         -24.4010    2.7523   31.6077 C.3     1  UNL1        0.0043
     25 C         -25.4734    5.9659   31.9770 C.3     1  UNL1        0.0949
     26 CL        -25.9151    7.2398   32.0229 Cl      1  UNL1       -0.1137
@<TRIPOS>BOND
     1     4     7    1
     2     7     8    1
     3     8     9    1
     4     9    10    1
     5    10    11    2
     6    11    12    1
     7    10    13    1
     8    13    14    1
     9    12    15    2
    10    14    15    1
    11     7    16    1
    12    13    16    1
    13     7    17    1
    14    17    18    1
    15     8    20    1
    16    19    20    1
    17     6    21    1
    18    17    21    1
    19    17    22    1
    20    22    23    1
    21    16    24    1
    22    22    24    1
    23    23    25    1
    24    25    26    1
    25    19    18    1
    26     1     2   ar
    27     2     5   ar
    28     5     6   ar
    29     6     4   ar
    30     4     3   ar
    31     3     1   ar
