@<TRIPOS>MOLECULE
outputs/IAG933/test6/raw/output_8640_IAG933_linker_design_.xyz
 45 49 0 0 0
SMALL
GASTEIGER

@<TRIPOS>ATOM
      1 C         -24.8550   -1.0120   30.1430 C.3     1  UNL1        0.0438
      2 C         -24.9730   -2.5050   29.7880 C.2     1  UNL1       -0.0208
      3 C         -23.9060   -3.1730   29.1460 C.2     1  UNL1       -0.0042
      4 C         -23.9890   -4.5490   28.8530 C.2     1  UNL1       -0.0003
      5 C         -25.1370   -5.2800   29.2050 C.2     1  UNL1       -0.0000
      6 C         -26.2320   -4.6110   29.7840 C.2     1  UNL1       -0.0003
      7 C         -26.1550   -3.2320   30.0650 C.2     1  UNL1       -0.0042
      8 C         -25.3870   -0.6790   31.5710 C.3     1  UNL1        0.0786
      9 C         -25.1890    0.7730   32.0280 C.3     1  UNL1        0.0376
     10 C         -25.3360    0.6840   33.5440 C.3     1  UNL1        0.0217
     11 C         -24.8290   -0.7150   33.9050 C.3     1  UNL1        0.0888
     12 N         -24.7580   -1.4810   32.6460 N.3     1  UNL1       -0.2191
     13 C         -25.6880    1.6140   26.4610 C.2     1  UNL1        0.0872
     14 C         -26.2500    2.9200   26.3950 C.2     1  UNL1        0.0899
     15 C         -25.6420    4.0930   27.1230 C.2     1  UNL1        0.2676
     16 N         -25.6140    5.2520   26.4490 N.am    1  UNL1       -0.1997
     17 C         -25.0260    6.4790   26.9630 C.3     1  UNL1        0.1388
     18 O         -25.1430    3.9660   28.2430 O.2     1  UNL1       -0.2683
     19 C         -27.4380    3.0910   25.6450 C.2     1  UNL1        0.1080
     20 N         -28.0750    2.0890   25.0030 N.2     1  UNL1       -0.2080
     21 C         -27.5430    0.8490   25.0790 C.2     1  UNL1        0.2546
     22 O         -28.1930   -0.2080   24.4770 O.2     1  UNL1       -0.4558
     23 C         -29.4600    0.0050   23.8660 C.3     1  UNL1        0.2426
     24 C         -30.0650   -1.3770   23.5730 C.3     1  UNL1        0.2292
     25 O         -30.7290   -1.8780   24.7210 O.3     1  UNL1       -0.2162
     26 C         -26.3540    0.5760   25.7770 C.2     1  UNL1        0.2063
     27 F         -25.8600   -0.6810   25.7950 F       1  UNL1       -0.1979
     28 C         -27.4082    5.4152   31.7269 C.2     1  UNL1        0.0500
     29 C         -26.7180    7.5941   35.3180 C.3     1  UNL1        0.1356
     30 C         -26.4399    4.9383   32.6574 C.2     1  UNL1        0.1556
     31 C         -28.2815    6.4758   32.0260 C.2     1  UNL1        0.0465
     32 C         -22.0347    1.6683   27.1996 C.3     1  UNL1        0.0247
     33 C         -28.8617    8.3564   33.7747 C.3     1  UNL1        0.1351
     34 N         -27.0139    6.7886   34.0865 N.pl3   1  UNL1       -0.2317
     35 N         -24.5399    1.5231   27.1188 N.pl3   1  UNL1       -0.2933
     36 C         -23.2540    1.7639   26.2093 C.3     1  UNL1        0.0922
     37 C         -22.6432    1.4529   28.6481 C.3     1  UNL1        0.0398
     38 N         -28.0456    7.1774   33.2584 N.pl3   1  UNL1       -0.2395
     39 O         -25.6983    3.7419   32.4553 O.2     1  UNL1       -0.4726
     40 C         -25.1092    1.8600   30.9409 C.3     1  UNL1        0.1194
     41 C         -26.1579    2.8901   31.3798 C.3     1  UNL1        0.2227
     42 C         -24.1651    1.5926   28.4537 C.3     1  UNL1        0.1476
     43 N         -25.0206    1.6298   29.4933 N.3     1  UNL1       -0.1976
     44 C         -26.2670    5.6453   33.8713 C.2     1  UNL1        0.1170
     45 C         -29.3879    6.8414   31.0686 C.3     1  UNL1        0.0489
@<TRIPOS>BOND
     1     2     7    1
     2     2     1    1
     3     3     2    2
     4     4     3    1
     5     4     5    2
     6     5     6    1
     7     6     7    2
     8     8     1    1
     9     8     9    1
    10     8    12    1
    11     9    40    1
    12     9    10    1
    13    10    11    1
    14    12    11    1
    15    13    35    1
    16    14    13    1
    17    14    15    1
    18    15    18    2
    19    16    17    1
    20    16    15    1
    21    19    14    2
    22    20    21    2
    23    20    19    1
    24    21    26    1
    25    22    21    1
    26    23    22    1
    27    24    23    1
    28    24    25    1
    29    26    27    1
    30    26    13    2
    31    28    31    2
    32    28    30    1
    33    30    44    2
    34    31    38    1
    35    32    37    1
    36    34    29    1
    37    35    42    1
    38    36    35    1
    39    36    32    1
    40    38    33    1
    41    38    34    1
    42    39    30    1
    43    40    41    1
    44    41    39    1
    45    42    37    1
    46    42    43    1
    47    43    40    1
    48    44    34    1
    49    45    31    1
