@<TRIPOS>MOLECULE
outputs/IAG933/test6/raw/output_8642_IAG933_linker_design_.xyz
 45 49 0 0 0
SMALL
GASTEIGER

@<TRIPOS>ATOM
      1 C         -24.8550   -1.0120   30.1430 C.3     1  UNL1        0.2053
      2 C         -24.9730   -2.5050   29.7880 C.2     1  UNL1        0.0186
      3 C         -23.9060   -3.1730   29.1460 C.2     1  UNL1       -0.0008
      4 C         -23.9890   -4.5490   28.8530 C.2     1  UNL1       -0.0002
      5 C         -25.1370   -5.2800   29.2050 C.2     1  UNL1       -0.0000
      6 C         -26.2320   -4.6110   29.7840 C.2     1  UNL1       -0.0002
      7 C         -26.1550   -3.2320   30.0650 C.2     1  UNL1       -0.0008
      8 C         -25.3870   -0.6790   31.5710 C.3     1  UNL1        0.1170
      9 C         -25.1890    0.7730   32.0280 C.3     1  UNL1        0.0229
     10 C         -25.3360    0.6840   33.5440 C.3     1  UNL1        0.0204
     11 C         -24.8290   -0.7150   33.9050 C.3     1  UNL1        0.0888
     12 N         -24.7580   -1.4810   32.6460 N.3     1  UNL1       -0.2154
     13 C         -25.6880    1.6140   26.4610 C.2     1  UNL1        0.0369
     14 C         -26.2500    2.9200   26.3950 C.2     1  UNL1        0.0741
     15 C         -25.6420    4.0930   27.1230 C.2     1  UNL1        0.2222
     16 N         -25.6140    5.2520   26.4490 N.2     1  UNL1       -0.2356
     17 C         -25.0260    6.4790   26.9630 C.3     1  UNL1        0.1550
     18 O         -25.1430    3.9660   28.2430 O.2     1  UNL1       -0.4554
     19 C         -27.4380    3.0910   25.6450 C.2     1  UNL1        0.1068
     20 N         -28.0750    2.0890   25.0030 N.2     1  UNL1       -0.2081
     21 C         -27.5430    0.8490   25.0790 C.2     1  UNL1        0.2533
     22 O         -28.1930   -0.2080   24.4770 O.2     1  UNL1       -0.4558
     23 C         -29.4600    0.0050   23.8660 C.3     1  UNL1        0.2426
     24 C         -30.0650   -1.3770   23.5730 C.3     1  UNL1        0.2292
     25 O         -30.7290   -1.8780   24.7210 O.3     1  UNL1       -0.2162
     26 C         -26.3540    0.5760   25.7770 C.2     1  UNL1        0.1928
     27 F         -25.8600   -0.6810   25.7950 F       1  UNL1       -0.1992
     28 C         -27.5303    4.8477   31.0500 C.2     1  UNL1        0.0101
     29 C         -28.0978    5.8702   31.8748 C.2     1  UNL1       -0.0019
     30 C         -26.1743    4.9681   30.6090 C.2     1  UNL1        0.0197
     31 O         -27.7349    3.6971   29.0414 O.3     1  UNL1       -0.2152
     32 F         -20.8205    2.1485   27.4706 F       1  UNL1       -0.2050
     33 N         -22.1306    0.8148   28.8323 N.2     1  UNL1       -0.2025
     34 C         -27.3428    7.0124   32.2208 C.2     1  UNL1       -0.0003
     35 O         -25.7380    0.3907   28.7039 O.3     1  UNL1       -0.2082
     36 C         -26.0123    7.1191   31.8132 C.2     1  UNL1       -0.0002
     37 C         -23.0363    1.7318   26.7195 C.2     1  UNL1        0.0326
     38 O         -23.5559   -0.4912   30.1370 O.2     1  UNL1       -0.4592
     39 C         -25.4115    6.1010   31.0070 C.2     1  UNL1       -0.0009
     40 C         -24.4070    1.4315   27.1719 C.2     1  UNL1        0.0196
     41 C         -28.3259    3.8154   30.3131 C.3     1  UNL1        0.2084
     42 C         -25.4941    3.9577   29.6625 C.3     1  UNL1        0.2335
     43 C         -23.3703    0.4252   29.2213 C.2     1  UNL1        0.2342
     44 C         -24.5730    0.9363   28.5213 C.3     1  UNL1        0.2489
     45 C         -21.9873    1.5410   27.6644 C.3     1  UNL1        0.2884
@<TRIPOS>BOND
     1     1    38    1
     2     2     7    1
     3     2     1    1
     4     3     2    2
     5     4     3    1
     6     4     5    2
     7     5     6    1
     8     6     7    2
     9     8     1    1
    10     8     9    1
    11     8    12    1
    12     9    10    1
    13    10    11    1
    14    12    11    1
    15    13    40    1
    16    14    13    1
    17    14    15    1
    18    15    18    1
    19    16    17    1
    20    16    15    2
    21    18    42    1
    22    19    14    2
    23    20    21    2
    24    20    19    1
    25    21    26    1
    26    22    21    1
    27    23    22    1
    28    24    23    1
    29    24    25    1
    30    26    27    1
    31    26    13    2
    32    28    29    1
    33    29    34    2
    34    30    39    1
    35    30    28    2
    36    31    41    1
    37    33    43    2
    38    36    34    1
    39    37    40    2
    40    37    45    1
    41    39    36    2
    42    40    44    1
    43    41    28    1
    44    42    30    1
    45    43    38    1
    46    44    35    1
    47    44    43    1
    48    45    32    1
    49    45    33    1
