@<TRIPOS>MOLECULE
outputs/IAG933/test6/raw/output_8643_IAG933_linker_design_.xyz
 59 65 0 0 0
SMALL
GASTEIGER

@<TRIPOS>ATOM
      1 C         -24.8550   -1.0120   30.1430 C.3     1  UNL1        0.0437
      2 C         -24.9730   -2.5050   29.7880 C.2     1  UNL1       -0.0208
      3 C         -23.9060   -3.1730   29.1460 C.2     1  UNL1       -0.0042
      4 C         -23.9890   -4.5490   28.8530 C.2     1  UNL1       -0.0003
      5 C         -25.1370   -5.2800   29.2050 C.2     1  UNL1       -0.0000
      6 C         -26.2320   -4.6110   29.7840 C.2     1  UNL1       -0.0003
      7 C         -26.1550   -3.2320   30.0650 C.2     1  UNL1       -0.0042
      8 C         -25.3870   -0.6790   31.5710 C.3     1  UNL1        0.0775
      9 C         -25.1890    0.7730   32.0280 C.3     1  UNL1        0.0244
     10 C         -25.3360    0.6840   33.5440 C.3     1  UNL1        0.0206
     11 C         -24.8290   -0.7150   33.9050 C.3     1  UNL1        0.0887
     12 N         -24.7580   -1.4810   32.6460 N.3     1  UNL1       -0.2191
     13 C         -25.6880    1.6140   26.4610 C.2     1  UNL1        0.0407
     14 C         -26.2500    2.9200   26.3950 C.2     1  UNL1        0.0744
     15 C         -25.6420    4.0930   27.1230 C.2     1  UNL1        0.2220
     16 N         -25.6140    5.2520   26.4490 N.2     1  UNL1       -0.2357
     17 C         -25.0260    6.4790   26.9630 C.3     1  UNL1        0.1550
     18 O         -25.1430    3.9660   28.2430 O.2     1  UNL1       -0.4577
     19 C         -27.4380    3.0910   25.6450 C.2     1  UNL1        0.1068
     20 N         -28.0750    2.0890   25.0030 N.2     1  UNL1       -0.2081
     21 C         -27.5430    0.8490   25.0790 C.2     1  UNL1        0.2533
     22 O         -28.1930   -0.2080   24.4770 O.2     1  UNL1       -0.4558
     23 C         -29.4600    0.0050   23.8660 C.3     1  UNL1        0.2426
     24 C         -30.0650   -1.3770   23.5730 C.3     1  UNL1        0.2292
     25 O         -30.7290   -1.8780   24.7210 O.3     1  UNL1       -0.2162
     26 C         -26.3540    0.5760   25.7770 C.2     1  UNL1        0.1931
     27 F         -25.8600   -0.6810   25.7950 F       1  UNL1       -0.1992
     28 C         -28.4710    4.1422   29.7464 C.2     1  UNL1        0.0603
     29 C         -29.9097    4.6186   27.7805 C.2     1  UNL1        0.0184
     30 C         -28.6432    2.7149   29.4890 C.2     1  UNL1        0.2355
     31 C         -29.0356    5.0713   28.8196 C.2     1  UNL1        0.0573
     32 C         -25.0632    2.4097   30.0004 C.3     1  UNL1        0.1627
     33 C         -25.7241    2.2141   31.3549 C.3     1  UNL1        0.0577
     34 C         -26.1545    3.5514   32.1568 C.2     1  UNL1        0.0167
     35 C         -26.1266    4.2682   34.4203 C.2     1  UNL1        0.0983
     36 C         -22.8269    0.2158   28.1504 C.3     1  UNL1        0.0320
     37 O         -23.8117    1.7757   29.8397 O.3     1  UNL1       -0.3546
     38 C         -25.7154    7.3731   32.3568 C.3     1  UNL1        0.0532
     39 C         -30.3785    7.8117   27.1854 C.3     1  UNL1        0.0219
     40 C         -21.0237    1.9621   27.1860 C.3     1  UNL1        0.0026
     41 C         -26.3691    4.9992   31.8083 C.2     1  UNL1        0.1485
     42 C         -29.6023    2.3224   28.6382 C.2     1  UNL1        0.2343
     43 O         -29.6131    7.9748   30.4460 O.2     1  UNL1       -0.2706
     44 C         -23.1030    1.6319   28.5686 C.3     1  UNL1        0.1154
     45 C         -21.6465    1.1445   28.3363 C.3     1  UNL1        0.0296
     46 C         -26.6264    8.0256   31.4352 C.3     1  UNL1        0.0596
     47 C         -28.7314    7.2115   30.0447 C.2     1  UNL1        0.2695
     48 C         -27.8701    7.8727   27.0641 C.3     1  UNL1        0.0219
     49 C         -30.1781    3.2334   27.6577 C.2     1  UNL1        0.0467
     50 N         -25.8437    5.5015   34.0070 N.2     1  UNL1       -0.2451
     51 C         -29.0733    7.2110   27.7066 C.3     1  UNL1        0.0800
     52 O         -26.9067    5.6792   30.7670 O.2     1  UNL1       -0.4691
     53 C         -26.3744    3.3023   33.5047 C.2     1  UNL1        0.0195
     54 N         -28.9331    6.4757   28.8886 N.am    1  UNL1       -0.2573
     55 C         -27.4390    6.9748   30.6985 C.3     1  UNL1        0.2419
     56 O         -30.0881    1.0184   28.6399 O.2     1  UNL1       -0.2831
     57 C         -25.9794    5.9697   32.7265 C.2     1  UNL1        0.0926
     58 C         -25.3111    3.8251   29.6235 C.3     1  UNL1        0.2367
     59 O         -27.9974    1.6317   30.0632 O.2     1  UNL1       -0.2831
@<TRIPOS>BOND
     1     2     7    1
     2     2     1    1
     3     3     2    2
     4     4     3    1
     5     4     5    2
     6     5     6    1
     7     6     7    2
     8     8     1    1
     9     8     9    1
    10     8    12    1
    11     9    33    1
    12     9    10    1
    13    10    11    1
    14    12    11    1
    15    14    13    1
    16    14    15    1
    17    15    18    1
    18    16    17    1
    19    16    15    2
    20    18    58    1
    21    19    14    2
    22    20    21    2
    23    20    19    1
    24    21    26    1
    25    22    21    1
    26    23    22    1
    27    24    23    1
    28    24    25    1
    29    26    27    1
    30    26    13    2
    31    29    31    1
    32    30    28    1
    33    30    59    1
    34    31    54    1
    35    31    28    2
    36    32    58    1
    37    33    32    1
    38    33    34    1
    39    34    53    1
    40    36    45    1
    41    36    44    1
    42    37    32    1
    43    38    57    1
    44    39    51    1
    45    41    34    2
    46    41    57    1
    47    42    56    1
    48    42    30    2
    49    44    37    1
    50    45    40    1
    51    45    44    1
    52    46    38    1
    53    47    43    2
    54    48    51    1
    55    49    29    2
    56    49    42    1
    57    50    35    1
    58    51    54    1
    59    52    41    1
    60    53    35    2
    61    54    47   am
    62    55    47    1
    63    55    52    1
    64    55    46    1
    65    57    50    2
