@<TRIPOS>MOLECULE
outputs/IAG933/test6/raw/output_865_IAG933_linker_design_.xyz
 46 49 0 0 0
SMALL
GASTEIGER

@<TRIPOS>ATOM
      1 C         -24.8550   -1.0120   30.1430 C.3     1  UNL1        0.0398
      2 C         -24.9730   -2.5050   29.7880 C.2     1  UNL1       -0.0211
      3 C         -23.9060   -3.1730   29.1460 C.2     1  UNL1       -0.0042
      4 C         -23.9890   -4.5490   28.8530 C.2     1  UNL1       -0.0003
      5 C         -25.1370   -5.2800   29.2050 C.2     1  UNL1       -0.0000
      6 C         -26.2320   -4.6110   29.7840 C.2     1  UNL1       -0.0003
      7 C         -26.1550   -3.2320   30.0650 C.2     1  UNL1       -0.0042
      8 C         -25.3870   -0.6790   31.5710 C.3     1  UNL1        0.0768
      9 C         -25.1890    0.7730   32.0280 C.3     1  UNL1        0.0192
     10 C         -25.3360    0.6840   33.5440 C.3     1  UNL1        0.0202
     11 C         -24.8290   -0.7150   33.9050 C.3     1  UNL1        0.0887
     12 N         -24.7580   -1.4810   32.6460 N.3     1  UNL1       -0.2191
     13 C         -25.6880    1.6140   26.4610 C.3     1  UNL1        0.0715
     14 C         -26.2500    2.9200   26.3950 C.2     1  UNL1        0.0548
     15 C         -25.6420    4.0930   27.1230 C.2     1  UNL1        0.2624
     16 N         -25.6140    5.2520   26.4490 N.am    1  UNL1       -0.2000
     17 C         -25.0260    6.4790   26.9630 C.3     1  UNL1        0.1388
     18 O         -25.1430    3.9660   28.2430 O.2     1  UNL1       -0.2687
     19 C         -27.4380    3.0910   25.6450 C.2     1  UNL1        0.1021
     20 N         -28.0750    2.0890   25.0030 N.2     1  UNL1       -0.2119
     21 C         -27.5430    0.8490   25.0790 C.2     1  UNL1        0.2341
     22 O         -28.1930   -0.2080   24.4770 O.2     1  UNL1       -0.4585
     23 C         -29.4600    0.0050   23.8660 C.3     1  UNL1        0.2423
     24 C         -30.0650   -1.3770   23.5730 C.3     1  UNL1        0.2292
     25 O         -30.7290   -1.8780   24.7210 O.3     1  UNL1       -0.2162
     26 C         -26.3540    0.5760   25.7770 C.3     1  UNL1        0.2400
     27 F         -25.8600   -0.6810   25.7950 F       1  UNL1       -0.2269
     28 N         -27.4622    1.3562   28.5208 N.3     1  UNL1       -0.2194
     29 C         -30.0470    0.1370   28.3068 C.2     1  UNL1        0.3644
     30 C         -22.7414    0.8213   28.6100 C.3     1  UNL1        0.2221
     31 O         -22.9211    1.2010   26.1212 O.3     1  UNL1       -0.3221
     32 C         -25.1089    0.0310   29.0718 C.3     1  UNL1        0.0244
     33 C         -31.6875    0.4928   29.9566 C.3     1  UNL1        0.0113
     34 C         -22.0117    1.2416   27.3368 C.3     1  UNL1        0.3113
     35 F         -20.9121    1.8215   27.3646 F       1  UNL1       -0.2009
     36 C         -23.8752    0.8254   28.9599 C.3     1  UNL1        0.0427
     37 C         -25.0058    1.0486   27.7423 C.3     1  UNL1        0.0252
     38 C         -22.6536    2.1639   25.1479 C.3     1  UNL1        0.1772
     39 C         -30.3837    1.1185   29.3912 C.3     1  UNL1        0.1048
     40 O         -30.5874    0.2154   27.1943 O.co2   1  UNL1       -0.2457
     41 O         -29.2842   -0.7370   28.5620 O.co2   1  UNL1       -0.2457
     42 F         -22.3837    0.3809   29.3720 F       1  UNL1       -0.2315
     43 C         -32.6959    1.2844   29.1049 C.3     1  UNL1        0.0006
     44 C         -28.1716    2.2056   29.2741 C.3     1  UNL1        0.0892
     45 C         -26.1129    0.7007   28.6793 C.3     1  UNL1        0.0736
     46 C         -29.1493    1.5287   30.2417 C.3     1  UNL1        0.0300
@<TRIPOS>BOND
     1     1     2    1
     2     2     7    1
     3     3     2    2
     4     4     3    1
     5     4     5    2
     6     5     6    1
     7     6     7    2
     8     8     1    1
     9     8     9    1
    10     8    12    1
    11     9    10    1
    12    10    11    1
    13    12    11    1
    14    13    14    1
    15    14    15    1
    16    15    18    2
    17    16    17    1
    18    16    15    1
    19    19    14    2
    20    20    21    2
    21    20    19    1
    22    21    26    1
    23    22    21    1
    24    23    22    1
    25    24    23    1
    26    24    25    1
    27    26    27    1
    28    26    13    1
    29    28    44    1
    30    29    41   ar
    31    29    39    1
    32    30    36    1
    33    30    42    1
    34    31    34    1
    35    32    36    1
    36    32     1    1
    37    34    35    1
    38    34    30    1
    39    37    13    1
    40    37    45    1
    41    37    32    1
    42    38    31    1
    43    39    33    1
    44    39    46    1
    45    40    29   ar
    46    43    33    1
    47    44    46    1
    48    45    28    1
    49    45    32    1
