@<TRIPOS>MOLECULE
outputs/IAG933/test6/raw/output_8650_IAG933_linker_design_.xyz
 49 54 0 0 0
SMALL
GASTEIGER

@<TRIPOS>ATOM
      1 C         -24.8550   -1.0120   30.1430 C.3     1  UNL1        0.0410
      2 C         -24.9730   -2.5050   29.7880 C.2     1  UNL1       -0.0211
      3 C         -23.9060   -3.1730   29.1460 C.2     1  UNL1       -0.0042
      4 C         -23.9890   -4.5490   28.8530 C.2     1  UNL1       -0.0003
      5 C         -25.1370   -5.2800   29.2050 C.2     1  UNL1       -0.0000
      6 C         -26.2320   -4.6110   29.7840 C.2     1  UNL1       -0.0003
      7 C         -26.1550   -3.2320   30.0650 C.2     1  UNL1       -0.0042
      8 C         -25.3870   -0.6790   31.5710 C.3     1  UNL1        0.0769
      9 C         -25.1890    0.7730   32.0280 C.3     1  UNL1        0.0192
     10 C         -25.3360    0.6840   33.5440 C.3     1  UNL1        0.0202
     11 C         -24.8290   -0.7150   33.9050 C.3     1  UNL1        0.0887
     12 N         -24.7580   -1.4810   32.6460 N.3     1  UNL1       -0.2191
     13 C         -25.6880    1.6140   26.4610 C.2     1  UNL1        0.0393
     14 C         -26.2500    2.9200   26.3950 C.2     1  UNL1        0.0764
     15 C         -25.6420    4.0930   27.1230 C.2     1  UNL1        0.2664
     16 N         -25.6140    5.2520   26.4490 N.am    1  UNL1       -0.1997
     17 C         -25.0260    6.4790   26.9630 C.3     1  UNL1        0.1388
     18 O         -25.1430    3.9660   28.2430 O.2     1  UNL1       -0.2683
     19 C         -27.4380    3.0910   25.6450 C.2     1  UNL1        0.1067
     20 N         -28.0750    2.0890   25.0030 N.2     1  UNL1       -0.2081
     21 C         -27.5430    0.8490   25.0790 C.2     1  UNL1        0.2533
     22 O         -28.1930   -0.2080   24.4770 O.2     1  UNL1       -0.4558
     23 C         -29.4600    0.0050   23.8660 C.3     1  UNL1        0.2426
     24 C         -30.0650   -1.3770   23.5730 C.3     1  UNL1        0.2292
     25 O         -30.7290   -1.8780   24.7210 O.3     1  UNL1       -0.2162
     26 C         -26.3540    0.5760   25.7770 C.2     1  UNL1        0.1929
     27 F         -25.8600   -0.6810   25.7950 F       1  UNL1       -0.1992
     28 C         -30.5441    2.3900   31.9377 C.3     1  UNL1        0.1437
     29 N         -29.8970    1.4949   32.6685 N.3     1  UNL1       -0.1063
     30 O         -30.7655    4.5251   29.9353 O.2     1  UNL1       -0.4756
     31 C         -26.8017    0.3041   29.2042 C.3     1  UNL1        0.0079
     32 O         -22.6819    2.2439   25.7261 O.2     1  UNL1       -0.2860
     33 N         -28.9994    0.8716   31.8235 N.pl3   1  UNL1       -0.1484
     34 C         -30.2709    1.7223   27.6858 C.2     1  UNL1       -0.0185
     35 C         -29.1446    0.3730   29.3759 C.2     1  UNL1       -0.0062
     36 C         -24.4297    0.5147   28.2768 C.3     1  UNL1        0.1439
     37 C         -23.1608    1.7050   26.8212 C.2     1  UNL1        0.2327
     38 C         -29.7268    0.5680   28.1588 C.2     1  UNL1       -0.0071
     39 C         -30.1252    2.2984   30.6656 C.2     1  UNL1        0.0434
     40 C         -28.0329   -0.6026   29.3283 C.3     1  UNL1        0.0278
     41 C         -24.4858    1.2825   27.1665 C.2     1  UNL1        0.0472
     42 O         -23.1026    0.2320   28.6739 O.3     1  UNL1       -0.3190
     43 C         -22.3021    1.3218   27.8158 C.3     1  UNL1        0.3410
     44 C         -29.4095    1.1301   30.5476 C.2     1  UNL1        0.0813
     45 C         -30.4224    2.9320   28.3530 C.3     1  UNL1        0.0896
     46 C         -30.4208    3.2384   29.6664 C.2     1  UNL1        0.1192
     47 F         -20.9818    1.6149   27.5812 F       1  UNL1       -0.1951
     48 C         -32.0016    4.7312   30.5560 C.3     1  UNL1        0.2520
     49 C         -25.4426   -0.2030   29.0397 C.3     1  UNL1        0.0374
@<TRIPOS>BOND
     1     1    49    1
     2     2     7    1
     3     2     1    1
     4     3     2    2
     5     4     3    1
     6     4     5    2
     7     5     6    1
     8     6     7    2
     9     8     1    1
    10     8     9    1
    11     8    12    1
    12     9    10    1
    13    10    11    1
    14    12    11    1
    15    13    41    1
    16    14    13    1
    17    14    15    1
    18    15    18    2
    19    16    17    1
    20    16    15    1
    21    19    14    2
    22    20    21    2
    23    20    19    1
    24    21    26    1
    25    22    21    1
    26    23    22    1
    27    24    23    1
    28    24    25    1
    29    26    27    1
    30    26    13    2
    31    28    29    1
    32    30    48    1
    33    31    40    1
    34    32    37    1
    35    33    29    1
    36    34    38    2
    37    34    45    1
    38    35    44    2
    39    36    42    1
    40    36    49    1
    41    37    41    2
    42    37    43    1
    43    38    35    1
    44    39    28    1
    45    40    35    1
    46    41    36    1
    47    43    47    1
    48    43    42    1
    49    44    39    1
    50    44    33    1
    51    45    46    1
    52    46    30    1
    53    46    39    2
    54    49    31    1
