@<TRIPOS>MOLECULE
outputs/IAG933/test6/raw/output_8662_IAG933_linker_design_.xyz
 44 47 0 0 0
SMALL
GASTEIGER

@<TRIPOS>ATOM
      1 C         -24.8550   -1.0120   30.1430 C.3     1  UNL1        0.0987
      2 C         -24.9730   -2.5050   29.7880 C.2     1  UNL1       -0.0139
      3 C         -23.9060   -3.1730   29.1460 C.2     1  UNL1       -0.0038
      4 C         -23.9890   -4.5490   28.8530 C.2     1  UNL1       -0.0003
      5 C         -25.1370   -5.2800   29.2050 C.2     1  UNL1       -0.0000
      6 C         -26.2320   -4.6110   29.7840 C.2     1  UNL1       -0.0003
      7 C         -26.1550   -3.2320   30.0650 C.2     1  UNL1       -0.0038
      8 C         -25.3870   -0.6790   31.5710 C.3     1  UNL1        0.0854
      9 C         -25.1890    0.7730   32.0280 C.3     1  UNL1        0.0363
     10 C         -25.3360    0.6840   33.5440 C.3     1  UNL1        0.0217
     11 C         -24.8290   -0.7150   33.9050 C.3     1  UNL1        0.0888
     12 N         -24.7580   -1.4810   32.6460 N.3     1  UNL1       -0.2186
     13 C         -25.6880    1.6140   26.4610 C.3     1  UNL1        0.0947
     14 C         -26.2500    2.9200   26.3950 C.2     1  UNL1        0.0568
     15 C         -25.6420    4.0930   27.1230 C.2     1  UNL1        0.2625
     16 N         -25.6140    5.2520   26.4490 N.am    1  UNL1       -0.2000
     17 C         -25.0260    6.4790   26.9630 C.3     1  UNL1        0.1388
     18 O         -25.1430    3.9660   28.2430 O.2     1  UNL1       -0.2687
     19 C         -27.4380    3.0910   25.6450 C.2     1  UNL1        0.1022
     20 N         -28.0750    2.0890   25.0030 N.2     1  UNL1       -0.2119
     21 C         -27.5430    0.8490   25.0790 C.2     1  UNL1        0.2341
     22 O         -28.1930   -0.2080   24.4770 O.2     1  UNL1       -0.4585
     23 C         -29.4600    0.0050   23.8660 C.3     1  UNL1        0.2423
     24 C         -30.0650   -1.3770   23.5730 C.3     1  UNL1        0.2292
     25 O         -30.7290   -1.8780   24.7210 O.3     1  UNL1       -0.2162
     26 C         -26.3540    0.5760   25.7770 C.3     1  UNL1        0.2419
     27 F         -25.8600   -0.6810   25.7950 F       1  UNL1       -0.2268
     28 C         -24.2180    1.6748   26.5185 C.3     1  UNL1        0.1400
     29 C         -26.3476    5.4820   32.7538 C.3     1  UNL1        0.1773
     30 N         -24.6475    0.2075   28.2381 N.ar    1  UNL1       -0.1502
     31 C         -24.0802   -0.1915   29.3159 C.ar    1  UNL1        0.1685
     32 N         -22.8178    0.1646   29.5275 N.ar    1  UNL1       -0.1749
     33 C         -22.5758    0.9670   28.4561 C.ar    1  UNL1        0.3568
     34 C         -25.9380    4.4520   31.6355 C.2     1  UNL1        0.1793
     35 C         -25.8256    2.0910   31.8694 C.3     1  UNL1        0.1006
     36 C         -27.6647    6.0747   32.4758 C.3     1  UNL1        0.0406
     37 C         -25.2151    6.4673   32.8106 C.3     1  UNL1        0.0406
     38 O         -21.4127    1.5187   28.0119 O.3     1  UNL1       -0.2623
     39 O         -26.1223    4.8271   30.4751 O.2     1  UNL1       -0.2935
     40 O         -26.4437    4.7482   33.9549 O.3     1  UNL1       -0.2182
     41 O         -21.2065    1.9926   26.7986 O.3     1  UNL1        0.0315
     42 N         -23.8057    0.9315   27.8191 N.ar    1  UNL1       -0.2001
     43 N         -27.1906    2.1240   31.5307 N.3     1  UNL1       -0.1324
     44 C         -25.1119    3.3472   32.0741 C.3     1  UNL1        0.0861
@<TRIPOS>BOND
     1     1    31    1
     2     2     7    1
     3     2     1    1
     4     3     2    2
     5     4     3    1
     6     4     5    2
     7     5     6    1
     8     6     7    2
     9     8     1    1
    10     8     9    1
    11     8    12    1
    12     9    35    1
    13     9    10    1
    14    10    11    1
    15    12    11    1
    16    13    28    1
    17    14    13    1
    18    14    15    1
    19    15    18    2
    20    16    17    1
    21    16    15    1
    22    19    14    2
    23    20    21    2
    24    20    19    1
    25    21    26    1
    26    22    21    1
    27    23    22    1
    28    24    23    1
    29    24    25    1
    30    26    27    1
    31    26    13    1
    32    28    42    1
    33    29    37    1
    34    29    40    1
    35    30    31   ar
    36    31    32   ar
    37    33    32   ar
    38    34    44    1
    39    34    29    1
    40    35    43    1
    41    35    44    1
    42    36    29    1
    43    38    33    1
    44    39    34    2
    45    41    38    1
    46    42    30   ar
    47    42    33   ar
