@<TRIPOS>MOLECULE
outputs/IAG933/test6/raw/output_8665_IAG933_linker_design_.xyz
 40 44 0 0 0
SMALL
GASTEIGER

@<TRIPOS>ATOM
      1 C         -24.8550   -1.0120   30.1430 C.3     1  UNL1        0.1530
      2 C         -24.9730   -2.5050   29.7880 C.2     1  UNL1        0.0059
      3 C         -23.9060   -3.1730   29.1460 C.2     1  UNL1       -0.0019
      4 C         -23.9890   -4.5490   28.8530 C.2     1  UNL1       -0.0002
      5 C         -25.1370   -5.2800   29.2050 C.2     1  UNL1       -0.0000
      6 C         -26.2320   -4.6110   29.7840 C.2     1  UNL1       -0.0002
      7 C         -26.1550   -3.2320   30.0650 C.2     1  UNL1       -0.0019
      8 C         -25.3870   -0.6790   31.5710 C.3     1  UNL1        0.1041
      9 C         -25.1890    0.7730   32.0280 C.3     1  UNL1        0.0217
     10 C         -25.3360    0.6840   33.5440 C.3     1  UNL1        0.0203
     11 C         -24.8290   -0.7150   33.9050 C.3     1  UNL1        0.0888
     12 N         -24.7580   -1.4810   32.6460 N.3     1  UNL1       -0.2166
     13 C         -25.6880    1.6140   26.4610 C.3     1  UNL1        0.0810
     14 C         -26.2500    2.9200   26.3950 C.2     1  UNL1        0.0557
     15 C         -25.6420    4.0930   27.1230 C.2     1  UNL1        0.2625
     16 N         -25.6140    5.2520   26.4490 N.am    1  UNL1       -0.2000
     17 C         -25.0260    6.4790   26.9630 C.3     1  UNL1        0.1388
     18 O         -25.1430    3.9660   28.2430 O.2     1  UNL1       -0.2687
     19 C         -27.4380    3.0910   25.6450 C.2     1  UNL1        0.1022
     20 N         -28.0750    2.0890   25.0030 N.2     1  UNL1       -0.2119
     21 C         -27.5430    0.8490   25.0790 C.2     1  UNL1        0.2341
     22 O         -28.1930   -0.2080   24.4770 O.2     1  UNL1       -0.4585
     23 C         -29.4600    0.0050   23.8660 C.3     1  UNL1        0.2423
     24 C         -30.0650   -1.3770   23.5730 C.3     1  UNL1        0.2292
     25 O         -30.7290   -1.8780   24.7210 O.3     1  UNL1       -0.2162
     26 C         -26.3540    0.5760   25.7770 C.3     1  UNL1        0.2408
     27 F         -25.8600   -0.6810   25.7950 F       1  UNL1       -0.2269
     28 C         -23.6697    4.7824   31.9671 C.3     1  UNL1        0.0001
     29 C         -24.8002    4.0485   32.7234 C.3     1  UNL1        0.0000
     30 C         -22.2513    0.6957   28.1676 C.3     1  UNL1        0.0054
     31 C         -20.9098    1.2810   27.5921 C.3     1  UNL1        0.0002
     32 O         -24.9892    0.0251   29.2054 O.3     1  UNL1       -0.3552
     33 C         -23.5660    1.4304   28.0129 C.3     1  UNL1        0.0355
     34 C         -23.8000    2.5561   30.5310 C.3     1  UNL1        0.0273
     35 C         -24.2405    1.3153   26.8651 C.3     1  UNL1        0.0675
     36 C         -24.0476    1.2438   29.6009 C.3     1  UNL1        0.0939
     37 C         -23.0502    3.9197   30.8185 C.3     1  UNL1        0.0024
     38 C         -22.6225    0.6593   29.5073 C.3     1  UNL1        0.0281
     39 S         -23.0741    1.8309   25.5323 S.3     1  UNL1       -0.0825
     40 C         -24.1338    6.1751   31.5337 C.3     1  UNL1        0.0000
@<TRIPOS>BOND
     1     1    32    1
     2     2     7    1
     3     2     1    1
     4     3     2    2
     5     4     3    1
     6     4     5    2
     7     5     6    1
     8     6     7    2
     9     8     1    1
    10     8     9    1
    11     8    12    1
    12     9    10    1
    13    10    11    1
    14    12    11    1
    15    13    35    1
    16    14    13    1
    17    14    15    1
    18    15    18    2
    19    16    17    1
    20    16    15    1
    21    19    14    2
    22    20    21    2
    23    20    19    1
    24    21    26    1
    25    22    21    1
    26    23    22    1
    27    24    23    1
    28    24    25    1
    29    26    27    1
    30    26    13    1
    31    28    29    1
    32    30    31    1
    33    30    38    1
    34    32    36    1
    35    33    35    1
    36    33    30    1
    37    33    38    1
    38    33    36    1
    39    34    37    1
    40    35    39    1
    41    36    34    1
    42    37    28    1
    43    38    36    1
    44    40    28    1
