@<TRIPOS>MOLECULE
outputs/IAG933/test6/raw/output_8669_IAG933_linker_design_.xyz
 43 47 0 0 0
SMALL
GASTEIGER

@<TRIPOS>ATOM
      1 C         -24.8550   -1.0120   30.1430 C.3     1  UNL1        0.0672
      2 C         -24.9730   -2.5050   29.7880 C.2     1  UNL1       -0.0187
      3 C         -23.9060   -3.1730   29.1460 C.2     1  UNL1       -0.0042
      4 C         -23.9890   -4.5490   28.8530 C.2     1  UNL1       -0.0003
      5 C         -25.1370   -5.2800   29.2050 C.2     1  UNL1       -0.0000
      6 C         -26.2320   -4.6110   29.7840 C.2     1  UNL1       -0.0003
      7 C         -26.1550   -3.2320   30.0650 C.2     1  UNL1       -0.0042
      8 C         -25.3870   -0.6790   31.5710 C.3     1  UNL1        0.0792
      9 C         -25.1890    0.7730   32.0280 C.3     1  UNL1        0.0193
     10 C         -25.3360    0.6840   33.5440 C.3     1  UNL1        0.0202
     11 C         -24.8290   -0.7150   33.9050 C.3     1  UNL1        0.0887
     12 N         -24.7580   -1.4810   32.6460 N.3     1  UNL1       -0.2190
     13 C         -25.6880    1.6140   26.4610 C.2     1  UNL1        0.0197
     14 C         -26.2500    2.9200   26.3950 C.2     1  UNL1        0.0727
     15 C         -25.6420    4.0930   27.1230 C.2     1  UNL1        0.2661
     16 N         -25.6140    5.2520   26.4490 N.am    1  UNL1       -0.1997
     17 C         -25.0260    6.4790   26.9630 C.3     1  UNL1        0.1388
     18 O         -25.1430    3.9660   28.2430 O.2     1  UNL1       -0.2683
     19 C         -27.4380    3.0910   25.6450 C.2     1  UNL1        0.1064
     20 N         -28.0750    2.0890   25.0030 N.2     1  UNL1       -0.2081
     21 C         -27.5430    0.8490   25.0790 C.2     1  UNL1        0.2530
     22 O         -28.1930   -0.2080   24.4770 O.2     1  UNL1       -0.4558
     23 C         -29.4600    0.0050   23.8660 C.3     1  UNL1        0.2426
     24 C         -30.0650   -1.3770   23.5730 C.3     1  UNL1        0.2292
     25 O         -30.7290   -1.8780   24.7210 O.3     1  UNL1       -0.2162
     26 C         -26.3540    0.5760   25.7770 C.2     1  UNL1        0.1892
     27 F         -25.8600   -0.6810   25.7950 F       1  UNL1       -0.1996
     28 C         -29.5962    4.7552   29.0255 C.3     1  UNL1        0.0321
     29 C         -29.2720    2.1804   28.4356 C.3     1  UNL1        0.0118
     30 O         -27.9060   -0.9745   29.0814 O.2     1  UNL1       -0.2733
     31 C         -24.1287   -0.0822   29.2187 C.3     1  UNL1        0.1406
     32 C         -24.8586    0.9323   28.4569 C.3     1  UNL1        0.1291
     33 C         -24.3693    1.0204   27.1816 C.3     1  UNL1        0.0744
     34 O         -28.6694    3.5014   31.0227 O.3     1  UNL1       -0.3533
     35 C         -22.7140    0.8709   27.7999 C.3     1  UNL1        0.1211
     36 C         -27.5596    0.2570   29.1001 C.2     1  UNL1        0.2434
     37 N         -26.1862    0.9661   28.7135 N.am    1  UNL1       -0.2042
     38 C         -28.5343    1.3869   29.5870 C.3     1  UNL1        0.1077
     39 C         -28.5448    4.5518   30.0782 C.3     1  UNL1        0.1422
     40 O         -22.5993    0.1947   28.7714 O.3     1  UNL1       -0.3562
     41 C         -21.5487    1.5805   27.0261 C.3     1  UNL1        0.0325
     42 C         -30.2008    3.4155   28.5658 C.3     1  UNL1        0.0032
     43 C         -27.8377    2.3476   30.6371 C.3     1  UNL1        0.1512
@<TRIPOS>BOND
     1     1     2    1
     2     2     7    1
     3     3     2    2
     4     4     3    1
     5     4     5    2
     6     5     6    1
     7     6     7    2
     8     8     1    1
     9     8     9    1
    10     8    12    1
    11     9    10    1
    12    10    11    1
    13    12    11    1
    14    14    13    1
    15    14    15    1
    16    15    18    2
    17    16    17    1
    18    16    15    1
    19    19    14    2
    20    20    21    2
    21    20    19    1
    22    21    26    1
    23    22    21    1
    24    23    22    1
    25    24    23    1
    26    24    25    1
    27    26    27    1
    28    26    13    2
    29    28    39    1
    30    29    42    1
    31    29    38    1
    32    30    36    2
    33    31     1    1
    34    32    37    1
    35    32    31    1
    36    33    13    1
    37    33    35    1
    38    33    32    1
    39    35    41    1
    40    35    40    1
    41    37    36    1
    42    38    36    1
    43    38    43    1
    44    39    34    1
    45    40    31    1
    46    42    28    1
    47    43    34    1
