@<TRIPOS>MOLECULE
outputs/IAG933/test6/raw/output_8682_IAG933_linker_design_.xyz
 46 50 0 0 0
SMALL
GASTEIGER

@<TRIPOS>ATOM
      1 C         -24.8550   -1.0120   30.1430 C.3     1  UNL1        0.0947
      2 C         -24.9730   -2.5050   29.7880 C.2     1  UNL1       -0.0162
      3 C         -23.9060   -3.1730   29.1460 C.2     1  UNL1       -0.0041
      4 C         -23.9890   -4.5490   28.8530 C.2     1  UNL1       -0.0003
      5 C         -25.1370   -5.2800   29.2050 C.2     1  UNL1       -0.0000
      6 C         -26.2320   -4.6110   29.7840 C.2     1  UNL1       -0.0003
      7 C         -26.1550   -3.2320   30.0650 C.2     1  UNL1       -0.0041
      8 C         -25.3870   -0.6790   31.5710 C.3     1  UNL1        0.0818
      9 C         -25.1890    0.7730   32.0280 C.3     1  UNL1        0.0194
     10 C         -25.3360    0.6840   33.5440 C.3     1  UNL1        0.0202
     11 C         -24.8290   -0.7150   33.9050 C.3     1  UNL1        0.0887
     12 N         -24.7580   -1.4810   32.6460 N.3     1  UNL1       -0.2190
     13 C         -25.6880    1.6140   26.4610 C.2     1  UNL1        0.0304
     14 C         -26.2500    2.9200   26.3950 C.2     1  UNL1        0.0738
     15 C         -25.6420    4.0930   27.1230 C.2     1  UNL1        0.2662
     16 N         -25.6140    5.2520   26.4490 N.am    1  UNL1       -0.1997
     17 C         -25.0260    6.4790   26.9630 C.3     1  UNL1        0.1388
     18 O         -25.1430    3.9660   28.2430 O.2     1  UNL1       -0.2683
     19 C         -27.4380    3.0910   25.6450 C.2     1  UNL1        0.1065
     20 N         -28.0750    2.0890   25.0030 N.2     1  UNL1       -0.2081
     21 C         -27.5430    0.8490   25.0790 C.2     1  UNL1        0.2530
     22 O         -28.1930   -0.2080   24.4770 O.2     1  UNL1       -0.4560
     23 C         -29.4600    0.0050   23.8660 C.3     1  UNL1        0.2391
     24 C         -30.0650   -1.3770   23.5730 C.3     1  UNL1        0.1894
     25 O         -30.7290   -1.8780   24.7210 O.3     1  UNL1       -0.3498
     26 C         -26.3540    0.5760   25.7770 C.2     1  UNL1        0.1904
     27 F         -25.8600   -0.6810   25.7950 F       1  UNL1       -0.1995
     28 O         -26.4709    0.7334   29.2154 O.3     1  UNL1       -0.4356
     29 C         -28.2433    1.9817   30.7231 C.3     1  UNL1        0.0131
     30 C         -30.7583   -1.3586   26.7694 C.3     1  UNL1        0.0494
     31 C         -23.3077    2.1489   26.5100 C.3     1  UNL1        0.0207
     32 C         -25.3510   -0.1247   28.9461 C.3     1  UNL1        0.2366
     33 C         -27.6687    0.0986   29.2630 C.2     1  UNL1        0.3189
     34 C         -30.4043   -2.2007   29.5330 C.3     1  UNL1        0.0722
     35 C         -21.9556    1.5524   26.8358 C.3     1  UNL1        0.0032
     36 C         -31.4437   -2.4446   30.5327 C.3     1  UNL1        0.0188
     37 C         -22.9811    0.0773   28.5532 C.3     1  UNL1        0.0756
     38 N         -24.3206    0.5378   28.2046 N.3     1  UNL1       -0.2373
     39 C         -29.9622    0.0814   30.2098 C.3     1  UNL1        0.0832
     40 C         -24.4091    1.4073   27.1940 C.3     1  UNL1        0.0856
     41 O         -27.8027   -1.1074   28.9388 O.2     1  UNL1       -0.2500
     42 N         -30.3579   -0.9601   29.2173 N.3     1  UNL1       -0.2721
     43 C         -31.6007   -1.1378   25.5436 C.3     1  UNL1        0.1438
     44 C         -31.1102   -0.5260   28.0431 C.3     1  UNL1        0.0747
     45 C         -21.9938    1.1323   28.2690 C.3     1  UNL1        0.0175
     46 C         -28.8459    1.0134   29.6918 C.3     1  UNL1        0.1150
@<TRIPOS>BOND
     1     1     2    1
     2     2     7    1
     3     3     2    2
     4     4     3    1
     5     4     5    2
     6     5     6    1
     7     6     7    2
     8     8     1    1
     9     8     9    1
    10     8    12    1
    11     9    10    1
    12    10    11    1
    13    12    11    1
    14    13    40    1
    15    14    13    1
    16    14    15    1
    17    15    18    2
    18    16    17    1
    19    16    15    1
    20    19    14    2
    21    20    21    2
    22    20    19    1
    23    21    26    1
    24    22    21    1
    25    23    22    1
    26    24    23    1
    27    24    25    1
    28    25    43    1
    29    26    27    1
    30    26    13    2
    31    28    33    1
    32    30    44    1
    33    31    35    1
    34    32    28    1
    35    32     1    1
    36    33    46    1
    37    34    36    1
    38    35    45    1
    39    38    37    1
    40    38    32    1
    41    40    31    1
    42    40    38    1
    43    41    33    2
    44    42    34    1
    45    42    39    1
    46    43    30    1
    47    44    42    1
    48    45    37    1
    49    46    39    1
    50    46    29    1
