@<TRIPOS>MOLECULE
outputs/IAG933/test6/raw/output_869_IAG933_linker_design_.xyz
 48 50 0 0 0
SMALL
GASTEIGER

@<TRIPOS>ATOM
      1 C         -24.8550   -1.0120   30.1430 C.3     1  UNL1        0.0656
      2 C         -24.9730   -2.5050   29.7880 C.2     1  UNL1       -0.0188
      3 C         -23.9060   -3.1730   29.1460 C.2     1  UNL1       -0.0042
      4 C         -23.9890   -4.5490   28.8530 C.2     1  UNL1       -0.0003
      5 C         -25.1370   -5.2800   29.2050 C.2     1  UNL1       -0.0000
      6 C         -26.2320   -4.6110   29.7840 C.2     1  UNL1       -0.0003
      7 C         -26.1550   -3.2320   30.0650 C.2     1  UNL1       -0.0042
      8 C         -25.3870   -0.6790   31.5710 C.3     1  UNL1        0.0792
      9 C         -25.1890    0.7730   32.0280 C.3     1  UNL1        0.0193
     10 C         -25.3360    0.6840   33.5440 C.3     1  UNL1        0.0202
     11 C         -24.8290   -0.7150   33.9050 C.3     1  UNL1        0.0887
     12 N         -24.7580   -1.4810   32.6460 N.3     1  UNL1       -0.2190
     13 C         -25.6880    1.6140   26.4610 C.3     1  UNL1        0.0703
     14 C         -26.2500    2.9200   26.3950 C.2     1  UNL1        0.0548
     15 C         -25.6420    4.0930   27.1230 C.2     1  UNL1        0.2624
     16 N         -25.6140    5.2520   26.4490 N.am    1  UNL1       -0.2000
     17 C         -25.0260    6.4790   26.9630 C.3     1  UNL1        0.1388
     18 O         -25.1430    3.9660   28.2430 O.2     1  UNL1       -0.2687
     19 C         -27.4380    3.0910   25.6450 C.2     1  UNL1        0.1021
     20 N         -28.0750    2.0890   25.0030 N.2     1  UNL1       -0.2119
     21 C         -27.5430    0.8490   25.0790 C.2     1  UNL1        0.2341
     22 O         -28.1930   -0.2080   24.4770 O.2     1  UNL1       -0.4585
     23 C         -29.4600    0.0050   23.8660 C.3     1  UNL1        0.2423
     24 C         -30.0650   -1.3770   23.5730 C.3     1  UNL1        0.2292
     25 O         -30.7290   -1.8780   24.7210 O.3     1  UNL1       -0.2162
     26 C         -26.3540    0.5760   25.7770 C.3     1  UNL1        0.2400
     27 F         -25.8600   -0.6810   25.7950 F       1  UNL1       -0.2269
     28 C         -21.8238    1.7033   27.8581 C.3     1  UNL1        0.0330
     29 C         -24.0651    0.7273   28.2361 C.3     1  UNL1        0.0584
     30 C         -28.6171   -0.2798   28.4581 C.3     1  UNL1        0.0433
     31 C         -30.9007    0.6197   28.0230 C.2     1  UNL1        0.3644
     32 O         -31.0844    1.2313   26.9538 O.co2   1  UNL1       -0.2457
     33 O         -31.7325   -0.1529   28.4071 O.co2   1  UNL1       -0.2457
     34 C         -24.2791    1.3412   26.8719 C.3     1  UNL1        0.0128
     35 C         -29.8395    0.0264   32.6629 C.3     1  UNL1        0.1934
     36 O         -22.3571   -0.2503   29.6948 O.3     1  UNL1       -0.2231
     37 F         -29.7890    1.1071   33.5971 F       1  UNL1       -0.2221
     38 C         -25.1469   -0.1352   28.8506 C.3     1  UNL1        0.1229
     39 N         -29.4445    0.6732   31.5570 N.3     1  UNL1       -0.1907
     40 C         -22.5129    0.3980   28.3695 C.3     1  UNL1        0.1543
     41 C         -21.5922    1.9033   26.3378 C.3     1  UNL1        0.0027
     42 O         -26.3967    0.5347   29.0415 O.3     1  UNL1       -0.3558
     43 C         -31.3242   -0.2656   32.6485 C.3     1  UNL1        0.0538
     44 C         -28.7685    1.8031   30.9707 C.3     1  UNL1        0.0919
     45 C         -28.7586   -0.9552   33.1221 C.3     1  UNL1        0.0538
     46 C         -29.3147    1.9542   29.6000 C.3     1  UNL1        0.0302
     47 C         -27.4519   -0.3084   29.3093 C.3     1  UNL1        0.1426
     48 C         -29.5856    0.7474   28.7905 C.3     1  UNL1        0.1073
@<TRIPOS>BOND
     1     1    38    1
     2     2     7    1
     3     2     1    1
     4     3     2    2
     5     4     3    1
     6     4     5    2
     7     5     6    1
     8     6     7    2
     9     8     1    1
    10     8     9    1
    11     8    12    1
    12     9    10    1
    13    10    11    1
    14    12    11    1
    15    13    34    1
    16    14    13    1
    17    14    15    1
    18    15    18    2
    19    16    17    1
    20    16    15    1
    21    19    14    2
    22    20    21    2
    23    20    19    1
    24    21    26    1
    25    22    21    1
    26    23    22    1
    27    24    23    1
    28    24    25    1
    29    26    27    1
    30    26    13    1
    31    28    40    1
    32    29    34    1
    33    29    40    1
    34    29    38    1
    35    30    47    1
    36    31    33   ar
    37    31    48    1
    38    32    31   ar
    39    35    45    1
    40    35    37    1
    41    38    42    1
    42    39    35    1
    43    40    36    1
    44    41    28    1
    45    42    47    1
    46    43    35    1
    47    44    39    1
    48    46    44    1
    49    48    30    1
    50    48    46    1
