@<TRIPOS>MOLECULE
outputs/IAG933/test6/raw/output_8690_IAG933_linker_design_.xyz
 37 40 0 0 0
SMALL
GASTEIGER

@<TRIPOS>ATOM
      1 C         -24.8550   -1.0120   30.1430 C.3     1  UNL1        0.1449
      2 C         -24.9730   -2.5050   29.7880 C.2     1  UNL1        0.0013
      3 C         -23.9060   -3.1730   29.1460 C.2     1  UNL1       -0.0024
      4 C         -23.9890   -4.5490   28.8530 C.2     1  UNL1       -0.0003
      5 C         -25.1370   -5.2800   29.2050 C.2     1  UNL1       -0.0000
      6 C         -26.2320   -4.6110   29.7840 C.2     1  UNL1       -0.0003
      7 C         -26.1550   -3.2320   30.0650 C.2     1  UNL1       -0.0024
      8 C         -25.3870   -0.6790   31.5710 C.3     1  UNL1        0.0994
      9 C         -25.1890    0.7730   32.0280 C.3     1  UNL1        0.0212
     10 C         -25.3360    0.6840   33.5440 C.3     1  UNL1        0.0203
     11 C         -24.8290   -0.7150   33.9050 C.3     1  UNL1        0.0888
     12 N         -24.7580   -1.4810   32.6460 N.3     1  UNL1       -0.2171
     13 C         -25.6880    1.6140   26.4610 C.2     1  UNL1        0.0604
     14 C         -26.2500    2.9200   26.3950 C.2     1  UNL1        0.0782
     15 C         -25.6420    4.0930   27.1230 C.2     1  UNL1        0.2665
     16 N         -25.6140    5.2520   26.4490 N.am    1  UNL1       -0.1997
     17 C         -25.0260    6.4790   26.9630 C.3     1  UNL1        0.1388
     18 O         -25.1430    3.9660   28.2430 O.2     1  UNL1       -0.2683
     19 C         -27.4380    3.0910   25.6450 C.2     1  UNL1        0.1068
     20 N         -28.0750    2.0890   25.0030 N.2     1  UNL1       -0.2081
     21 C         -27.5430    0.8490   25.0790 C.2     1  UNL1        0.2533
     22 O         -28.1930   -0.2080   24.4770 O.2     1  UNL1       -0.4558
     23 C         -29.4600    0.0050   23.8660 C.3     1  UNL1        0.2426
     24 C         -30.0650   -1.3770   23.5730 C.3     1  UNL1        0.2292
     25 O         -30.7290   -1.8780   24.7210 O.3     1  UNL1       -0.2162
     26 C         -26.3540    0.5760   25.7770 C.2     1  UNL1        0.1947
     27 F         -25.8600   -0.6810   25.7950 F       1  UNL1       -0.1992
     28 C         -23.2012    1.4252   27.0995 C.ar    1  UNL1        0.1776
     29 N         -20.9805    1.3762   28.1258 N.pl3   1  UNL1       -0.1215
     30 C         -22.2911    0.9214   28.0941 C.ar    1  UNL1        0.1614
     31 C         -22.8233   -0.0494   29.1210 C.ar    1  UNL1        0.2011
     32 C         -24.6053    1.2019   27.3507 C.ar    1  UNL1        0.1387
     33 N         -24.1661   -0.1613   29.2097 N.ar    1  UNL1       -0.2278
     34 N         -22.0101   -0.6712   29.9458 N.2     1  UNL1       -0.1258
     35 N         -24.9657    0.4815   28.3967 N.ar    1  UNL1       -0.1645
     36 C         -23.1100    1.6394   24.6687 C.3     1  UNL1        0.2526
     37 O         -22.8413    2.1827   25.9744 O.3     1  UNL1       -0.4684
@<TRIPOS>BOND
     1     1     2    1
     2     2     7    1
     3     3     2    2
     4     4     3    1
     5     4     5    2
     6     5     6    1
     7     6     7    2
     8     8     1    1
     9     8     9    1
    10     8    12    1
    11     9    10    1
    12    10    11    1
    13    12    11    1
    14    13    32    1
    15    14    13    1
    16    14    15    1
    17    15    18    2
    18    16    17    1
    19    16    15    1
    20    19    14    2
    21    20    21    2
    22    20    19    1
    23    21    26    1
    24    22    21    1
    25    23    22    1
    26    24    23    1
    27    24    25    1
    28    26    27    1
    29    26    13    2
    30    28    32   ar
    31    28    30   ar
    32    30    29    1
    33    30    31   ar
    34    31    33   ar
    35    31    34    2
    36    32    35   ar
    37    33     1    1
    38    35    33   ar
    39    36    37    1
    40    37    28    1
