@<TRIPOS>MOLECULE
outputs/IAG933/test6/raw/output_8692_IAG933_linker_design_.xyz
 43 48 0 0 0
SMALL
GASTEIGER

@<TRIPOS>ATOM
      1 C         -24.8550   -1.0120   30.1430 C.3     1  UNL1        0.0754
      2 C         -24.9730   -2.5050   29.7880 C.2     1  UNL1       -0.0158
      3 C         -23.9060   -3.1730   29.1460 C.2     1  UNL1       -0.0039
      4 C         -23.9890   -4.5490   28.8530 C.2     1  UNL1       -0.0003
      5 C         -25.1370   -5.2800   29.2050 C.2     1  UNL1       -0.0000
      6 C         -26.2320   -4.6110   29.7840 C.2     1  UNL1       -0.0003
      7 C         -26.1550   -3.2320   30.0650 C.2     1  UNL1       -0.0039
      8 C         -25.3870   -0.6790   31.5710 C.3     1  UNL1        0.0845
      9 C         -25.1890    0.7730   32.0280 C.3     1  UNL1        0.0472
     10 C         -25.3360    0.6840   33.5440 C.3     1  UNL1        0.0227
     11 C         -24.8290   -0.7150   33.9050 C.3     1  UNL1        0.0888
     12 N         -24.7580   -1.4810   32.6460 N.3     1  UNL1       -0.2187
     13 C         -25.6880    1.6140   26.4610 C.2     1  UNL1        0.1033
     14 C         -26.2500    2.9200   26.3950 C.2     1  UNL1        0.0914
     15 C         -25.6420    4.0930   27.1230 C.2     1  UNL1        0.2677
     16 N         -25.6140    5.2520   26.4490 N.am    1  UNL1       -0.1997
     17 C         -25.0260    6.4790   26.9630 C.3     1  UNL1        0.1388
     18 O         -25.1430    3.9660   28.2430 O.2     1  UNL1       -0.2683
     19 C         -27.4380    3.0910   25.6450 C.2     1  UNL1        0.1080
     20 N         -28.0750    2.0890   25.0030 N.2     1  UNL1       -0.2080
     21 C         -27.5430    0.8490   25.0790 C.2     1  UNL1        0.2546
     22 O         -28.1930   -0.2080   24.4770 O.2     1  UNL1       -0.4558
     23 C         -29.4600    0.0050   23.8660 C.3     1  UNL1        0.2426
     24 C         -30.0650   -1.3770   23.5730 C.3     1  UNL1        0.2292
     25 O         -30.7290   -1.8780   24.7210 O.3     1  UNL1       -0.2162
     26 C         -26.3540    0.5760   25.7770 C.2     1  UNL1        0.2078
     27 F         -25.8600   -0.6810   25.7950 F       1  UNL1       -0.1979
     28 C         -25.0783    6.4362   32.7328 C.3     1  UNL1        0.0918
     29 N         -24.4998    1.2926   27.1988 N.pl3   1  UNL1       -0.2323
     30 N         -26.1217    5.4866   33.0885 N.3     1  UNL1       -0.2438
     31 O         -24.4609    2.6211   30.8611 O.3     1  UNL1       -0.3282
     32 C         -24.9929    3.7808   31.5414 C.3     1  UNL1        0.2812
     33 C         -21.9859    1.3953   27.5444 C.3     1  UNL1        0.1964
     34 O         -24.9575    3.8314   32.8030 O.3     1  UNL1       -0.3090
     35 C         -22.0749    0.4132   28.6190 C.2     1  UNL1        0.0200
     36 C         -26.1231    5.1846   34.5169 C.3     1  UNL1        0.0918
     37 C         -26.2592    4.1518   32.2354 C.3     1  UNL1        0.2359
     38 O         -20.8720    2.0647   27.2080 O.3     1  UNL1       -0.2164
     39 C         -25.5460    1.5744   30.7833 C.3     1  UNL1        0.1407
     40 C         -25.9186    0.9563   29.3606 C.3     1  UNL1        0.1413
     41 C         -23.1263    1.6534   26.5559 C.3     1  UNL1        0.1496
     42 C         -23.4708   -0.1588   29.1793 C.2     1  UNL1        0.0464
     43 N         -24.7413    0.2925   28.4337 N.pl3   1  UNL1       -0.2388
@<TRIPOS>BOND
     1     1     2    1
     2     1     8    1
     3     2     7    1
     4     3     2    2
     5     4     3    1
     6     4     5    2
     7     5     6    1
     8     6     7    2
     9     8     9    1
    10     8    12    1
    11     9    10    1
    12    10    11    1
    13    12    11    1
    14    13    29    1
    15    14    13    1
    16    14    15    1
    17    15    18    2
    18    16    17    1
    19    16    15    1
    20    19    14    2
    21    20    21    2
    22    20    19    1
    23    21    26    1
    24    22    21    1
    25    23    22    1
    26    24    23    1
    27    24    25    1
    28    26    27    1
    29    26    13    2
    30    28    30    1
    31    29    43    1
    32    30    36    1
    33    32    31    1
    34    32    37    1
    35    32    34    1
    36    33    38    1
    37    33    35    1
    38    35    42    2
    39    37    34    1
    40    37    30    1
    41    39    31    1
    42    39     9    1
    43    40    39    1
    44    41    29    1
    45    41    33    1
    46    42     1    1
    47    43    42    1
    48    43    40    1
