@<TRIPOS>MOLECULE
outputs/IAG933/test6/raw/output_8694_IAG933_linker_design_.xyz
 45 50 0 0 0
SMALL
GASTEIGER

@<TRIPOS>ATOM
      1 C         -24.8550   -1.0120   30.1430 C.3     1  UNL1        0.0543
      2 C         -24.9730   -2.5050   29.7880 C.2     1  UNL1       -0.0198
      3 C         -23.9060   -3.1730   29.1460 C.2     1  UNL1       -0.0042
      4 C         -23.9890   -4.5490   28.8530 C.2     1  UNL1       -0.0003
      5 C         -25.1370   -5.2800   29.2050 C.2     1  UNL1       -0.0000
      6 C         -26.2320   -4.6110   29.7840 C.2     1  UNL1       -0.0003
      7 C         -26.1550   -3.2320   30.0650 C.2     1  UNL1       -0.0042
      8 C         -25.3870   -0.6790   31.5710 C.3     1  UNL1        0.0782
      9 C         -25.1890    0.7730   32.0280 C.3     1  UNL1        0.0192
     10 C         -25.3360    0.6840   33.5440 C.3     1  UNL1        0.0202
     11 C         -24.8290   -0.7150   33.9050 C.3     1  UNL1        0.0887
     12 N         -24.7580   -1.4810   32.6460 N.3     1  UNL1       -0.2191
     13 C         -25.6880    1.6140   26.4610 C.3     1  UNL1        0.0904
     14 C         -26.2500    2.9200   26.3950 C.2     1  UNL1        0.0565
     15 C         -25.6420    4.0930   27.1230 C.2     1  UNL1        0.2625
     16 N         -25.6140    5.2520   26.4490 N.am    1  UNL1       -0.2000
     17 C         -25.0260    6.4790   26.9630 C.3     1  UNL1        0.1388
     18 O         -25.1430    3.9660   28.2430 O.2     1  UNL1       -0.2687
     19 C         -27.4380    3.0910   25.6450 C.2     1  UNL1        0.1022
     20 N         -28.0750    2.0890   25.0030 N.2     1  UNL1       -0.2119
     21 C         -27.5430    0.8490   25.0790 C.2     1  UNL1        0.2341
     22 O         -28.1930   -0.2080   24.4770 O.2     1  UNL1       -0.4585
     23 C         -29.4600    0.0050   23.8660 C.3     1  UNL1        0.2423
     24 C         -30.0650   -1.3770   23.5730 C.3     1  UNL1        0.2292
     25 O         -30.7290   -1.8780   24.7210 O.3     1  UNL1       -0.2162
     26 C         -26.3540    0.5760   25.7770 C.3     1  UNL1        0.2417
     27 F         -25.8600   -0.6810   25.7950 F       1  UNL1       -0.2268
     28 C         -23.4855    1.3951   27.1336 C.2     1  UNL1        0.0329
     29 C         -22.5130    1.0596   28.0555 C.2     1  UNL1        0.1930
     30 C         -25.5348   -0.0608   29.3248 C.3     1  UNL1        0.0785
     31 C         -27.4949   -0.8601   28.5129 C.3     1  UNL1        0.0016
     32 O         -22.7105    0.2419   29.1245 O.2     1  UNL1       -0.2869
     33 C         -29.6084    1.5011   28.2562 C.3     1  UNL1        0.1421
     34 C         -21.8411    2.4128   25.7027 C.2     1  UNL1       -0.0001
     35 C         -28.8160   -0.5252   29.4312 C.3     1  UNL1        0.0050
     36 C         -20.9265    2.2577   26.7417 C.2     1  UNL1        0.0033
     37 N         -25.1509    1.1559   28.8188 N.3     1  UNL1       -0.2155
     38 C         -24.7979    1.3163   27.5240 C.3     1  UNL1        0.1053
     39 C         -28.5078    0.8991   29.2369 C.3     1  UNL1        0.0311
     40 C         -27.0121    0.3497   29.1218 C.3     1  UNL1        0.0188
     41 O         -30.0608    0.5176   27.3079 O.3     1  UNL1       -0.3538
     42 C         -30.8712   -0.3880   28.0408 C.3     1  UNL1        0.1422
     43 C         -30.3970   -0.6102   29.4855 C.3     1  UNL1        0.0322
     44 C         -21.2443    1.5864   27.9289 C.2     1  UNL1        0.0417
     45 C         -23.1147    1.8885   25.9210 C.2     1  UNL1        0.0003
@<TRIPOS>BOND
     1     1    30    1
     2     2     7    1
     3     2     1    1
     4     3     2    2
     5     4     3    1
     6     4     5    2
     7     5     6    1
     8     6     7    2
     9     8     1    1
    10     8     9    1
    11     8    12    1
    12     9    10    1
    13    10    11    1
    14    12    11    1
    15    13    38    1
    16    14    13    1
    17    14    15    1
    18    15    18    2
    19    16    17    1
    20    16    15    1
    21    19    14    2
    22    20    21    2
    23    20    19    1
    24    21    26    1
    25    22    21    1
    26    23    22    1
    27    24    23    1
    28    24    25    1
    29    26    27    1
    30    26    13    1
    31    28    38    1
    32    28    29    1
    33    29    32    1
    34    30    37    1
    35    31    40    1
    36    34    45    1
    37    34    36    2
    38    35    31    1
    39    35    43    1
    40    36    44    1
    41    38    37    1
    42    39    33    1
    43    39    35    1
    44    40    39    1
    45    40    30    1
    46    41    42    1
    47    41    33    1
    48    42    43    1
    49    44    29    2
    50    45    28    2
