@<TRIPOS>MOLECULE
outputs/IAG933/test6/raw/output_87_IAG933_linker_design_.xyz
 42 46 0 0 0
SMALL
GASTEIGER

@<TRIPOS>ATOM
      1 C         -24.8550   -1.0120   30.1430 C.3     1  UNL1        0.0993
      2 C         -24.9730   -2.5050   29.7880 C.2     1  UNL1       -0.0063
      3 C         -23.9060   -3.1730   29.1460 C.2     1  UNL1       -0.0029
      4 C         -23.9890   -4.5490   28.8530 C.2     1  UNL1       -0.0003
      5 C         -25.1370   -5.2800   29.2050 C.2     1  UNL1       -0.0000
      6 C         -26.2320   -4.6110   29.7840 C.2     1  UNL1       -0.0003
      7 C         -26.1550   -3.2320   30.0650 C.2     1  UNL1       -0.0029
      8 C         -25.3870   -0.6790   31.5710 C.3     1  UNL1        0.0917
      9 C         -25.1890    0.7730   32.0280 C.3     1  UNL1        0.0206
     10 C         -25.3360    0.6840   33.5440 C.3     1  UNL1        0.0203
     11 C         -24.8290   -0.7150   33.9050 C.3     1  UNL1        0.0888
     12 N         -24.7580   -1.4810   32.6460 N.3     1  UNL1       -0.2178
     13 C         -25.6880    1.6140   26.4610 C.2     1  UNL1        0.0232
     14 C         -26.2500    2.9200   26.3950 C.2     1  UNL1        0.0728
     15 C         -25.6420    4.0930   27.1230 C.2     1  UNL1        0.2661
     16 N         -25.6140    5.2520   26.4490 N.am    1  UNL1       -0.1997
     17 C         -25.0260    6.4790   26.9630 C.3     1  UNL1        0.1388
     18 O         -25.1430    3.9660   28.2430 O.2     1  UNL1       -0.2683
     19 C         -27.4380    3.0910   25.6450 C.2     1  UNL1        0.1064
     20 N         -28.0750    2.0890   25.0030 N.2     1  UNL1       -0.2081
     21 C         -27.5430    0.8490   25.0790 C.2     1  UNL1        0.2530
     22 O         -28.1930   -0.2080   24.4770 O.2     1  UNL1       -0.4558
     23 C         -29.4600    0.0050   23.8660 C.3     1  UNL1        0.2426
     24 C         -30.0650   -1.3770   23.5730 C.3     1  UNL1        0.2292
     25 O         -30.7290   -1.8780   24.7210 O.3     1  UNL1       -0.2162
     26 C         -26.3540    0.5760   25.7770 C.2     1  UNL1        0.1894
     27 F         -25.8600   -0.6810   25.7950 F       1  UNL1       -0.1996
     28 O         -26.4963    0.5318   28.7297 O.3     1  UNL1       -0.1897
     29 N         -25.2204    2.3550   29.8944 N.3     1  UNL1       -0.1516
     30 C         -21.1655   -0.5411   29.0479 C.3     1  UNL1        0.1087
     31 C         -20.7398    1.3630   27.5772 C.3     1  UNL1        0.2345
     32 C         -22.4172   -0.2294   29.7073 C.3     1  UNL1        0.0947
     33 C         -24.6814    4.9323   32.7306 C.3     1  UNL1        0.1479
     34 N         -23.9703   -0.1567   29.4457 N.3     1  UNL1       -0.2326
     35 C         -25.5856    4.7415   31.6026 C.3     1  UNL1        0.0802
     36 N         -20.5072    0.2734   28.2806 N.3     1  UNL1       -0.1870
     37 C         -25.2301    1.1585   28.8685 C.3     1  UNL1        0.2447
     38 O         -21.9201    1.6291   27.3022 O.3     1  UNL1       -0.3359
     39 C         -24.5772    1.2551   27.4681 C.3     1  UNL1        0.1132
     40 C         -25.2118    3.4565   30.7832 C.3     1  UNL1        0.1948
     41 O         -24.5693    3.8161   31.8985 O.3     1  UNL1       -0.3393
     42 C         -23.0930    1.2677   28.1266 C.3     1  UNL1        0.1537
@<TRIPOS>BOND
     1     1     2    1
     2     2     7    1
     3     3     2    2
     4     4     3    1
     5     4     5    2
     6     5     6    1
     7     6     7    2
     8     8     1    1
     9     8     9    1
    10     8    12    1
    11     9    10    1
    12    10    11    1
    13    12    11    1
    14    14    13    1
    15    14    15    1
    16    15    18    2
    17    16    17    1
    18    16    15    1
    19    19    14    2
    20    20    21    2
    21    20    19    1
    22    21    26    1
    23    22    21    1
    24    23    22    1
    25    24    23    1
    26    24    25    1
    27    26    27    1
    28    26    13    2
    29    30    32    1
    30    31    36    1
    31    34    32    1
    32    34     1    1
    33    35    33    1
    34    36    30    1
    35    37    28    1
    36    37    34    1
    37    37    29    1
    38    38    31    1
    39    38    42    1
    40    39    13    1
    41    39    42    1
    42    39    37    1
    43    40    29    1
    44    40    35    1
    45    40    41    1
    46    41    33    1
