@<TRIPOS>MOLECULE
No_870-gen_results/8p0m/2024-11-27-11-27-31/
 35 38 0 0 0
SMALL
GASTEIGER

@<TRIPOS>ATOM
      1 C         -28.0162   -0.8135   28.8779 C.ar    1  UNL1        0.0114
      2 C         -27.0636   -0.1189   28.6079 C.ar    1  UNL1        0.0009
      3 C         -25.7923   -0.4302   29.0761 C.ar    1  UNL1        0.0015
      4 C         -24.5456    0.3494   28.8225 C.ar    1  UNL1        0.0178
      5 C         -23.2409    0.0217   29.3323 C.ar    1  UNL1        0.0015
      6 C         -27.8820   -1.8995   29.8633 C.ar    1  UNL1        0.0577
      7 C         -26.6526   -2.3141   30.3138 C.ar    1  UNL1        0.0114
      8 C         -25.5153   -1.5607   29.9787 C.ar    1  UNL1        0.0009
      9 C         -23.2160   -1.2277   30.0505 C.ar    1  UNL1        0.0000
     10 C         -24.2438   -1.9369   30.3995 C.ar    1  UNL1        0.0000
     11 C         -24.5818    1.5617   27.9589 C.ar    1  UNL1        0.0857
     12 N         -24.7842    2.6368   28.4794 N.ar    1  UNL1       -0.2136
     13 C         -24.3804    1.4286   26.5687 C.ar    1  UNL1        0.0399
     14 C         -24.9224    3.8008   27.7600 C.ar    1  UNL1        0.2202
     15 C         -24.4307    2.5499   25.7714 C.ar    1  UNL1        0.1034
     16 N         -24.6672    3.7661   26.4244 N.ar    1  UNL1       -0.2121
     17 N         -25.0625    5.0371   28.3323 N.pl3   1  UNL1       -0.2776
     18 C         -25.7191    5.1461   29.5446 C.3     1  UNL1        0.1046
     19 C         -25.7673    6.4413   30.1096 C.3     1  UNL1        0.1189
     20 C         -24.8066    6.2300   27.7510 C.3     1  UNL1        0.0936
     21 C         -25.1472    7.3824   28.3498 C.3     1  UNL1        0.0221
     22 C         -25.5525    7.5642   29.5501 C.3     1  UNL1        0.0146
     23 CL        -29.3032   -2.8362   30.2202 Cl      1  UNL1       -0.0822
     24 C         -26.3497    6.3688   31.6029 C.2     1  UNL1        0.3186
     25 O         -26.6092    5.4388   32.1934 O.2     1  UNL1       -0.2500
     26 O         -26.3839    7.5975   32.1703 O.3     1  UNL1       -0.4383
     27 C         -26.9196    7.6995   33.3655 C.3     1  UNL1        0.2945
     28 C         -27.6385    8.8840   33.5510 C.2     1  UNL1        0.2902
     29 O         -27.4024    9.8122   32.9223 O.2     1  UNL1       -0.2689
     30 N         -28.6739    8.8990   34.4751 N.am    1  UNL1       -0.1747
     31 C         -29.5328   10.0412   34.6547 C.2     1  UNL1        0.0887
     32 C         -30.4940   10.0410   35.1931 C.2     1  UNL1        0.0176
     33 C         -31.3286   10.5188   35.5002 C.2     1  UNL1       -0.0032
     34 C         -31.3735   12.0119   35.0919 C.2     1  UNL1       -0.0257
     35 C         -30.2349   12.3424   34.3307 C.3     1  UNL1        0.0307
@<TRIPOS>BOND
     1     4    11    1
     2    14    17    1
     3    17    18    1
     4    17    20    1
     5    19    22    1
     6    21    22    1
     7     6    23    1
     8    19    24    1
     9    24    25    2
    10    24    26    1
    11    26    27    1
    12    27    28    1
    13    28    29    2
    14    28    30   am
    15    30    31    1
    16    31    32    2
    17    32    33    1
    18    33    34    2
    19    34    35    1
    20    18    19    1
    21    21    20    1
    22    11    12   ar
    23    12    14   ar
    24    14    16   ar
    25    16    15   ar
    26    15    13   ar
    27    13    11   ar
    28     1     2   ar
    29     2     3   ar
    30     8     7   ar
    31     7     6   ar
    32     6     1   ar
    33     3     4   ar
    34     4     5   ar
    35     5     9   ar
    36     9    10   ar
    37    10     8   ar
    38     8     3   ar
