@<TRIPOS>MOLECULE
outputs/IAG933/test6/raw/output_8700_IAG933_linker_design_.xyz
 42 45 0 0 0
SMALL
GASTEIGER

@<TRIPOS>ATOM
      1 C         -24.8550   -1.0120   30.1430 C.3     1  UNL1        0.1113
      2 C         -24.9730   -2.5050   29.7880 C.2     1  UNL1       -0.0051
      3 C         -23.9060   -3.1730   29.1460 C.2     1  UNL1       -0.0029
      4 C         -23.9890   -4.5490   28.8530 C.2     1  UNL1       -0.0003
      5 C         -25.1370   -5.2800   29.2050 C.2     1  UNL1       -0.0000
      6 C         -26.2320   -4.6110   29.7840 C.2     1  UNL1       -0.0003
      7 C         -26.1550   -3.2320   30.0650 C.2     1  UNL1       -0.0029
      8 C         -25.3870   -0.6790   31.5710 C.3     1  UNL1        0.0929
      9 C         -25.1890    0.7730   32.0280 C.3     1  UNL1        0.0206
     10 C         -25.3360    0.6840   33.5440 C.3     1  UNL1        0.0203
     11 C         -24.8290   -0.7150   33.9050 C.3     1  UNL1        0.0888
     12 N         -24.7580   -1.4810   32.6460 N.3     1  UNL1       -0.2177
     13 C         -25.6880    1.6140   26.4610 C.3     1  UNL1        0.0760
     14 C         -26.2500    2.9200   26.3950 C.2     1  UNL1        0.0552
     15 C         -25.6420    4.0930   27.1230 C.2     1  UNL1        0.2625
     16 N         -25.6140    5.2520   26.4490 N.am    1  UNL1       -0.2000
     17 C         -25.0260    6.4790   26.9630 C.3     1  UNL1        0.1388
     18 O         -25.1430    3.9660   28.2430 O.2     1  UNL1       -0.2687
     19 C         -27.4380    3.0910   25.6450 C.2     1  UNL1        0.1021
     20 N         -28.0750    2.0890   25.0030 N.2     1  UNL1       -0.2119
     21 C         -27.5430    0.8490   25.0790 C.2     1  UNL1        0.2341
     22 O         -28.1930   -0.2080   24.4770 O.2     1  UNL1       -0.4585
     23 C         -29.4600    0.0050   23.8660 C.3     1  UNL1        0.2423
     24 C         -30.0650   -1.3770   23.5730 C.3     1  UNL1        0.2292
     25 O         -30.7290   -1.8780   24.7210 O.3     1  UNL1       -0.2162
     26 C         -26.3540    0.5760   25.7770 C.3     1  UNL1        0.2404
     27 F         -25.8600   -0.6810   25.7950 F       1  UNL1       -0.2269
     28 C         -23.3427    1.7410   26.4271 C.2     1  UNL1        0.1634
     29 F         -23.9348    2.4359   25.4776 F       1  UNL1       -0.2021
     30 C         -22.9866    0.5382   28.4711 C.2     1  UNL1       -0.0018
     31 C         -21.0704    1.7663   27.3202 C.2     1  UNL1        0.0319
     32 C         -25.0925    1.0654   27.6023 C.3     1  UNL1        0.0552
     33 C         -21.5811    0.9307   28.3410 C.2     1  UNL1        0.0021
     34 C         -27.3963    0.5297   29.0215 C.2     1  UNL1        0.1997
     35 F         -21.4330    2.2288   25.0542 F       1  UNL1       -0.2018
     36 C         -27.9749   -0.7586   28.4853 C.3     1  UNL1        0.2473
     37 O         -28.6228   -1.6327   29.3337 O.3     1  UNL1       -0.2118
     38 C         -22.0074    2.1240   26.2734 C.2     1  UNL1        0.1671
     39 O         -28.0607    1.3204   29.5401 O.2     1  UNL1       -0.2918
     40 N         -25.2259   -0.1371   29.2173 N.3     1  UNL1       -0.2072
     41 C         -25.9207    0.5150   28.6916 C.3     1  UNL1        0.1374
     42 C         -23.9422    1.1828   27.5730 C.2     1  UNL1        0.0094
@<TRIPOS>BOND
     1     1    40    1
     2     2     7    1
     3     2     1    1
     4     3     2    2
     5     4     3    1
     6     4     5    2
     7     5     6    1
     8     6     7    2
     9     8     1    1
    10     8     9    1
    11     8    12    1
    12     9    10    1
    13    10    11    1
    14    12    11    1
    15    13    32    1
    16    14    13    1
    17    14    15    1
    18    15    18    2
    19    16    17    1
    20    16    15    1
    21    19    14    2
    22    20    21    2
    23    20    19    1
    24    21    26    1
    25    22    21    1
    26    23    22    1
    27    24    23    1
    28    24    25    1
    29    26    27    1
    30    26    13    1
    31    28    42    1
    32    29    28    1
    33    31    33    2
    34    32    41    1
    35    33    30    1
    36    34    39    2
    37    35    38    1
    38    36    34    1
    39    36    37    1
    40    38    28    2
    41    38    31    1
    42    41    34    1
    43    41    40    1
    44    42    32    1
    45    42    30    2
