@<TRIPOS>MOLECULE
outputs/IAG933/test6/raw/output_8706_IAG933_linker_design_.xyz
 46 49 0 0 0
SMALL
GASTEIGER

@<TRIPOS>ATOM
      1 C         -24.8550   -1.0120   30.1430 C.3     1  UNL1        0.0457
      2 C         -24.9730   -2.5050   29.7880 C.2     1  UNL1       -0.0207
      3 C         -23.9060   -3.1730   29.1460 C.2     1  UNL1       -0.0042
      4 C         -23.9890   -4.5490   28.8530 C.2     1  UNL1       -0.0003
      5 C         -25.1370   -5.2800   29.2050 C.2     1  UNL1       -0.0000
      6 C         -26.2320   -4.6110   29.7840 C.2     1  UNL1       -0.0003
      7 C         -26.1550   -3.2320   30.0650 C.2     1  UNL1       -0.0042
      8 C         -25.3870   -0.6790   31.5710 C.3     1  UNL1        0.1000
      9 C         -25.1890    0.7730   32.0280 C.3     1  UNL1        0.1291
     10 C         -25.3360    0.6840   33.5440 C.3     1  UNL1        0.0451
     11 C         -24.8290   -0.7150   33.9050 C.3     1  UNL1        0.0908
     12 N         -24.7580   -1.4810   32.6460 N.3     1  UNL1       -0.2171
     13 C         -25.6880    1.6140   26.4610 C.2     1  UNL1        0.0320
     14 C         -26.2500    2.9200   26.3950 C.2     1  UNL1        0.0739
     15 C         -25.6420    4.0930   27.1230 C.2     1  UNL1        0.2662
     16 N         -25.6140    5.2520   26.4490 N.am    1  UNL1       -0.1997
     17 C         -25.0260    6.4790   26.9630 C.3     1  UNL1        0.1388
     18 O         -25.1430    3.9660   28.2430 O.2     1  UNL1       -0.2683
     19 C         -27.4380    3.0910   25.6450 C.2     1  UNL1        0.1065
     20 N         -28.0750    2.0890   25.0030 N.2     1  UNL1       -0.2081
     21 C         -27.5430    0.8490   25.0790 C.2     1  UNL1        0.2530
     22 O         -28.1930   -0.2080   24.4770 O.2     1  UNL1       -0.4558
     23 C         -29.4600    0.0050   23.8660 C.3     1  UNL1        0.2426
     24 C         -30.0650   -1.3770   23.5730 C.3     1  UNL1        0.2292
     25 O         -30.7290   -1.8780   24.7210 O.3     1  UNL1       -0.2162
     26 C         -26.3540    0.5760   25.7770 C.2     1  UNL1        0.1904
     27 F         -25.8600   -0.6810   25.7950 F       1  UNL1       -0.1995
     28 C         -24.5036    1.1286   27.1738 C.3     1  UNL1        0.1020
     29 C         -24.2515    2.2274   30.4752 C.2     1  UNL1        0.1420
     30 N         -25.4635    2.0239   31.3726 N.3     1  UNL1       -0.2177
     31 S         -26.4038    4.1844   31.4509 S.3     1  UNL1        0.0809
     32 C         -25.3223    5.5117   33.8434 C.2     1  UNL1        0.2205
     33 O         -26.0023    2.9683   32.2161 O.3     1  UNL1       -0.1886
     34 C         -23.2977    2.1225   25.2339 C.3     1  UNL1        0.0902
     35 C         -23.2787    1.6881   29.6028 C.1     1  UNL1       -0.0833
     36 C         -21.9861    1.5603   27.2973 C.3     1  UNL1        0.1075
     37 O         -25.2895    6.8492   34.1228 O.2     1  UNL1       -0.3765
     38 C         -22.1911    1.0731   28.7614 C.2     1  UNL1        0.0343
     39 N         -25.6042    7.4963   33.0278 N.am    1  UNL1       -0.1166
     40 N         -23.2991    1.8253   26.6921 N.3     1  UNL1       -0.2634
     41 C         -28.0901    4.4366   31.2538 C.3     1  UNL1        0.1156
     42 O         -26.3188    6.9927   30.7607 O.2     1  UNL1       -0.2662
     43 C         -26.0579    6.7580   31.9822 C.2     1  UNL1        0.2918
     44 O         -25.5799    4.3839   30.5082 O.3     1  UNL1       -0.1387
     45 C         -25.9518    5.3975   32.4647 C.2     1  UNL1        0.1556
     46 C         -25.1308    8.8218   32.7850 C.3     1  UNL1        0.1620
@<TRIPOS>BOND
     1     2     7    1
     2     2     1    1
     3     3     2    2
     4     4     3    1
     5     4     5    2
     6     5     6    1
     7     6     7    2
     8     8     1    1
     9     8     9    1
    10     8    12    1
    11     9    30    1
    12     9    10    1
    13    10    11    1
    14    12    11    1
    15    13    28    1
    16    14    13    1
    17    14    15    1
    18    15    18    2
    19    16    17    1
    20    16    15    1
    21    19    14    2
    22    20    21    2
    23    20    19    1
    24    21    26    1
    25    22    21    1
    26    23    22    1
    27    24    23    1
    28    24    25    1
    29    26    27    1
    30    26    13    2
    31    29    30    1
    32    30    33    1
    33    31    41    1
    34    31    33    1
    35    31    45    1
    36    32    37    1
    37    34    40    1
    38    35    29    2
    39    36    38    1
    40    38    35    2
    41    39    37    1
    42    40    28    1
    43    40    36    1
    44    42    43    2
    45    43    45    1
    46    43    39   am
    47    44    31    1
    48    45    32    2
    49    46    39    1
