@<TRIPOS>MOLECULE
outputs/IAG933/test6/raw/output_8708_IAG933_linker_design_.xyz
 42 45 0 0 0
SMALL
GASTEIGER

@<TRIPOS>ATOM
      1 C         -24.8550   -1.0120   30.1430 C.3     1  UNL1        0.1125
      2 C         -24.9730   -2.5050   29.7880 C.2     1  UNL1       -0.0030
      3 C         -23.9060   -3.1730   29.1460 C.2     1  UNL1       -0.0026
      4 C         -23.9890   -4.5490   28.8530 C.2     1  UNL1       -0.0003
      5 C         -25.1370   -5.2800   29.2050 C.2     1  UNL1       -0.0000
      6 C         -26.2320   -4.6110   29.7840 C.2     1  UNL1       -0.0003
      7 C         -26.1550   -3.2320   30.0650 C.2     1  UNL1       -0.0026
      8 C         -25.3870   -0.6790   31.5710 C.3     1  UNL1        0.0951
      9 C         -25.1890    0.7730   32.0280 C.3     1  UNL1        0.0209
     10 C         -25.3360    0.6840   33.5440 C.3     1  UNL1        0.0203
     11 C         -24.8290   -0.7150   33.9050 C.3     1  UNL1        0.0888
     12 N         -24.7580   -1.4810   32.6460 N.3     1  UNL1       -0.2174
     13 C         -25.6880    1.6140   26.4610 C.2     1  UNL1        0.0391
     14 C         -26.2500    2.9200   26.3950 C.2     1  UNL1        0.0766
     15 C         -25.6420    4.0930   27.1230 C.2     1  UNL1        0.2664
     16 N         -25.6140    5.2520   26.4490 N.am    1  UNL1       -0.1997
     17 C         -25.0260    6.4790   26.9630 C.3     1  UNL1        0.1388
     18 O         -25.1430    3.9660   28.2430 O.2     1  UNL1       -0.2683
     19 C         -27.4380    3.0910   25.6450 C.2     1  UNL1        0.1067
     20 N         -28.0750    2.0890   25.0030 N.2     1  UNL1       -0.2081
     21 C         -27.5430    0.8490   25.0790 C.2     1  UNL1        0.2533
     22 O         -28.1930   -0.2080   24.4770 O.2     1  UNL1       -0.4558
     23 C         -29.4600    0.0050   23.8660 C.3     1  UNL1        0.2426
     24 C         -30.0650   -1.3770   23.5730 C.3     1  UNL1        0.2292
     25 O         -30.7290   -1.8780   24.7210 O.3     1  UNL1       -0.2162
     26 C         -26.3540    0.5760   25.7770 C.2     1  UNL1        0.1931
     27 F         -25.8600   -0.6810   25.7950 F       1  UNL1       -0.1992
     28 C         -22.4527    1.1202   27.9650 C.2     1  UNL1        0.2094
     29 O         -21.1869    1.6551   27.7941 O.2     1  UNL1       -0.2880
     30 C         -23.3714    1.4542   27.0215 C.2     1  UNL1        0.0417
     31 O         -28.1358   -0.7043   28.5363 O.3     1  UNL1       -0.4177
     32 N         -21.9644   -0.0776   30.0813 N.3     1  UNL1       -0.1021
     33 C         -29.0733   -0.0167   29.2712 C.2     1  UNL1        0.5119
     34 C         -27.2139   -0.2567   29.0518 C.3     1  UNL1        0.2181
     35 O         -29.4897   -0.7372   30.2976 O.3     1  UNL1       -0.4140
     36 O         -29.3582    1.1408   29.0541 O.2     1  UNL1       -0.2028
     37 C         -22.8834    0.3496   29.1364 C.3     1  UNL1        0.2284
     38 C         -25.0740    0.7549   28.6215 C.2     1  UNL1        0.0303
     39 C         -26.4489    1.0657   29.1966 C.3     1  UNL1        0.0886
     40 C         -24.6500    1.2755   27.3637 C.2     1  UNL1        0.0148
     41 C         -29.3089   -2.1488   30.3472 C.3     1  UNL1        0.2594
     42 N         -24.2021    0.0222   29.3196 N.pl3   1  UNL1       -0.2878
@<TRIPOS>BOND
     1     1     2    1
     2     2     7    1
     3     3     2    2
     4     4     3    1
     5     4     5    2
     6     5     6    1
     7     6     7    2
     8     8     1    1
     9     8     9    1
    10     8    12    1
    11     9    10    1
    12    10    11    1
    13    12    11    1
    14    13    40    1
    15    14    13    1
    16    14    15    1
    17    15    18    2
    18    16    17    1
    19    16    15    1
    20    19    14    2
    21    20    21    2
    22    20    19    1
    23    21    26    1
    24    22    21    1
    25    23    22    1
    26    24    23    1
    27    24    25    1
    28    26    27    1
    29    26    13    2
    30    28    37    1
    31    29    28    1
    32    30    40    1
    33    30    28    2
    34    31    34    1
    35    31    33    1
    36    33    35    1
    37    34    39    1
    38    35    41    1
    39    36    33    2
    40    37    42    1
    41    37    32    1
    42    38    39    1
    43    38    42    1
    44    40    38    2
    45    42     1    1
