@<TRIPOS>MOLECULE
outputs/IAG933/test6/raw/output_8709_IAG933_linker_design_.xyz
 42 46 0 0 0
SMALL
GASTEIGER

@<TRIPOS>ATOM
      1 C         -24.8550   -1.0120   30.1430 C.3     1  UNL1        0.1119
      2 C         -24.9730   -2.5050   29.7880 C.2     1  UNL1       -0.0030
      3 C         -23.9060   -3.1730   29.1460 C.2     1  UNL1       -0.0026
      4 C         -23.9890   -4.5490   28.8530 C.2     1  UNL1       -0.0003
      5 C         -25.1370   -5.2800   29.2050 C.2     1  UNL1       -0.0000
      6 C         -26.2320   -4.6110   29.7840 C.2     1  UNL1       -0.0003
      7 C         -26.1550   -3.2320   30.0650 C.2     1  UNL1       -0.0026
      8 C         -25.3870   -0.6790   31.5710 C.3     1  UNL1        0.0951
      9 C         -25.1890    0.7730   32.0280 C.3     1  UNL1        0.0209
     10 C         -25.3360    0.6840   33.5440 C.3     1  UNL1        0.0203
     11 C         -24.8290   -0.7150   33.9050 C.3     1  UNL1        0.0888
     12 N         -24.7580   -1.4810   32.6460 N.3     1  UNL1       -0.2174
     13 C         -25.6880    1.6140   26.4610 C.2     1  UNL1        0.0361
     14 C         -26.2500    2.9200   26.3950 C.2     1  UNL1        0.0763
     15 C         -25.6420    4.0930   27.1230 C.2     1  UNL1        0.2664
     16 N         -25.6140    5.2520   26.4490 N.am    1  UNL1       -0.1997
     17 C         -25.0260    6.4790   26.9630 C.3     1  UNL1        0.1388
     18 O         -25.1430    3.9660   28.2430 O.2     1  UNL1       -0.2683
     19 C         -27.4380    3.0910   25.6450 C.2     1  UNL1        0.1067
     20 N         -28.0750    2.0890   25.0030 N.2     1  UNL1       -0.2081
     21 C         -27.5430    0.8490   25.0790 C.2     1  UNL1        0.2533
     22 O         -28.1930   -0.2080   24.4770 O.2     1  UNL1       -0.4558
     23 C         -29.4600    0.0050   23.8660 C.3     1  UNL1        0.2426
     24 C         -30.0650   -1.3770   23.5730 C.3     1  UNL1        0.2292
     25 O         -30.7290   -1.8780   24.7210 O.3     1  UNL1       -0.2162
     26 C         -26.3540    0.5760   25.7770 C.2     1  UNL1        0.1928
     27 F         -25.8600   -0.6810   25.7950 F       1  UNL1       -0.1992
     28 N         -25.3838   -0.1023   29.0954 N.pl3   1  UNL1       -0.2957
     29 C         -27.1400    1.6796   29.4314 C.2     1  UNL1        0.0142
     30 C         -29.1532   -0.1880   28.8070 C.2     1  UNL1       -0.0030
     31 C         -23.0288    0.5880   28.5366 C.2     1  UNL1        0.2056
     32 C         -29.4012    1.2024   28.8674 C.2     1  UNL1       -0.0218
     33 C         -24.4949    1.3565   27.0755 C.2     1  UNL1        0.0066
     34 CL        -20.6888    1.8868   27.7346 Cl      1  UNL1       -0.0792
     35 C         -24.3881    0.5027   28.2859 C.3     1  UNL1        0.1592
     36 C         -23.2472    1.8469   26.6379 C.2     1  UNL1        0.0122
     37 C         -30.5414    1.8024   28.0841 C.3     1  UNL1        0.0310
     38 C         -26.7904    0.3159   29.1467 C.2     1  UNL1        0.0485
     39 C         -28.4776    2.0647   29.4989 C.2     1  UNL1       -0.0030
     40 C         -27.8264   -0.6361   28.9282 C.2     1  UNL1        0.0142
     41 O         -22.3538   -0.0399   29.4696 O.2     1  UNL1       -0.2883
     42 C         -22.3554    1.4104   27.5852 C.2     1  UNL1        0.0940
@<TRIPOS>BOND
     1     1    28    1
     2     2     7    1
     3     2     1    1
     4     3     2    2
     5     4     3    1
     6     4     5    2
     7     5     6    1
     8     6     7    2
     9     8     1    1
    10     8     9    1
    11     8    12    1
    12     9    10    1
    13    10    11    1
    14    12    11    1
    15    13    33    1
    16    14    13    1
    17    14    15    1
    18    15    18    2
    19    16    17    1
    20    16    15    1
    21    19    14    2
    22    20    21    2
    23    20    19    1
    24    21    26    1
    25    22    21    1
    26    23    22    1
    27    24    23    1
    28    24    25    1
    29    26    27    1
    30    26    13    2
    31    28    38    1
    32    29    39    1
    33    30    32    1
    34    30    40    2
    35    31    41    1
    36    32    39    2
    37    33    35    1
    38    35    31    1
    39    35    28    1
    40    36    33    2
    41    36    42    1
    42    37    32    1
    43    38    29    2
    44    40    38    1
    45    42    34    1
    46    42    31    2
