@<TRIPOS>MOLECULE
outputs/IAG933/test6/raw/output_8710_IAG933_linker_design_.xyz
 45 49 0 0 0
SMALL
GASTEIGER

@<TRIPOS>ATOM
      1 C         -24.8550   -1.0120   30.1430 C.3     1  UNL1        0.0964
      2 C         -24.9730   -2.5050   29.7880 C.2     1  UNL1       -0.0064
      3 C         -23.9060   -3.1730   29.1460 C.2     1  UNL1       -0.0029
      4 C         -23.9890   -4.5490   28.8530 C.2     1  UNL1       -0.0003
      5 C         -25.1370   -5.2800   29.2050 C.2     1  UNL1       -0.0000
      6 C         -26.2320   -4.6110   29.7840 C.2     1  UNL1       -0.0003
      7 C         -26.1550   -3.2320   30.0650 C.2     1  UNL1       -0.0029
      8 C         -25.3870   -0.6790   31.5710 C.3     1  UNL1        0.0916
      9 C         -25.1890    0.7730   32.0280 C.3     1  UNL1        0.0206
     10 C         -25.3360    0.6840   33.5440 C.3     1  UNL1        0.0203
     11 C         -24.8290   -0.7150   33.9050 C.3     1  UNL1        0.0888
     12 N         -24.7580   -1.4810   32.6460 N.3     1  UNL1       -0.2178
     13 C         -25.6880    1.6140   26.4610 C.2     1  UNL1        0.0162
     14 C         -26.2500    2.9200   26.3950 C.2     1  UNL1        0.0726
     15 C         -25.6420    4.0930   27.1230 C.2     1  UNL1        0.2661
     16 N         -25.6140    5.2520   26.4490 N.am    1  UNL1       -0.1997
     17 C         -25.0260    6.4790   26.9630 C.3     1  UNL1        0.1388
     18 O         -25.1430    3.9660   28.2430 O.2     1  UNL1       -0.2683
     19 C         -27.4380    3.0910   25.6450 C.2     1  UNL1        0.1064
     20 N         -28.0750    2.0890   25.0030 N.2     1  UNL1       -0.2081
     21 C         -27.5430    0.8490   25.0790 C.2     1  UNL1        0.2530
     22 O         -28.1930   -0.2080   24.4770 O.2     1  UNL1       -0.4558
     23 C         -29.4600    0.0050   23.8660 C.3     1  UNL1        0.2426
     24 C         -30.0650   -1.3770   23.5730 C.3     1  UNL1        0.2292
     25 O         -30.7290   -1.8780   24.7210 O.3     1  UNL1       -0.2162
     26 C         -26.3540    0.5760   25.7770 C.2     1  UNL1        0.1891
     27 F         -25.8600   -0.6810   25.7950 F       1  UNL1       -0.1996
     28 C         -27.0719    1.2073   29.3976 C.3     1  UNL1        0.0490
     29 O         -21.5652    2.0373   25.7016 O.3     1  UNL1       -0.1554
     30 C         -22.2415   -0.2053   29.5089 C.2     1  UNL1       -0.0123
     31 N         -24.8487    0.1320   29.3904 N.3     1  UNL1       -0.2679
     32 C         -24.5096    1.7502   27.1435 C.3     1  UNL1        0.0374
     33 C         -28.5925    0.5872   29.1687 C.3     1  UNL1        0.1547
     34 O         -29.8793   -0.1254   28.8109 O.3     1  UNL1       -0.2231
     35 C         -22.5754    1.6028   27.9422 C.3     1  UNL1        0.0640
     36 C         -23.3225    0.5783   29.0084 C.3     1  UNL1        0.0830
     37 C         -23.3025    1.3718   26.8449 C.3     1  UNL1        0.1018
     38 C         -27.2876   -0.3338   28.6630 C.3     1  UNL1        0.0490
     39 C         -21.0934    0.2089   28.7769 C.2     1  UNL1        0.0052
     40 C         -21.1964    1.2708   27.7073 C.3     1  UNL1        0.1845
     41 C         -22.8401    1.7827   25.6802 C.3     1  UNL1        0.3902
     42 F         -20.4212    2.4230   27.8145 F       1  UNL1       -0.2324
     43 C         -26.2262    0.6817   28.9537 C.3     1  UNL1        0.0631
     44 F         -23.2981    1.3302   24.4871 F       1  UNL1       -0.1721
     45 F         -23.2491    3.0997   25.4911 F       1  UNL1       -0.1721
@<TRIPOS>BOND
     1     1    31    1
     2     2     7    1
     3     2     1    1
     4     3     2    2
     5     4     3    1
     6     4     5    2
     7     5     6    1
     8     6     7    2
     9     8     1    1
    10     8     9    1
    11     8    12    1
    12     9    10    1
    13    10    11    1
    14    12    11    1
    15    13    32    1
    16    14    13    1
    17    14    15    1
    18    15    18    2
    19    16    17    1
    20    16    15    1
    21    19    14    2
    22    20    21    2
    23    20    19    1
    24    21    26    1
    25    22    21    1
    26    23    22    1
    27    24    23    1
    28    24    25    1
    29    26    27    1
    30    26    13    2
    31    33    34    1
    32    33    28    1
    33    35    37    1
    34    35    36    1
    35    36    31    1
    36    36    30    1
    37    37    32    1
    38    38    43    1
    39    38    33    1
    40    39    30    2
    41    40    42    1
    42    40    35    1
    43    40    39    1
    44    41    29    1
    45    41    37    1
    46    43    31    1
    47    43    28    1
    48    44    41    1
    49    45    41    1
