@<TRIPOS>MOLECULE
outputs/IAG933/test6/raw/output_8712_IAG933_linker_design_.xyz
 42 44 0 0 0
SMALL
GASTEIGER

@<TRIPOS>ATOM
      1 C         -24.8550   -1.0120   30.1430 C.3     1  UNK1        0.0696
      2 C         -24.9730   -2.5050   29.7880 C.2     1  UNK1       -0.0188
      3 C         -23.9060   -3.1730   29.1460 C.2     1  UNK1       -0.0042
      4 C         -23.9890   -4.5490   28.8530 C.2     1  UNK1       -0.0003
      5 C         -25.1370   -5.2800   29.2050 C.2     1  UNK1       -0.0000
      6 C         -26.2320   -4.6110   29.7840 C.2     1  UNK1       -0.0003
      7 C         -26.1550   -3.2320   30.0650 C.2     1  UNK1       -0.0042
      8 C         -25.3870   -0.6790   31.5710 C.3     1  UNK1        0.0792
      9 C         -25.1890    0.7730   32.0280 C.3     1  UNK1        0.0193
     10 C         -25.3360    0.6840   33.5440 C.3     1  UNK1        0.0202
     11 C         -24.8290   -0.7150   33.9050 C.3     1  UNK1        0.0887
     12 N         -24.7580   -1.4810   32.6460 N.3     1  UNK1       -0.2191
     13 C         -25.6880    1.6140   26.4610 C.2     0  UNK0        0.0622
     14 C         -26.2500    2.9200   26.3950 C.2     0  UNK0        0.0804
     15 C         -25.6420    4.0930   27.1230 C.2     0  UNK0        0.2667
     16 N         -25.6140    5.2520   26.4490 N.am    0  UNK0       -0.1997
     17 C         -25.0260    6.4790   26.9630 C.3     0  UNK0        0.1388
     18 O         -25.1430    3.9660   28.2430 O.2     0  UNK0       -0.2683
     19 C         -27.4380    3.0910   25.6450 C.2     0  UNK0        0.1067
     20 N         -28.0750    2.0890   25.0030 N.2     0  UNK0       -0.2112
     21 C         -27.5430    0.8490   25.0790 C.2     0  UNK0        0.2389
     22 O         -28.1930   -0.2080   24.4770 O.2     0  UNK0       -0.4583
     23 C         -29.4600    0.0050   23.8660 C.3     0  UNK0        0.2423
     24 C         -30.0650   -1.3770   23.5730 C.3     0  UNK0        0.2292
     25 O         -30.7290   -1.8780   24.7210 O.3     0  UNK0       -0.2162
     26 C         -26.3540    0.5760   25.7770 C.3     0  UNK0        0.2654
     27 F         -25.8600   -0.6810   25.7950 F       0  UNK0       -0.2217
     28 C         -27.5656    3.7118   31.2647 C.3     2  GLY2        0.2054
     29 C         -21.2576    1.3357   28.1253 C.3     0  UNK0        0.0492
     30 C         -22.7003    0.9630   27.8914 C.2     0  UNK0        0.0955
     31 C         -20.4023    0.2942   28.6718 C.3     0  UNK0        0.0068
     32 C         -24.6181    1.4092   26.7964 C.1     0  UNK0       -0.0652
     33 CA        -27.9967    2.2860   30.8422 C.3     2  GLY2        0.1506
     34 N         -23.5546    0.3400   28.8022 N.2     1  UNK1       -0.2633
     35 C         -22.9266    2.9766   25.0166 C.3     0  UNK0        0.2533
     36 N         -27.7599    2.2327   29.3872 N.am    2  GLY2       -0.2010
     37 O         -23.2266    1.6217   25.4398 O.2     0  UNK0       -0.4635
     38 C         -24.9944    0.0550   29.0791 C.3     1  UNK1        0.1856
     39 O         -27.8361    4.6461   30.2474 O.3     2  GLY2       -0.2184
     40 C         -23.5004    1.3917   26.7186 C.2     0  UNK0        0.1867
     41 C         -26.6986    0.9469   29.0521 C.2     1  UNK1        0.2641
     42 O         -27.5971   -0.1605   28.8067 O.2     1  UNK1       -0.2712
@<TRIPOS>BOND
     1     1    38    1
     2     2     7    1
     3     2     1    1
     4     3     2    2
     5     4     3    1
     6     4     5    2
     7     5     6    1
     8     6     7    2
     9     8     1    1
    10     8     9    1
    11     8    12    1
    12     9    10    1
    13    10    11    1
    14    12    11    1
    15    13    32    2
    16    14    13    1
    17    14    15    1
    18    15    18    2
    19    16    17    1
    20    16    15    1
    21    19    14    2
    22    20    21    2
    23    20    19    1
    24    21    26    1
    25    22    21    1
    26    23    22    1
    27    24    23    1
    28    24    25    1
    29    26    27    1
    30    26    13    1
    31    29    31    1
    32    30    29    1
    33    30    34    2
    34    33    28    1
    35    35    37    1
    36    36    33    1
    37    37    40    1
    38    38    34    1
    39    39    28    1
    40    40    32    2
    41    40    30    1
    42    41    38    1
    43    41    36    1
    44    42    41    2
