@<TRIPOS>MOLECULE
outputs/IAG933/test6/raw/output_8713_IAG933_linker_design_.xyz
 50 55 0 0 0
SMALL
GASTEIGER

@<TRIPOS>ATOM
      1 C         -24.8550   -1.0120   30.1430 C.3     1  UNL1        0.0583
      2 C         -24.9730   -2.5050   29.7880 C.2     1  UNL1       -0.0195
      3 C         -23.9060   -3.1730   29.1460 C.2     1  UNL1       -0.0042
      4 C         -23.9890   -4.5490   28.8530 C.2     1  UNL1       -0.0003
      5 C         -25.1370   -5.2800   29.2050 C.2     1  UNL1       -0.0000
      6 C         -26.2320   -4.6110   29.7840 C.2     1  UNL1       -0.0003
      7 C         -26.1550   -3.2320   30.0650 C.2     1  UNL1       -0.0042
      8 C         -25.3870   -0.6790   31.5710 C.3     1  UNL1        0.0785
      9 C         -25.1890    0.7730   32.0280 C.3     1  UNL1        0.0192
     10 C         -25.3360    0.6840   33.5440 C.3     1  UNL1        0.0202
     11 C         -24.8290   -0.7150   33.9050 C.3     1  UNL1        0.0887
     12 N         -24.7580   -1.4810   32.6460 N.3     1  UNL1       -0.2191
     13 C         -25.6880    1.6140   26.4610 C.2     1  UNL1        0.0714
     14 C         -26.2500    2.9200   26.3950 C.2     1  UNL1        0.0559
     15 C         -25.6420    4.0930   27.1230 C.2     1  UNL1        0.2107
     16 N         -25.6140    5.2520   26.4490 N.pl3   1  UNL1       -0.2038
     17 C         -25.0260    6.4790   26.9630 C.3     1  UNL1        0.1387
     18 O         -25.1430    3.9660   28.2430 O.2     1  UNL1       -0.4287
     19 C         -27.4380    3.0910   25.6450 C.3     1  UNL1        0.1591
     20 N         -28.0750    2.0890   25.0030 N.2     1  UNL1       -0.2340
     21 C         -27.5430    0.8490   25.0790 C.2     1  UNL1        0.2343
     22 O         -28.1930   -0.2080   24.4770 O.2     1  UNL1       -0.4585
     23 C         -29.4600    0.0050   23.8660 C.3     1  UNL1        0.2423
     24 C         -30.0650   -1.3770   23.5730 C.3     1  UNL1        0.2292
     25 O         -30.7290   -1.8780   24.7210 O.3     1  UNL1       -0.2162
     26 C         -26.3540    0.5760   25.7770 C.3     1  UNL1        0.2620
     27 F         -25.8600   -0.6810   25.7950 F       1  UNL1       -0.2222
     28 C         -28.5456    3.9853   29.0885 C.3     1  UNL1        0.0271
     29 C         -25.7996    3.9434   31.6176 C.2     1  UNL1        0.1300
     30 C         -28.9085    1.5711   29.7629 C.2     1  UNL1       -0.0043
     31 C         -29.3319    0.2443   29.5116 C.2     1  UNL1       -0.0003
     32 C         -25.3591    1.1549   27.8938 C.2     1  UNL1        0.2117
     33 C         -22.2865    1.6580   26.4589 C.3     1  UNL1        0.0001
     34 C         -22.3775    1.4800   27.9991 C.3     1  UNL1        0.0017
     35 O         -24.5677    4.4525   31.6109 O.2     1  UNL1       -0.4544
     36 C         -25.5228    4.8281   33.7880 C.2     1  UNL1        0.0434
     37 O         -25.5805    1.8484   29.0673 O.2     1  UNL1       -0.4286
     38 C         -20.8843    1.7379   28.2349 C.3     1  UNL1        0.0001
     39 C         -22.8310    0.3005   28.9484 C.3     1  UNL1        0.0221
     40 N         -25.0200   -0.1654   28.0269 N.pl3   1  UNL1       -0.2070
     41 C         -27.8524    3.8571   30.4807 C.3     1  UNL1        0.0199
     42 C         -24.2923    4.9931   33.0219 C.2     1  UNL1        0.1791
     43 C         -29.1352    2.6041   28.8255 C.2     1  UNL1       -0.0222
     44 C         -30.0489   -0.0138   28.3413 C.2     1  UNL1       -0.0000
     45 C         -25.7239    3.0794   29.2909 C.3     1  UNL1        0.3496
     46 C         -30.3629    1.0150   27.4515 C.2     1  UNL1       -0.0003
     47 C         -26.4223    4.0217   32.8883 C.2     1  UNL1        0.0364
     48 C         -24.2097   -0.3374   29.0710 C.3     1  UNL1        0.1008
     49 C         -26.3275    3.6398   30.4082 C.3     1  UNL1        0.1419
     50 C         -29.8814    2.3023   27.6695 C.2     1  UNL1       -0.0043
@<TRIPOS>BOND
     1     1    48    1
     2     2     7    1
     3     2     1    1
     4     3     2    2
     5     4     3    1
     6     4     5    2
     7     5     6    1
     8     6     7    2
     9     8     1    1
    10     8     9    1
    11     8    12    1
    12     9    10    1
    13    10    11    1
    14    12    11    1
    15    13    32    2
    16    14    13    1
    17    14    15    2
    18    15    18    1
    19    16    17    1
    20    16    15    1
    21    18    45    1
    22    19    14    1
    23    20    21    2
    24    20    19    1
    25    21    26    1
    26    22    21    1
    27    23    22    1
    28    24    23    1
    29    24    25    1
    30    26    27    1
    31    26    13    1
    32    28    41    1
    33    29    47    2
    34    31    30    1
    35    32    40    1
    36    32    37    1
    37    33    34    1
    38    34    38    1
    39    34    39    1
    40    35    29    1
    41    35    42    1
    42    37    45    1
    43    40    48    1
    44    42    36    2
    45    43    28    1
    46    43    30    2
    47    44    31    2
    48    45    49    1
    49    46    50    2
    50    46    44    1
    51    47    36    1
    52    48    39    1
    53    49    41    1
    54    49    29    1
    55    50    43    1
