@<TRIPOS>MOLECULE
outputs/IAG933/test6/raw/output_8716_IAG933_linker_design_.xyz
 43 47 0 0 0
SMALL
GASTEIGER

@<TRIPOS>ATOM
      1 C         -24.8550   -1.0120   30.1430 C.3     1  UNL1        0.0984
      2 C         -24.9730   -2.5050   29.7880 C.2     1  UNL1       -0.0064
      3 C         -23.9060   -3.1730   29.1460 C.2     1  UNL1       -0.0029
      4 C         -23.9890   -4.5490   28.8530 C.2     1  UNL1       -0.0003
      5 C         -25.1370   -5.2800   29.2050 C.2     1  UNL1       -0.0000
      6 C         -26.2320   -4.6110   29.7840 C.2     1  UNL1       -0.0003
      7 C         -26.1550   -3.2320   30.0650 C.2     1  UNL1       -0.0029
      8 C         -25.3870   -0.6790   31.5710 C.3     1  UNL1        0.0916
      9 C         -25.1890    0.7730   32.0280 C.3     1  UNL1        0.0206
     10 C         -25.3360    0.6840   33.5440 C.3     1  UNL1        0.0203
     11 C         -24.8290   -0.7150   33.9050 C.3     1  UNL1        0.0888
     12 N         -24.7580   -1.4810   32.6460 N.3     1  UNL1       -0.2178
     13 C         -25.6880    1.6140   26.4610 C.2     1  UNL1        0.0404
     14 C         -26.2500    2.9200   26.3950 C.2     1  UNL1        0.0764
     15 C         -25.6420    4.0930   27.1230 C.2     1  UNL1        0.2664
     16 N         -25.6140    5.2520   26.4490 N.am    1  UNL1       -0.1997
     17 C         -25.0260    6.4790   26.9630 C.3     1  UNL1        0.1388
     18 O         -25.1430    3.9660   28.2430 O.2     1  UNL1       -0.2683
     19 C         -27.4380    3.0910   25.6450 C.2     1  UNL1        0.1067
     20 N         -28.0750    2.0890   25.0030 N.2     1  UNL1       -0.2081
     21 C         -27.5430    0.8490   25.0790 C.2     1  UNL1        0.2533
     22 O         -28.1930   -0.2080   24.4770 O.2     1  UNL1       -0.4558
     23 C         -29.4600    0.0050   23.8660 C.3     1  UNL1        0.2426
     24 C         -30.0650   -1.3770   23.5730 C.3     1  UNL1        0.2292
     25 O         -30.7290   -1.8780   24.7210 O.3     1  UNL1       -0.2162
     26 C         -26.3540    0.5760   25.7770 C.2     1  UNL1        0.1929
     27 F         -25.8600   -0.6810   25.7950 F       1  UNL1       -0.1992
     28 O         -22.0275    2.2483   25.4042 O.2     1  UNL1       -0.0534
     29 C         -26.9072   -0.3566   28.9609 C.3     1  UNL1        0.1852
     30 N         -23.3229    0.6263   28.6394 N.2     1  UNL1       -0.2407
     31 O         -26.6447    1.8719   29.8755 O.2     1  UNL1       -0.2485
     32 N         -21.1015    1.8184   26.1551 N.2     1  UNL1        0.2139
     33 O         -28.7527    1.1096   29.4997 O.3     1  UNL1       -0.4434
     34 C         -27.3930    1.0006   29.4373 C.2     1  UNL1        0.3337
     35 C         -29.3819    2.1479   28.6302 C.3     1  UNL1        0.2556
     36 N         -20.2401    1.2839   28.2474 N.pl3   1  UNL1        0.2226
     37 C         -22.6508    1.2669   27.7050 C.2     1  UNL1        0.2117
     38 N         -25.3925   -0.3052   29.0760 N.3     1  UNL1       -0.2379
     39 O         -23.2757    2.5502   25.7934 O.2     1  UNL1       -0.2433
     40 C         -23.5693    1.7672   26.8235 C.2     1  UNL1        0.2243
     41 C         -24.7113    1.3722   27.1430 C.2     1  UNL1        0.0586
     42 C         -21.2674    1.4303   27.3907 C.2     1  UNL1        0.4833
     43 C         -24.5829    0.5298   28.3492 C.3     1  UNL1        0.1900
@<TRIPOS>BOND
     1     1    38    1
     2     2     7    1
     3     2     1    1
     4     3     2    2
     5     4     3    1
     6     4     5    2
     7     5     6    1
     8     6     7    2
     9     8     1    1
    10     8     9    1
    11     8    12    1
    12     9    10    1
    13    10    11    1
    14    12    11    1
    15    13    41    1
    16    14    13    1
    17    14    15    1
    18    15    18    2
    19    16    17    1
    20    16    15    1
    21    19    14    2
    22    20    21    2
    23    20    19    1
    24    21    26    1
    25    22    21    1
    26    23    22    1
    27    24    23    1
    28    24    25    1
    29    26    27    1
    30    26    13    2
    31    28    39    1
    32    28    32    1
    33    29    38    1
    34    29    34    1
    35    32    42    2
    36    34    33    1
    37    34    31    2
    38    35    33    1
    39    37    30    2
    40    39    40    1
    41    40    41    2
    42    40    37    1
    43    41    43    1
    44    42    37    1
    45    42    36    1
    46    43    30    1
    47    43    38    1
