@<TRIPOS>MOLECULE
outputs/IAG933/test6/raw/output_8722_IAG933_linker_design_.xyz
 40 43 0 0 0
SMALL
GASTEIGER

@<TRIPOS>ATOM
      1 C         -24.8550   -1.0120   30.1430 C.3     1  UNL1        0.1149
      2 C         -24.9730   -2.5050   29.7880 C.2     1  UNL1       -0.0125
      3 C         -23.9060   -3.1730   29.1460 C.2     1  UNL1       -0.0038
      4 C         -23.9890   -4.5490   28.8530 C.2     1  UNL1       -0.0003
      5 C         -25.1370   -5.2800   29.2050 C.2     1  UNL1       -0.0000
      6 C         -26.2320   -4.6110   29.7840 C.2     1  UNL1       -0.0003
      7 C         -26.1550   -3.2320   30.0650 C.2     1  UNL1       -0.0038
      8 C         -25.3870   -0.6790   31.5710 C.3     1  UNL1        0.0855
      9 C         -25.1890    0.7730   32.0280 C.3     1  UNL1        0.0197
     10 C         -25.3360    0.6840   33.5440 C.3     1  UNL1        0.0203
     11 C         -24.8290   -0.7150   33.9050 C.3     1  UNL1        0.0887
     12 N         -24.7580   -1.4810   32.6460 N.3     1  UNL1       -0.2186
     13 C         -25.6880    1.6140   26.4610 C.3     1  UNL1        0.1458
     14 C         -26.2500    2.9200   26.3950 C.2     1  UNL1        0.0731
     15 C         -25.6420    4.0930   27.1230 C.2     1  UNL1        0.2640
     16 N         -25.6140    5.2520   26.4490 N.am    1  UNL1       -0.1999
     17 C         -25.0260    6.4790   26.9630 C.3     1  UNL1        0.1388
     18 O         -25.1430    3.9660   28.2430 O.2     1  UNL1       -0.2686
     19 C         -27.4380    3.0910   25.6450 C.2     1  UNL1        0.1038
     20 N         -28.0750    2.0890   25.0030 N.2     1  UNL1       -0.2118
     21 C         -27.5430    0.8490   25.0790 C.2     1  UNL1        0.2358
     22 O         -28.1930   -0.2080   24.4770 O.2     1  UNL1       -0.4585
     23 C         -29.4600    0.0050   23.8660 C.3     1  UNL1        0.2423
     24 C         -30.0650   -1.3770   23.5730 C.3     1  UNL1        0.2292
     25 O         -30.7290   -1.8780   24.7210 O.3     1  UNL1       -0.2162
     26 C         -26.3540    0.5760   25.7770 C.3     1  UNL1        0.2581
     27 F         -25.8600   -0.6810   25.7950 F       1  UNL1       -0.2251
     28 O         -26.3877   -0.6063   28.6327 O.2     1  UNL1       -0.2745
     29 C         -22.6164    1.7031   28.0780 C.3     1  UNL1        0.2077
     30 C         -22.6586    0.5499   28.8484 C.3     1  UNL1        0.1869
     31 C         -20.7331   -0.1787   29.0058 C.3     1  UNL1        0.1848
     32 C         -21.8336   -0.9236   28.8296 C.3     1  UNL1        0.0711
     33 N         -24.8556    0.9571   27.4922 N.am    1  UNL1       -0.2660
     34 O         -21.3878    1.4077   27.3400 O.3     1  UNL1       -0.2182
     35 C         -25.1841    0.0112   28.8216 C.2     1  UNL1        0.2313
     36 O         -20.3709    0.9651   28.2137 O.3     1  UNL1       -0.2203
     37 O         -23.1400    0.9739   30.1173 O.3     1  UNL1       -0.2203
     38 C         -23.5491    1.3105   26.8465 C.3     1  UNL1        0.1736
     39 O         -22.9044    2.6955   25.1761 O.2     1  UNL1       -0.2864
     40 C         -23.1829    1.6275   25.6655 C.2     1  UNL1        0.2296
@<TRIPOS>BOND
     1     1    35    1
     2     2     7    1
     3     2     1    1
     4     3     2    2
     5     4     3    1
     6     4     5    2
     7     5     6    1
     8     6     7    2
     9     8     1    1
    10     8     9    1
    11     8    12    1
    12     9    10    1
    13    10    11    1
    14    12    11    1
    15    13    33    1
    16    14    13    1
    17    14    15    1
    18    15    18    2
    19    16    17    1
    20    16    15    1
    21    19    14    2
    22    20    21    2
    23    20    19    1
    24    21    26    1
    25    22    21    1
    26    23    22    1
    27    24    23    1
    28    24    25    1
    29    26    27    1
    30    26    13    1
    31    28    35    2
    32    29    38    1
    33    29    30    1
    34    30    37    1
    35    32    30    1
    36    32    31    1
    37    33    35   am
    38    34    29    1
    39    34    36    1
    40    36    31    1
    41    38    40    1
    42    38    33    1
    43    39    40    2
