@<TRIPOS>MOLECULE
outputs/IAG933/test6/raw/output_8724_IAG933_linker_design_.xyz
 43 48 0 0 0
SMALL
GASTEIGER

@<TRIPOS>ATOM
      1 C         -24.8550   -1.0120   30.1430 C.3     1  UNL1        0.0963
      2 C         -24.9730   -2.5050   29.7880 C.2     1  UNL1       -0.0064
      3 C         -23.9060   -3.1730   29.1460 C.2     1  UNL1       -0.0029
      4 C         -23.9890   -4.5490   28.8530 C.2     1  UNL1       -0.0003
      5 C         -25.1370   -5.2800   29.2050 C.2     1  UNL1       -0.0000
      6 C         -26.2320   -4.6110   29.7840 C.2     1  UNL1       -0.0003
      7 C         -26.1550   -3.2320   30.0650 C.2     1  UNL1       -0.0029
      8 C         -25.3870   -0.6790   31.5710 C.3     1  UNL1        0.0916
      9 C         -25.1890    0.7730   32.0280 C.3     1  UNL1        0.0206
     10 C         -25.3360    0.6840   33.5440 C.3     1  UNL1        0.0203
     11 C         -24.8290   -0.7150   33.9050 C.3     1  UNL1        0.0888
     12 N         -24.7580   -1.4810   32.6460 N.3     1  UNL1       -0.2178
     13 C         -25.6880    1.6140   26.4610 C.3     1  UNL1        0.1322
     14 C         -26.2500    2.9200   26.3950 C.2     1  UNL1        0.0697
     15 C         -25.6420    4.0930   27.1230 C.2     1  UNL1        0.2637
     16 N         -25.6140    5.2520   26.4490 N.am    1  UNL1       -0.2000
     17 C         -25.0260    6.4790   26.9630 C.3     1  UNL1        0.1388
     18 O         -25.1430    3.9660   28.2430 O.2     1  UNL1       -0.2686
     19 C         -27.4380    3.0910   25.6450 C.2     1  UNL1        0.1035
     20 N         -28.0750    2.0890   25.0030 N.2     1  UNL1       -0.2118
     21 C         -27.5430    0.8490   25.0790 C.2     1  UNL1        0.2355
     22 O         -28.1930   -0.2080   24.4770 O.2     1  UNL1       -0.4585
     23 C         -29.4600    0.0050   23.8660 C.3     1  UNL1        0.2423
     24 C         -30.0650   -1.3770   23.5730 C.3     1  UNL1        0.2292
     25 O         -30.7290   -1.8780   24.7210 O.3     1  UNL1       -0.2162
     26 C         -26.3540    0.5760   25.7770 C.3     1  UNL1        0.2547
     27 F         -25.8600   -0.6810   25.7950 F       1  UNL1       -0.2254
     28 C         -22.8516    0.9922   28.2462 C.3     1  UNL1        0.0991
     29 C         -22.2641    2.2357   27.3745 C.3     1  UNL1        0.1544
     30 O         -21.9647    1.6057   26.1230 O.3     1  UNL1       -0.3175
     31 F         -19.9908    1.9131   27.7283 F       1  UNL1       -0.2277
     32 C         -24.8171   -0.4664   27.9281 C.3     1  UNL1        0.0944
     33 C         -21.4899    0.2964   28.5562 C.2     1  UNL1        0.0981
     34 N         -21.5300   -0.9625   28.8328 N.2     1  UNL1       -0.1543
     35 F         -23.5949    0.5925   24.5893 F       1  UNL1       -0.1899
     36 C         -20.4516    0.8459   28.3209 C.3     1  UNL1        0.2362
     37 C         -23.3614    1.2069   25.6970 C.3     1  UNL1        0.2942
     38 N         -24.3182    1.4936   26.6518 N.3     1  UNL1       -0.2150
     39 O         -23.6631    2.7776   31.1931 O.3     1  UNL1       -0.2189
     40 C         -23.6127    1.0319   29.5778 C.3     1  UNL1        0.0998
     41 C         -24.3214    2.2407   30.0685 C.3     1  UNL1        0.1984
     42 C         -23.7610    0.3117   27.3045 C.3     1  UNL1        0.1389
     43 N         -24.5844   -0.0803   29.3756 N.3     1  UNL1       -0.2664
@<TRIPOS>BOND
     1     1     2    1
     2     2     7    1
     3     3     2    2
     4     4     3    1
     5     4     5    2
     6     5     6    1
     7     6     7    2
     8     8     1    1
     9     8     9    1
    10     8    12    1
    11     9    10    1
    12    10    11    1
    13    12    11    1
    14    13    14    1
    15    14    15    1
    16    15    18    2
    17    16    17    1
    18    16    15    1
    19    19    14    2
    20    20    21    2
    21    20    19    1
    22    21    26    1
    23    22    21    1
    24    23    22    1
    25    24    23    1
    26    24    25    1
    27    26    27    1
    28    26    13    1
    29    28    33    1
    30    28    40    1
    31    29    28    1
    32    30    29    1
    33    31    36    1
    34    32    43    1
    35    33    34    2
    36    36    33    1
    37    37    35    1
    38    37    30    1
    39    37    38    1
    40    37    42    1
    41    38    13    1
    42    38    42    1
    43    40    41    1
    44    41    39    1
    45    42    32    1
    46    42    28    1
    47    43    40    1
    48    43     1    1
