@<TRIPOS>MOLECULE
outputs/IAG933/test6/raw/output_8725_IAG933_linker_design_.xyz
 42 46 0 0 0
SMALL
GASTEIGER

@<TRIPOS>ATOM
      1 C         -24.8550   -1.0120   30.1430 C.3     1  UNL1        0.1199
      2 C         -24.9730   -2.5050   29.7880 C.2     1  UNL1       -0.0025
      3 C         -23.9060   -3.1730   29.1460 C.2     1  UNL1       -0.0026
      4 C         -23.9890   -4.5490   28.8530 C.2     1  UNL1       -0.0003
      5 C         -25.1370   -5.2800   29.2050 C.2     1  UNL1       -0.0000
      6 C         -26.2320   -4.6110   29.7840 C.2     1  UNL1       -0.0003
      7 C         -26.1550   -3.2320   30.0650 C.2     1  UNL1       -0.0026
      8 C         -25.3870   -0.6790   31.5710 C.3     1  UNL1        0.0955
      9 C         -25.1890    0.7730   32.0280 C.3     1  UNL1        0.0209
     10 C         -25.3360    0.6840   33.5440 C.3     1  UNL1        0.0203
     11 C         -24.8290   -0.7150   33.9050 C.3     1  UNL1        0.0888
     12 N         -24.7580   -1.4810   32.6460 N.3     1  UNL1       -0.2174
     13 C         -25.6880    1.6140   26.4610 C.3     1  UNL1        0.1103
     14 C         -26.2500    2.9200   26.3950 C.2     1  UNL1        0.0604
     15 C         -25.6420    4.0930   27.1230 C.2     1  UNL1        0.2628
     16 N         -25.6140    5.2520   26.4490 N.am    1  UNL1       -0.2000
     17 C         -25.0260    6.4790   26.9630 C.3     1  UNL1        0.1388
     18 O         -25.1430    3.9660   28.2430 O.2     1  UNL1       -0.2686
     19 C         -27.4380    3.0910   25.6450 C.2     1  UNL1        0.1025
     20 N         -28.0750    2.0890   25.0030 N.2     1  UNL1       -0.2118
     21 C         -27.5430    0.8490   25.0790 C.2     1  UNL1        0.2345
     22 O         -28.1930   -0.2080   24.4770 O.2     1  UNL1       -0.4585
     23 C         -29.4600    0.0050   23.8660 C.3     1  UNL1        0.2423
     24 C         -30.0650   -1.3770   23.5730 C.3     1  UNL1        0.2292
     25 O         -30.7290   -1.8780   24.7210 O.3     1  UNL1       -0.2162
     26 C         -26.3540    0.5760   25.7770 C.3     1  UNL1        0.2455
     27 F         -25.8600   -0.6810   25.7950 F       1  UNL1       -0.2265
     28 C         -21.6991    0.2598   28.4254 C.ar    1  UNL1        0.1249
     29 C         -22.3059    2.4077   25.4583 C.2     1  UNL1        0.0986
     30 C         -20.4662   -0.1574   28.7197 C.3     1  UNL1        0.0725
     31 O         -22.8843   -0.2427   29.0155 O.2     1  UNL1       -0.4438
     32 C         -21.5357    2.0025   26.5226 C.2     1  UNL1        0.0235
     33 N         -23.6232    2.2219   25.3879 N.2     1  UNL1       -0.2476
     34 N         -25.3168   -0.1252   29.1799 N.am    1  UNL1       -0.2354
     35 C         -23.5313    1.0570   27.4332 C.ar    1  UNL1        0.0662
     36 O         -27.4129   -0.5960   28.5335 O.2     1  UNL1       -0.5247
     37 O         -26.8815    2.3884   30.3597 O.3     1  UNL1       -0.4013
     38 C         -24.2434    1.6203   26.4045 C.2     1  UNL1        0.0704
     39 C         -26.6349    0.2605   28.9011 C.2     1  UNL1        0.1733
     40 C         -22.1907    1.2114   27.4695 C.ar    1  UNL1        0.0373
     41 N         -26.8769    1.5816   29.1859 N.am    1  UNL1       -0.1832
     42 C         -23.9481    0.2620   28.3837 C.ar    1  UNL1        0.2050
@<TRIPOS>BOND
     1     1    34    1
     2     2     7    1
     3     2     1    1
     4     3     2    2
     5     4     3    1
     6     4     5    2
     7     5     6    1
     8     6     7    2
     9     8     1    1
    10     8     9    1
    11     8    12    1
    12     9    10    1
    13    10    11    1
    14    12    11    1
    15    13    38    1
    16    14    13    1
    17    14    15    1
    18    15    18    2
    19    16    17    1
    20    16    15    1
    21    19    14    2
    22    20    21    2
    23    20    19    1
    24    21    26    1
    25    22    21    1
    26    23    22    1
    27    24    23    1
    28    24    25    1
    29    26    27    1
    30    26    13    1
    31    28    30    1
    32    28    31   ar
    33    29    32    2
    34    32    40    1
    35    33    29    1
    36    33    38    2
    37    35    40   ar
    38    35    42   ar
    39    36    39    2
    40    38    35    1
    41    39    34   am
    42    39    41    1
    43    40    28   ar
    44    41    37    1
    45    42    31   ar
    46    42    34    1
