@<TRIPOS>MOLECULE
outputs/IAG933/test6/raw/output_8730_IAG933_linker_design_.xyz
 46 50 0 0 0
SMALL
GASTEIGER

@<TRIPOS>ATOM
      1 C         -24.8550   -1.0120   30.1430 C.3     1  UNL1        0.0397
      2 C         -24.9730   -2.5050   29.7880 C.2     1  UNL1       -0.0211
      3 C         -23.9060   -3.1730   29.1460 C.2     1  UNL1       -0.0042
      4 C         -23.9890   -4.5490   28.8530 C.2     1  UNL1       -0.0003
      5 C         -25.1370   -5.2800   29.2050 C.2     1  UNL1       -0.0000
      6 C         -26.2320   -4.6110   29.7840 C.2     1  UNL1       -0.0003
      7 C         -26.1550   -3.2320   30.0650 C.2     1  UNL1       -0.0042
      8 C         -25.3870   -0.6790   31.5710 C.3     1  UNL1        0.0768
      9 C         -25.1890    0.7730   32.0280 C.3     1  UNL1        0.0192
     10 C         -25.3360    0.6840   33.5440 C.3     1  UNL1        0.0202
     11 C         -24.8290   -0.7150   33.9050 C.3     1  UNL1        0.0887
     12 N         -24.7580   -1.4810   32.6460 N.3     1  UNL1       -0.2191
     13 C         -25.6880    1.6140   26.4610 C.3     1  UNL1        0.0861
     14 C         -26.2500    2.9200   26.3950 C.2     1  UNL1        0.0562
     15 C         -25.6420    4.0930   27.1230 C.2     1  UNL1        0.2625
     16 N         -25.6140    5.2520   26.4490 N.am    1  UNL1       -0.2000
     17 C         -25.0260    6.4790   26.9630 C.3     1  UNL1        0.1388
     18 O         -25.1430    3.9660   28.2430 O.2     1  UNL1       -0.2687
     19 C         -27.4380    3.0910   25.6450 C.2     1  UNL1        0.1022
     20 N         -28.0750    2.0890   25.0030 N.2     1  UNL1       -0.2119
     21 C         -27.5430    0.8490   25.0790 C.2     1  UNL1        0.2341
     22 O         -28.1930   -0.2080   24.4770 O.2     1  UNL1       -0.4585
     23 C         -29.4600    0.0050   23.8660 C.3     1  UNL1        0.2423
     24 C         -30.0650   -1.3770   23.5730 C.3     1  UNL1        0.2292
     25 O         -30.7290   -1.8780   24.7210 O.3     1  UNL1       -0.2162
     26 C         -26.3540    0.5760   25.7770 C.3     1  UNL1        0.2413
     27 F         -25.8600   -0.6810   25.7950 F       1  UNL1       -0.2268
     28 O         -30.4171    3.4863   28.3487 O.3     1  UNL1       -0.2230
     29 C         -25.1071    0.0339   28.9948 C.3     1  UNL1        0.0225
     30 C         -22.3701    0.2906   29.2023 C.3     1  UNL1        0.0174
     31 N         -23.3593    1.6254   27.4694 N.3     1  UNL1       -0.2736
     32 C         -32.1936    1.6638   31.5915 C.3     1  UNL1        0.0321
     33 C         -26.8592    0.5304   29.0056 C.3     1  UNL1        0.0338
     34 C         -23.6985    0.8987   28.7754 C.3     1  UNL1        0.0580
     35 C         -30.9352   -0.8826   29.1932 C.3     1  UNL1        0.1715
     36 C         -28.0498   -0.4655   29.3243 C.3     1  UNL1        0.1422
     37 C         -21.8459    1.8127   27.3163 C.3     1  UNL1        0.0721
     38 O         -31.6200   -0.0383   30.1444 O.3     1  UNL1       -0.3536
     39 C         -21.2544    0.8203   28.2867 C.3     1  UNL1        0.0187
     40 C         -30.6551    1.1201   27.5605 C.3     1  UNL1        0.0651
     41 C         -29.9571    2.1396   28.5087 C.3     1  UNL1        0.1569
     42 O         -28.8522   -0.6021   28.1391 O.3     1  UNL1       -0.3536
     43 C         -31.7033    1.3384   30.1810 C.3     1  UNL1        0.1180
     44 C         -24.1976    1.4965   26.2066 C.3     1  UNL1        0.0799
     45 C         -30.2796   -0.3805   27.9451 C.3     1  UNL1        0.1472
     46 C         -30.2952    1.9444   30.0694 C.3     1  UNL1        0.0625
@<TRIPOS>BOND
     1     1    29    1
     2     2     7    1
     3     2     1    1
     4     3     2    2
     5     4     3    1
     6     4     5    2
     7     5     6    1
     8     6     7    2
     9     8     1    1
    10     8     9    1
    11     8    12    1
    12     9    10    1
    13    10    11    1
    14    12    11    1
    15    13    44    1
    16    14    13    1
    17    14    15    1
    18    15    18    2
    19    16    17    1
    20    16    15    1
    21    19    14    2
    22    20    21    2
    23    20    19    1
    24    21    26    1
    25    22    21    1
    26    23    22    1
    27    24    23    1
    28    24    25    1
    29    26    27    1
    30    26    13    1
    31    29    33    1
    32    31    34    1
    33    33    36    1
    34    34    29    1
    35    34    30    1
    36    35    38    1
    37    37    31    1
    38    37    39    1
    39    38    43    1
    40    39    30    1
    41    40    45    1
    42    40    41    1
    43    41    28    1
    44    41    46    1
    45    42    36    1
    46    43    32    1
    47    44    31    1
    48    45    42    1
    49    45    35    1
    50    46    43    1
