@<TRIPOS>MOLECULE
outputs/IAG933/test6/raw/output_8740_IAG933_linker_design_.xyz
 40 45 0 0 0
SMALL
GASTEIGER

@<TRIPOS>ATOM
      1 C         -24.8550   -1.0120   30.1430 C.3     1  UNL1        0.0992
      2 C         -24.9730   -2.5050   29.7880 C.2     1  UNL1       -0.0063
      3 C         -23.9060   -3.1730   29.1460 C.2     1  UNL1       -0.0029
      4 C         -23.9890   -4.5490   28.8530 C.2     1  UNL1       -0.0003
      5 C         -25.1370   -5.2800   29.2050 C.2     1  UNL1       -0.0000
      6 C         -26.2320   -4.6110   29.7840 C.2     1  UNL1       -0.0003
      7 C         -26.1550   -3.2320   30.0650 C.2     1  UNL1       -0.0029
      8 C         -25.3870   -0.6790   31.5710 C.3     1  UNL1        0.0917
      9 C         -25.1890    0.7730   32.0280 C.3     1  UNL1        0.0206
     10 C         -25.3360    0.6840   33.5440 C.3     1  UNL1        0.0203
     11 C         -24.8290   -0.7150   33.9050 C.3     1  UNL1        0.0888
     12 N         -24.7580   -1.4810   32.6460 N.3     1  UNL1       -0.2178
     13 C         -25.6880    1.6140   26.4610 C.3     1  UNL1        0.1301
     14 C         -26.2500    2.9200   26.3950 C.2     1  UNL1        0.0696
     15 C         -25.6420    4.0930   27.1230 C.2     1  UNL1        0.2637
     16 N         -25.6140    5.2520   26.4490 N.am    1  UNL1       -0.2000
     17 C         -25.0260    6.4790   26.9630 C.3     1  UNL1        0.1388
     18 O         -25.1430    3.9660   28.2430 O.2     1  UNL1       -0.2686
     19 C         -27.4380    3.0910   25.6450 C.2     1  UNL1        0.1035
     20 N         -28.0750    2.0890   25.0030 N.2     1  UNL1       -0.2118
     21 C         -27.5430    0.8490   25.0790 C.2     1  UNL1        0.2355
     22 O         -28.1930   -0.2080   24.4770 O.2     1  UNL1       -0.4585
     23 C         -29.4600    0.0050   23.8660 C.3     1  UNL1        0.2423
     24 C         -30.0650   -1.3770   23.5730 C.3     1  UNL1        0.2292
     25 O         -30.7290   -1.8780   24.7210 O.3     1  UNL1       -0.2162
     26 C         -26.3540    0.5760   25.7770 C.3     1  UNL1        0.2546
     27 F         -25.8600   -0.6810   25.7950 F       1  UNL1       -0.2254
     28 C         -25.3194    0.4456   28.6919 C.3     1  UNL1        0.1876
     29 N         -24.2953    0.0677   29.2567 N.3     1  UNL1       -0.2315
     30 O         -21.3325    1.7814   26.4741 O.3     1  UNL1       -0.4188
     31 O         -23.4859    2.8220   25.5058 O.2     1  UNL1       -0.2481
     32 N         -22.0327   -0.2097   29.2957 N.pl3   1  UNL1       -0.2165
     33 C         -26.5612    0.1072   28.7624 C.2     1  UNL1        0.2401
     34 C         -22.7645    2.2586   26.5252 C.2     1  UNL1        0.3397
     35 C         -21.7623    0.4651   28.4907 C.2     1  UNL1        0.1160
     36 O         -27.3416   -0.6565   28.7459 O.2     1  UNL1       -0.2853
     37 C         -23.6041    1.2580   27.4452 C.3     1  UNL1        0.1975
     38 C         -20.8418    0.9893   27.5046 C.2     1  UNL1        0.1975
     39 C         -23.0944    0.2813   28.8141 C.3     1  UNL1        0.1834
     40 N         -24.8913    1.1751   27.5193 N.3     1  UNL1       -0.2385
@<TRIPOS>BOND
     1     1     2    1
     2     2     7    1
     3     3     2    2
     4     4     3    1
     5     4     5    2
     6     5     6    1
     7     6     7    2
     8     8     1    1
     9     8     9    1
    10     8    12    1
    11     9    10    1
    12    10    11    1
    13    12    11    1
    14    13    14    1
    15    14    15    1
    16    15    18    2
    17    16    17    1
    18    16    15    1
    19    19    14    2
    20    20    21    2
    21    20    19    1
    22    21    26    1
    23    22    21    1
    24    23    22    1
    25    24    23    1
    26    24    25    1
    27    26    27    1
    28    26    13    1
    29    28    33    1
    30    28    29    1
    31    29     1    1
    32    30    34    1
    33    30    38    1
    34    31    34    2
    35    35    32    1
    36    36    33    2
    37    37    34    1
    38    37    40    1
    39    37    39    1
    40    38    35    2
    41    39    35    1
    42    39    29    1
    43    39    32    1
    44    40    13    1
    45    40    28    1
