@<TRIPOS>MOLECULE
outputs/IAG933/test6/raw/output_8745_IAG933_linker_design_.xyz
 44 48 0 0 0
SMALL
GASTEIGER

@<TRIPOS>ATOM
      1 C         -24.8550   -1.0120   30.1430 C.3     1  UNL1        0.0697
      2 C         -24.9730   -2.5050   29.7880 C.2     1  UNL1       -0.0184
      3 C         -23.9060   -3.1730   29.1460 C.2     1  UNL1       -0.0041
      4 C         -23.9890   -4.5490   28.8530 C.2     1  UNL1       -0.0003
      5 C         -25.1370   -5.2800   29.2050 C.2     1  UNL1       -0.0000
      6 C         -26.2320   -4.6110   29.7840 C.2     1  UNL1       -0.0003
      7 C         -26.1550   -3.2320   30.0650 C.2     1  UNL1       -0.0041
      8 C         -25.3870   -0.6790   31.5710 C.3     1  UNL1        0.0795
      9 C         -25.1890    0.7730   32.0280 C.3     1  UNL1        0.0193
     10 C         -25.3360    0.6840   33.5440 C.3     1  UNL1        0.0202
     11 C         -24.8290   -0.7150   33.9050 C.3     1  UNL1        0.0887
     12 N         -24.7580   -1.4810   32.6460 N.3     1  UNL1       -0.2190
     13 C         -25.6880    1.6140   26.4610 C.3     1  UNL1        0.0921
     14 C         -26.2500    2.9200   26.3950 C.2     1  UNL1        0.0589
     15 C         -25.6420    4.0930   27.1230 C.2     1  UNL1        0.2628
     16 N         -25.6140    5.2520   26.4490 N.am    1  UNL1       -0.2000
     17 C         -25.0260    6.4790   26.9630 C.3     1  UNL1        0.1388
     18 O         -25.1430    3.9660   28.2430 O.2     1  UNL1       -0.2686
     19 C         -27.4380    3.0910   25.6450 C.2     1  UNL1        0.1025
     20 N         -28.0750    2.0890   25.0030 N.2     1  UNL1       -0.2118
     21 C         -27.5430    0.8490   25.0790 C.2     1  UNL1        0.2344
     22 O         -28.1930   -0.2080   24.4770 O.2     1  UNL1       -0.4585
     23 C         -29.4600    0.0050   23.8660 C.3     1  UNL1        0.2423
     24 C         -30.0650   -1.3770   23.5730 C.3     1  UNL1        0.2292
     25 O         -30.7290   -1.8780   24.7210 O.3     1  UNL1       -0.2162
     26 C         -26.3540    0.5760   25.7770 C.3     1  UNL1        0.2440
     27 F         -25.8600   -0.6810   25.7950 F       1  UNL1       -0.2265
     28 C         -21.6717    1.2739   27.7979 C.2     1  UNL1       -0.0003
     29 C         -29.2053    2.3961   31.2165 C.3     1  UNL1        0.0911
     30 C         -23.2499    1.9400   26.0006 C.2     1  UNL1       -0.0041
     31 O         -26.3296   -0.3540   28.1962 O.3     1  UNL1       -0.3476
     32 C         -28.9089   -0.1318   29.0002 C.3     1  UNL1        0.2151
     33 C         -21.9231    1.8883   26.5237 C.2     1  UNL1       -0.0003
     34 C         -30.9564    0.7337   30.4372 C.2     1  UNL1        0.1021
     35 O         -29.9972   -0.9269   28.8298 O.2     1  UNL1       -0.4704
     36 N         -29.8226    1.4471   30.3909 N.pl3   1  UNL1       -0.3007
     37 C         -27.9960    3.0794   30.5443 C.3     1  UNL1        0.0232
     38 C         -24.0719    0.6809   28.1691 C.2     1  UNL1        0.0013
     39 C         -29.0736    1.1983   29.1653 C.3     1  UNL1        0.1374
     40 C         -22.6934    0.7031   28.5934 C.2     1  UNL1       -0.0022
     41 C         -31.1053   -0.4330   29.6220 C.2     1  UNL1        0.1880
     42 C         -25.2090    0.0673   28.9983 C.3     1  UNL1        0.1426
     43 C         -27.5866   -0.8738   28.7849 C.3     1  UNL1        0.1876
     44 C         -24.3072    1.4103   26.8555 C.2     1  UNL1       -0.0168
@<TRIPOS>BOND
     1     1    42    1
     2     2     7    1
     3     2     1    1
     4     3     2    2
     5     4     3    1
     6     4     5    2
     7     5     6    1
     8     6     7    2
     9     8     1    1
    10     8     9    1
    11     8    12    1
    12     9    10    1
    13    10    11    1
    14    12    11    1
    15    13    44    1
    16    14    13    1
    17    14    15    1
    18    15    18    2
    19    16    17    1
    20    16    15    1
    21    19    14    2
    22    20    21    2
    23    20    19    1
    24    21    26    1
    25    22    21    1
    26    23    22    1
    27    24    23    1
    28    24    25    1
    29    26    27    1
    30    26    13    1
    31    28    40    1
    32    30    33    1
    33    30    44    2
    34    31    43    1
    35    32    43    1
    36    32    39    1
    37    33    28    2
    38    35    32    1
    39    35    41    1
    40    36    34    1
    41    36    29    1
    42    37    29    1
    43    38    40    2
    44    38    42    1
    45    39    36    1
    46    41    34    2
    47    42    31    1
    48    44    38    1
