@<TRIPOS>MOLECULE
outputs/IAG933/test6/raw/output_8747_IAG933_linker_design_.xyz
 43 48 0 0 0
SMALL
GASTEIGER

@<TRIPOS>ATOM
      1 C         -24.8550   -1.0120   30.1430 C.3     1  UNL1        0.0573
      2 C         -24.9730   -2.5050   29.7880 C.2     1  UNL1       -0.0195
      3 C         -23.9060   -3.1730   29.1460 C.2     1  UNL1       -0.0042
      4 C         -23.9890   -4.5490   28.8530 C.2     1  UNL1       -0.0003
      5 C         -25.1370   -5.2800   29.2050 C.2     1  UNL1       -0.0000
      6 C         -26.2320   -4.6110   29.7840 C.2     1  UNL1       -0.0003
      7 C         -26.1550   -3.2320   30.0650 C.2     1  UNL1       -0.0042
      8 C         -25.3870   -0.6790   31.5710 C.3     1  UNL1        0.0784
      9 C         -25.1890    0.7730   32.0280 C.3     1  UNL1        0.0192
     10 C         -25.3360    0.6840   33.5440 C.3     1  UNL1        0.0202
     11 C         -24.8290   -0.7150   33.9050 C.3     1  UNL1        0.0887
     12 N         -24.7580   -1.4810   32.6460 N.3     1  UNL1       -0.2191
     13 C         -25.6880    1.6140   26.4610 C.2     1  UNL1        0.0378
     14 C         -26.2500    2.9200   26.3950 C.2     1  UNL1        0.0743
     15 C         -25.6420    4.0930   27.1230 C.2     1  UNL1        0.2662
     16 N         -25.6140    5.2520   26.4490 N.am    1  UNL1       -0.1997
     17 C         -25.0260    6.4790   26.9630 C.3     1  UNL1        0.1388
     18 O         -25.1430    3.9660   28.2430 O.2     1  UNL1       -0.2683
     19 C         -27.4380    3.0910   25.6450 C.2     1  UNL1        0.1065
     20 N         -28.0750    2.0890   25.0030 N.2     1  UNL1       -0.2081
     21 C         -27.5430    0.8490   25.0790 C.2     1  UNL1        0.2530
     22 O         -28.1930   -0.2080   24.4770 O.2     1  UNL1       -0.4558
     23 C         -29.4600    0.0050   23.8660 C.3     1  UNL1        0.2426
     24 C         -30.0650   -1.3770   23.5730 C.3     1  UNL1        0.2292
     25 O         -30.7290   -1.8780   24.7210 O.3     1  UNL1       -0.2162
     26 C         -26.3540    0.5760   25.7770 C.2     1  UNL1        0.1908
     27 F         -25.8600   -0.6810   25.7950 F       1  UNL1       -0.1995
     28 N         -24.9872    1.0576   28.7810 N.3     1  UNL1       -0.2472
     29 C         -24.2170    0.0701   29.2990 C.3     1  UNL1        0.0892
     30 C         -22.2964    0.9033   27.9917 C.2     1  UNL1        0.1733
     31 C         -25.8879    4.8691   31.8896 C.3     1  UNL1        0.2168
     32 C         -25.3575    3.5853   31.6227 C.3     1  UNL1        0.1403
     33 C         -26.4676    4.2975   30.6778 C.3     1  UNL1        0.2207
     34 C         -22.7636    0.0630   29.0047 C.2     1  UNL1        0.0226
     35 N         -26.1888    2.9856   30.4208 N.3     1  UNL1       -0.2291
     36 F         -20.9792    1.0059   27.8239 F       1  UNL1       -0.2014
     37 C         -23.2908    1.7501   27.1237 C.2     1  UNL1        0.2186
     38 C         -24.5944    1.4540   27.4384 C.3     1  UNL1        0.1489
     39 O         -22.8740    2.6166   26.3006 O.2     1  UNL1       -0.2872
     40 O         -25.2131    5.1765   34.2430 O.3     1  UNL1       -0.0345
     41 O         -26.1322    5.2871   33.2863 O.3     1  UNL1       -0.1861
     42 C         -26.0982    1.7644   29.5875 C.3     1  UNL1        0.1521
     43 O         -27.2589    5.2174   29.9086 O.3     1  UNL1       -0.2047
@<TRIPOS>BOND
     1     1     2    1
     2     2     7    1
     3     3     2    2
     4     4     3    1
     5     4     5    2
     6     5     6    1
     7     6     7    2
     8     8     1    1
     9     8     9    1
    10     8    12    1
    11     9    10    1
    12    10    11    1
    13    12    11    1
    14    14    13    1
    15    14    15    1
    16    15    18    2
    17    16    17    1
    18    16    15    1
    19    19    14    2
    20    20    21    2
    21    20    19    1
    22    21    26    1
    23    22    21    1
    24    23    22    1
    25    24    23    1
    26    24    25    1
    27    26    27    1
    28    26    13    2
    29    28    29    1
    30    28    42    1
    31    29     1    1
    32    30    34    2
    33    31    41    1
    34    32    35    1
    35    32    31    1
    36    33    43    1
    37    33    32    1
    38    33    31    1
    39    34    29    1
    40    35    33    1
    41    36    30    1
    42    37    38    1
    43    37    30    1
    44    38    13    1
    45    38    28    1
    46    39    37    2
    47    41    40    1
    48    42    35    1
