@<TRIPOS>MOLECULE
outputs/IAG933/test6/raw/output_875_IAG933_linker_design_.xyz
 46 50 0 0 0
SMALL
GASTEIGER

@<TRIPOS>ATOM
      1 C         -24.8550   -1.0120   30.1430 C.3     1  UNL1        0.1298
      2 C         -24.9730   -2.5050   29.7880 C.2     1  UNL1       -0.0015
      3 C         -23.9060   -3.1730   29.1460 C.2     1  UNL1       -0.0026
      4 C         -23.9890   -4.5490   28.8530 C.2     1  UNL1       -0.0003
      5 C         -25.1370   -5.2800   29.2050 C.2     1  UNL1       -0.0000
      6 C         -26.2320   -4.6110   29.7840 C.2     1  UNL1       -0.0003
      7 C         -26.1550   -3.2320   30.0650 C.2     1  UNL1       -0.0026
      8 C         -25.3870   -0.6790   31.5710 C.3     1  UNL1        0.0966
      9 C         -25.1890    0.7730   32.0280 C.3     1  UNL1        0.0210
     10 C         -25.3360    0.6840   33.5440 C.3     1  UNL1        0.0203
     11 C         -24.8290   -0.7150   33.9050 C.3     1  UNL1        0.0888
     12 N         -24.7580   -1.4810   32.6460 N.3     1  UNL1       -0.2174
     13 C         -25.6880    1.6140   26.4610 C.2     1  UNL1        0.0366
     14 C         -26.2500    2.9200   26.3950 C.2     1  UNL1        0.0763
     15 C         -25.6420    4.0930   27.1230 C.2     1  UNL1        0.2664
     16 N         -25.6140    5.2520   26.4490 N.am    1  UNL1       -0.1997
     17 C         -25.0260    6.4790   26.9630 C.3     1  UNL1        0.1388
     18 O         -25.1430    3.9660   28.2430 O.2     1  UNL1       -0.2683
     19 C         -27.4380    3.0910   25.6450 C.2     1  UNL1        0.1067
     20 N         -28.0750    2.0890   25.0030 N.2     1  UNL1       -0.2081
     21 C         -27.5430    0.8490   25.0790 C.2     1  UNL1        0.2533
     22 O         -28.1930   -0.2080   24.4770 O.2     1  UNL1       -0.4558
     23 C         -29.4600    0.0050   23.8660 C.3     1  UNL1        0.2426
     24 C         -30.0650   -1.3770   23.5730 C.3     1  UNL1        0.2292
     25 O         -30.7290   -1.8780   24.7210 O.3     1  UNL1       -0.2162
     26 C         -26.3540    0.5760   25.7770 C.2     1  UNL1        0.1928
     27 F         -25.8600   -0.6810   25.7950 F       1  UNL1       -0.1992
     28 N         -29.3351   -0.0832   28.6055 N.3     1  UNL1       -0.2702
     29 C         -30.3118   -0.3269   27.5143 C.3     1  UNL1        0.0897
     30 C         -26.8789   -0.3330   28.3440 C.3     1  UNL1        0.0433
     31 C         -31.7477   -0.0964   27.9686 C.3     1  UNL1        0.0897
     32 C         -30.6817    0.2121   30.3324 C.3     1  UNL1        0.0897
     33 C         -22.5848    1.0813   28.1569 C.2     1  UNL1        0.2473
     34 C         -23.3744    1.4941   27.0614 C.2     1  UNL1        0.1025
     35 C         -28.2181   -0.9312   28.8953 C.3     1  UNL1        0.0743
     36 C         -29.6509    0.9620   29.5230 C.3     1  UNL1        0.0897
     37 C         -32.4405   -1.4631   29.8306 C.3     1  UNL1        0.1081
     38 C         -25.3598    0.2009   28.3034 C.3     1  UNL1        0.1163
     39 F         -21.4337    1.4559   27.9850 F       1  UNL1       -0.1809
     40 N         -24.5076   -0.0840   29.3710 N.pl3   1  UNL1       -0.2243
     41 N         -31.8359   -0.1613   29.4461 N.3     1  UNL1       -0.2681
     42 N         -23.1125    0.2636   29.1326 N.2     1  UNL1       -0.1505
     43 CL        -22.7605    2.2121   25.7326 Cl      1  UNL1       -0.0785
     44 O         -32.0629   -2.8752   27.8428 O.3     1  UNL1       -0.2189
     45 C         -24.6129    1.2282   27.3044 C.2     1  UNL1        0.0141
     46 C         -33.0089   -2.4330   28.7915 C.3     1  UNL1        0.1993
@<TRIPOS>BOND
     1     1     2    1
     2     2     7    1
     3     3     2    2
     4     4     3    1
     5     4     5    2
     6     5     6    1
     7     6     7    2
     8     8     1    1
     9     8     9    1
    10     8    12    1
    11     9    10    1
    12    10    11    1
    13    12    11    1
    14    13    45    1
    15    14    13    1
    16    14    15    1
    17    15    18    2
    18    16    17    1
    19    16    15    1
    20    19    14    2
    21    20    21    2
    22    20    19    1
    23    21    26    1
    24    22    21    1
    25    23    22    1
    26    24    23    1
    27    24    25    1
    28    26    27    1
    29    26    13    2
    30    28    35    1
    31    28    36    1
    32    29    31    1
    33    29    28    1
    34    30    35    1
    35    31    41    1
    36    33    42    2
    37    34    45    2
    38    34    33    1
    39    36    32    1
    40    38    30    1
    41    38    40    1
    42    39    33    1
    43    40     1    1
    44    41    37    1
    45    41    32    1
    46    42    40    1
    47    43    34    1
    48    44    46    1
    49    45    38    1
    50    46    37    1
