@<TRIPOS>MOLECULE
outputs/IAG933/test6/raw/output_8751_IAG933_linker_design_.xyz
 52 56 0 0 0
SMALL
GASTEIGER

@<TRIPOS>ATOM
      1 C         -24.8550   -1.0120   30.1430 C.3     1  UNL1        0.0607
      2 C         -24.9730   -2.5050   29.7880 C.2     1  UNL1       -0.0192
      3 C         -23.9060   -3.1730   29.1460 C.2     1  UNL1       -0.0042
      4 C         -23.9890   -4.5490   28.8530 C.2     1  UNL1       -0.0003
      5 C         -25.1370   -5.2800   29.2050 C.2     1  UNL1       -0.0000
      6 C         -26.2320   -4.6110   29.7840 C.2     1  UNL1       -0.0003
      7 C         -26.1550   -3.2320   30.0650 C.2     1  UNL1       -0.0042
      8 C         -25.3870   -0.6790   31.5710 C.3     1  UNL1        0.0787
      9 C         -25.1890    0.7730   32.0280 C.3     1  UNL1        0.0193
     10 C         -25.3360    0.6840   33.5440 C.3     1  UNL1        0.0202
     11 C         -24.8290   -0.7150   33.9050 C.3     1  UNL1        0.0887
     12 N         -24.7580   -1.4810   32.6460 N.3     1  UNL1       -0.2191
     13 C         -25.6880    1.6140   26.4610 C.2     1  UNL1        0.0358
     14 C         -26.2500    2.9200   26.3950 C.2     1  UNL1        0.0742
     15 C         -25.6420    4.0930   27.1230 C.2     1  UNL1        0.2662
     16 N         -25.6140    5.2520   26.4490 N.am    1  UNL1       -0.1997
     17 C         -25.0260    6.4790   26.9630 C.3     1  UNL1        0.1388
     18 O         -25.1430    3.9660   28.2430 O.2     1  UNL1       -0.2683
     19 C         -27.4380    3.0910   25.6450 C.2     1  UNL1        0.1065
     20 N         -28.0750    2.0890   25.0030 N.2     1  UNL1       -0.2081
     21 C         -27.5430    0.8490   25.0790 C.2     1  UNL1        0.2530
     22 O         -28.1930   -0.2080   24.4770 O.2     1  UNL1       -0.4558
     23 C         -29.4600    0.0050   23.8660 C.3     1  UNL1        0.2426
     24 C         -30.0650   -1.3770   23.5730 C.3     1  UNL1        0.2292
     25 O         -30.7290   -1.8780   24.7210 O.3     1  UNL1       -0.2162
     26 C         -26.3540    0.5760   25.7770 C.2     1  UNL1        0.1907
     27 F         -25.8600   -0.6810   25.7950 F       1  UNL1       -0.1995
     28 O         -24.6512    4.4907   33.9054 O.3     1  UNL1       -0.1686
     29 C         -28.2376    1.1012   29.3181 C.2     1  UNL1        0.0322
     30 C         -31.0423    3.0804   35.9257 C.3     1  UNL1        0.0896
     31 C         -32.1839    3.7857   33.6370 C.3     1  UNL1        0.0722
     32 C         -26.6768    1.0035   29.5570 C.2     1  UNL1        0.0007
     33 O         -25.8273    3.9744   34.2938 O.2     1  UNL1       -0.3183
     34 C         -23.0627    0.7655   28.7355 C.2     1  UNL1        0.2266
     35 C         -22.0486    1.5326   27.9686 C.3     1  UNL1        0.0948
     36 C         -27.2528    4.0927   30.8138 C.2     1  UNL1       -0.0123
     37 C         -26.7892    3.8567   33.1701 C.2     1  UNL1        0.2430
     38 C         -30.3799    1.4761   33.3103 C.3     1  UNL1        0.0197
     39 N         -27.9037    3.3245   33.4434 N.2     1  UNL1       -0.2354
     40 C         -24.3755    1.3169   27.0131 C.3     1  UNL1        0.1230
     41 C         -31.6183    1.4688   34.1229 C.3     1  UNL1        0.0722
     42 C         -26.4647    4.4028   31.9018 C.3     1  UNL1        0.1146
     43 C         -28.7344    3.1245   32.4175 C.3     1  UNL1        0.1339
     44 N         -31.8993    2.8006   34.7344 N.3     1  UNL1       -0.2715
     45 N         -24.4262    0.7049   28.3643 N.am    1  UNL1       -0.2728
     46 C         -28.3387    3.3069   31.0292 C.2     1  UNL1        0.0257
     47 O         -22.5870    0.2037   29.7430 O.2     1  UNL1       -0.2748
     48 C         -31.3252    3.5634   32.3527 C.3     1  UNL1        0.0197
     49 C         -24.5236    5.6912   33.1235 C.3     1  UNL1        0.2320
     50 C         -25.5206   -0.0511   29.0872 C.3     1  UNL1        0.1037
     51 S         -29.2530    2.5663   29.7067 S.3     1  UNL1       -0.0895
     52 C         -30.0936    2.7190   32.7226 C.3     1  UNL1        0.0300
@<TRIPOS>BOND
     1     1    50    1
     2     2     7    1
     3     2     1    1
     4     3     2    2
     5     4     3    1
     6     4     5    2
     7     5     6    1
     8     6     7    2
     9     8     1    1
    10     8     9    1
    11     8    12    1
    12     9    10    1
    13    10    11    1
    14    12    11    1
    15    13    40    1
    16    14    13    1
    17    14    15    1
    18    15    18    2
    19    16    17    1
    20    16    15    1
    21    19    14    2
    22    20    21    2
    23    20    19    1
    24    21    26    1
    25    22    21    1
    26    23    22    1
    27    24    23    1
    28    24    25    1
    29    26    27    1
    30    26    13    2
    31    28    33    1
    32    29    32    2
    33    29    51    1
    34    31    44    1
    35    34    47    2
    36    35    34    1
    37    36    46    2
    38    36    42    1
    39    37    39    2
    40    37    33    1
    41    38    41    1
    42    40    45    1
    43    41    44    1
    44    42    37    1
    45    43    52    1
    46    43    39    1
    47    44    30    1
    48    45    34   am
    49    45    50    1
    50    46    43    1
    51    48    52    1
    52    48    31    1
    53    49    28    1
    54    50    32    1
    55    51    46    1
    56    52    38    1
