@<TRIPOS>MOLECULE
outputs/IAG933/test6/raw/output_8755_IAG933_linker_design_.xyz
 46 52 0 0 0
SMALL
GASTEIGER

@<TRIPOS>ATOM
      1 C         -24.8550   -1.0120   30.1430 C.3     1  UNL1        0.1155
      2 C         -24.9730   -2.5050   29.7880 C.2     1  UNL1       -0.0027
      3 C         -23.9060   -3.1730   29.1460 C.2     1  UNL1       -0.0026
      4 C         -23.9890   -4.5490   28.8530 C.2     1  UNL1       -0.0003
      5 C         -25.1370   -5.2800   29.2050 C.2     1  UNL1       -0.0000
      6 C         -26.2320   -4.6110   29.7840 C.2     1  UNL1       -0.0003
      7 C         -26.1550   -3.2320   30.0650 C.2     1  UNL1       -0.0026
      8 C         -25.3870   -0.6790   31.5710 C.3     1  UNL1        0.0954
      9 C         -25.1890    0.7730   32.0280 C.3     1  UNL1        0.0209
     10 C         -25.3360    0.6840   33.5440 C.3     1  UNL1        0.0203
     11 C         -24.8290   -0.7150   33.9050 C.3     1  UNL1        0.0888
     12 N         -24.7580   -1.4810   32.6460 N.3     1  UNL1       -0.2174
     13 C         -25.6880    1.6140   26.4610 C.2     1  UNL1        0.0420
     14 C         -26.2500    2.9200   26.3950 C.2     1  UNL1        0.0767
     15 C         -25.6420    4.0930   27.1230 C.2     1  UNL1        0.2664
     16 N         -25.6140    5.2520   26.4490 N.am    1  UNL1       -0.1997
     17 C         -25.0260    6.4790   26.9630 C.3     1  UNL1        0.1388
     18 O         -25.1430    3.9660   28.2430 O.2     1  UNL1       -0.2683
     19 C         -27.4380    3.0910   25.6450 C.2     1  UNL1        0.1067
     20 N         -28.0750    2.0890   25.0030 N.2     1  UNL1       -0.2081
     21 C         -27.5430    0.8490   25.0790 C.2     1  UNL1        0.2533
     22 O         -28.1930   -0.2080   24.4770 O.2     1  UNL1       -0.4558
     23 C         -29.4600    0.0050   23.8660 C.3     1  UNL1        0.2426
     24 C         -30.0650   -1.3770   23.5730 C.3     1  UNL1        0.2292
     25 O         -30.7290   -1.8780   24.7210 O.3     1  UNL1       -0.2162
     26 C         -26.3540    0.5760   25.7770 C.2     1  UNL1        0.1932
     27 F         -25.8600   -0.6810   25.7950 F       1  UNL1       -0.1992
     28 C         -29.8258    0.3172   28.7816 C.3     1  UNL1        0.0609
     29 F         -23.3963    1.4394   24.3577 F       1  UNL1       -0.2256
     30 C         -29.1001    1.8517   29.0933 C.3     1  UNL1        0.0282
     31 C         -21.7048    1.0530   28.1153 C.3     1  UNL1        0.2621
     32 C         -23.2970    2.5552   25.1856 C.3     1  UNL1        0.2564
     33 C         -22.8207    0.5588   28.8332 C.2     1  UNL1        0.1750
     34 N         -25.1598    0.0455   29.1689 N.pl3   1  UNL1       -0.2808
     35 C         -24.1578    0.6357   28.3573 C.2     1  UNL1        0.0819
     36 C         -24.3830    1.3167   27.1282 C.2     1  UNL1        0.0507
     37 C         -27.4856    1.8810   28.9513 C.2     1  UNL1       -0.0102
     38 F         -22.5810   -0.0120   30.0205 F       1  UNL1       -0.2037
     39 C         -31.1682    0.5085   28.4023 C.3     1  UNL1        0.1202
     40 C         -29.8101   -0.6516   27.7101 C.3     1  UNL1        0.1424
     41 O         -21.9561    1.6687   26.9847 O.2     1  UNL1       -0.4695
     42 C         -26.4769    0.6870   29.1826 C.2     1  UNL1        0.0610
     43 O         -31.1347   -0.3761   27.2988 O.3     1  UNL1       -0.3561
     44 C         -29.8102    2.4087   27.8809 C.3     1  UNL1        0.0070
     45 C         -31.2684    1.9690   28.0098 C.3     1  UNL1        0.0301
     46 C         -23.2162    1.7756   26.4719 C.2     1  UNL1        0.1535
@<TRIPOS>BOND
     1     1    34    1
     2     2     7    1
     3     2     1    1
     4     3     2    2
     5     4     3    1
     6     4     5    2
     7     5     6    1
     8     6     7    2
     9     8     1    1
    10     8     9    1
    11     8    12    1
    12     9    10    1
    13    10    11    1
    14    12    11    1
    15    13    36    1
    16    14    13    1
    17    14    15    1
    18    15    18    2
    19    16    17    1
    20    16    15    1
    21    19    14    2
    22    20    21    2
    23    20    19    1
    24    21    26    1
    25    22    21    1
    26    23    22    1
    27    24    23    1
    28    24    25    1
    29    26    27    1
    30    26    13    2
    31    28    30    1
    32    29    32    1
    33    31    33    1
    34    32    46    1
    35    33    38    1
    36    34    42    1
    37    35    33    2
    38    35    34    1
    39    36    35    1
    40    37    30    1
    41    37    42    2
    42    39    28    1
    43    40    39    1
    44    40    28    1
    45    41    31    1
    46    43    40    1
    47    43    39    1
    48    44    45    1
    49    44    30    1
    50    45    39    1
    51    46    41    1
    52    46    36    2
