@<TRIPOS>MOLECULE
outputs/IAG933/test6/raw/output_8756_IAG933_linker_design_.xyz
 44 47 0 0 0
SMALL
GASTEIGER

@<TRIPOS>ATOM
      1 C         -24.8550   -1.0120   30.1430 C.3     1  UNL1        0.0543
      2 C         -24.9730   -2.5050   29.7880 C.2     1  UNL1       -0.0198
      3 C         -23.9060   -3.1730   29.1460 C.2     1  UNL1       -0.0042
      4 C         -23.9890   -4.5490   28.8530 C.2     1  UNL1       -0.0003
      5 C         -25.1370   -5.2800   29.2050 C.2     1  UNL1       -0.0000
      6 C         -26.2320   -4.6110   29.7840 C.2     1  UNL1       -0.0003
      7 C         -26.1550   -3.2320   30.0650 C.2     1  UNL1       -0.0042
      8 C         -25.3870   -0.6790   31.5710 C.3     1  UNL1        0.0782
      9 C         -25.1890    0.7730   32.0280 C.3     1  UNL1        0.0192
     10 C         -25.3360    0.6840   33.5440 C.3     1  UNL1        0.0202
     11 C         -24.8290   -0.7150   33.9050 C.3     1  UNL1        0.0887
     12 N         -24.7580   -1.4810   32.6460 N.3     1  UNL1       -0.2191
     13 C         -25.6880    1.6140   26.4610 C.3     1  UNL1        0.0905
     14 C         -26.2500    2.9200   26.3950 C.2     1  UNL1        0.0565
     15 C         -25.6420    4.0930   27.1230 C.2     1  UNL1        0.2625
     16 N         -25.6140    5.2520   26.4490 N.am    1  UNL1       -0.2000
     17 C         -25.0260    6.4790   26.9630 C.3     1  UNL1        0.1388
     18 O         -25.1430    3.9660   28.2430 O.2     1  UNL1       -0.2687
     19 C         -27.4380    3.0910   25.6450 C.2     1  UNL1        0.1022
     20 N         -28.0750    2.0890   25.0030 N.2     1  UNL1       -0.2119
     21 C         -27.5430    0.8490   25.0790 C.2     1  UNL1        0.2341
     22 O         -28.1930   -0.2080   24.4770 O.2     1  UNL1       -0.4585
     23 C         -29.4600    0.0050   23.8660 C.3     1  UNL1        0.2423
     24 C         -30.0650   -1.3770   23.5730 C.3     1  UNL1        0.2292
     25 O         -30.7290   -1.8780   24.7210 O.3     1  UNL1       -0.2162
     26 C         -26.3540    0.5760   25.7770 C.3     1  UNL1        0.2417
     27 F         -25.8600   -0.6810   25.7950 F       1  UNL1       -0.2268
     28 C         -24.9941    1.1784   27.7204 C.3     1  UNL1        0.1065
     29 C         -27.1035    1.1521   29.3298 C.3     1  UNL1        0.1640
     30 N         -23.0973    0.2606   28.6620 N.2     1  UNL1       -0.2468
     31 C         -20.9352    0.9261   28.1050 C.2     1  UNL1        0.0207
     32 C         -25.8263   -0.3259   29.1742 C.3     1  UNL1        0.0794
     33 C         -21.4555    1.7953   27.1874 C.2     1  UNL1        0.0028
     34 C         -23.6286    1.0845   27.8207 C.2     1  UNL1        0.0739
     35 N         -28.8616    4.7159   29.2321 N.3     1  UNL1       -0.1314
     36 C         -26.9764    2.7372   30.8827 C.3     1  UNL1        0.0918
     37 C         -27.0443    4.2360   30.7167 C.3     1  UNL1        0.0388
     38 C         -22.8166    1.9175   27.0386 C.2     1  UNL1        0.0161
     39 N         -25.7272    0.9759   28.8752 N.3     1  UNL1       -0.2535
     40 C         -28.4907    4.6646   30.6538 C.3     1  UNL1        0.1055
     41 C         -21.7918    0.1458   28.8396 C.2     1  UNL1        0.0985
     42 N         -27.8411    2.1306   30.0303 N.3     1  UNL1       -0.2008
     43 C         -29.2126    6.1010   28.9501 C.3     1  UNL1        0.1239
     44 O         -29.9492    3.9521   28.8197 O.3     1  UNL1       -0.1179
@<TRIPOS>BOND
     1     1    32    1
     2     2     7    1
     3     2     1    1
     4     3     2    2
     5     4     3    1
     6     4     5    2
     7     5     6    1
     8     6     7    2
     9     8     1    1
    10     8     9    1
    11     8    12    1
    12     9    10    1
    13    10    11    1
    14    12    11    1
    15    13    28    1
    16    14    13    1
    17    14    15    1
    18    15    18    2
    19    16    17    1
    20    16    15    1
    21    19    14    2
    22    20    21    2
    23    20    19    1
    24    21    26    1
    25    22    21    1
    26    23    22    1
    27    24    23    1
    28    24    25    1
    29    26    27    1
    30    26    13    1
    31    28    34    1
    32    28    39    1
    33    29    42    1
    34    30    41    1
    35    31    41    2
    36    33    31    1
    37    34    30    2
    38    35    40    1
    39    37    36    1
    40    38    33    2
    41    38    34    1
    42    39    32    1
    43    39    29    1
    44    40    37    1
    45    42    36    1
    46    43    35    1
    47    44    35    1
