@<TRIPOS>MOLECULE
outputs/IAG933/test6/raw/output_8757_IAG933_linker_design_.xyz
 44 49 0 0 0
SMALL
GASTEIGER

@<TRIPOS>ATOM
      1 C         -24.8550   -1.0120   30.1430 C.3     1  UNL1        0.1264
      2 C         -24.9730   -2.5050   29.7880 C.2     1  UNL1       -0.0003
      3 C         -23.9060   -3.1730   29.1460 C.2     1  UNL1       -0.0024
      4 C         -23.9890   -4.5490   28.8530 C.2     1  UNL1       -0.0003
      5 C         -25.1370   -5.2800   29.2050 C.2     1  UNL1       -0.0000
      6 C         -26.2320   -4.6110   29.7840 C.2     1  UNL1       -0.0003
      7 C         -26.1550   -3.2320   30.0650 C.2     1  UNL1       -0.0024
      8 C         -25.3870   -0.6790   31.5710 C.3     1  UNL1        0.0977
      9 C         -25.1890    0.7730   32.0280 C.3     1  UNL1        0.0211
     10 C         -25.3360    0.6840   33.5440 C.3     1  UNL1        0.0203
     11 C         -24.8290   -0.7150   33.9050 C.3     1  UNL1        0.0888
     12 N         -24.7580   -1.4810   32.6460 N.3     1  UNL1       -0.2172
     13 C         -25.6880    1.6140   26.4610 C.3     1  UNL1        0.0952
     14 C         -26.2500    2.9200   26.3950 C.2     1  UNL1        0.0590
     15 C         -25.6420    4.0930   27.1230 C.2     1  UNL1        0.2628
     16 N         -25.6140    5.2520   26.4490 N.am    1  UNL1       -0.2000
     17 C         -25.0260    6.4790   26.9630 C.3     1  UNL1        0.1388
     18 O         -25.1430    3.9660   28.2430 O.2     1  UNL1       -0.2686
     19 C         -27.4380    3.0910   25.6450 C.2     1  UNL1        0.1025
     20 N         -28.0750    2.0890   25.0030 N.2     1  UNL1       -0.2118
     21 C         -27.5430    0.8490   25.0790 C.2     1  UNL1        0.2344
     22 O         -28.1930   -0.2080   24.4770 O.2     1  UNL1       -0.4585
     23 C         -29.4600    0.0050   23.8660 C.3     1  UNL1        0.2423
     24 C         -30.0650   -1.3770   23.5730 C.3     1  UNL1        0.2292
     25 O         -30.7290   -1.8780   24.7210 O.3     1  UNL1       -0.2162
     26 C         -26.3540    0.5760   25.7770 C.3     1  UNL1        0.2441
     27 F         -25.8600   -0.6810   25.7950 F       1  UNL1       -0.2265
     28 C         -22.4503    0.8603   27.9830 C.ar    1  UNL1        0.0763
     29 C         -27.3665    3.6852   30.4304 C.3     1  UNL1        0.2036
     30 O         -21.4053    1.8178   26.1487 O.2     1  UNL1       -0.4472
     31 C         -25.1179    1.0376   28.7792 C.ar    1  UNL1        0.1262
     32 C         -23.4806    1.4374   27.0818 C.ar    1  UNL1        0.0427
     33 C         -28.4345    1.9533   29.3363 C.3     1  UNL1        0.1664
     34 C         -24.8189    1.3457   27.4550 C.ar    1  UNL1        0.0196
     35 N         -22.0602   -0.5661   29.8481 N.2     1  UNL1       -0.1286
     36 C         -22.9080    0.1196   29.1001 C.ar    1  UNL1        0.1696
     37 O         -26.3286    4.3588   30.9689 O.3     1  UNL1       -0.2185
     38 C         -28.8333    3.8179   30.7276 C.3     1  UNL1        0.1768
     39 C         -21.2025    1.1537   27.4168 C.2     1  UNL1        0.1827
     40 C         -27.1079    2.4669   29.6616 C.3     1  UNL1        0.1562
     41 N         -24.3323    0.0991   29.3358 N.ar    1  UNL1       -0.2957
     42 O         -29.3959    2.5927   30.1949 O.3     1  UNL1       -0.3491
     43 N         -26.0054    1.7838   29.4900 N.pl3   1  UNL1       -0.2183
     44 C         -22.7574    1.9130   25.8779 C.2     1  UNL1        0.1795
@<TRIPOS>BOND
     1     1     2    1
     2     2     7    1
     3     3     2    2
     4     4     3    1
     5     4     5    2
     6     5     6    1
     7     6     7    2
     8     8     1    1
     9     8     9    1
    10     8    12    1
    11     9    10    1
    12    10    11    1
    13    12    11    1
    14    13    34    1
    15    14    13    1
    16    14    15    1
    17    15    18    2
    18    16    17    1
    19    16    15    1
    20    19    14    2
    21    20    21    2
    22    20    19    1
    23    21    26    1
    24    22    21    1
    25    23    22    1
    26    24    23    1
    27    24    25    1
    28    26    27    1
    29    26    13    1
    30    28    36   ar
    31    29    38    1
    32    29    37    1
    33    30    39    1
    34    31    41   ar
    35    31    43    1
    36    32    34   ar
    37    32    28   ar
    38    33    40    1
    39    33    42    1
    40    34    31   ar
    41    36    41   ar
    42    36    35    2
    43    39    28    2
    44    40    43    1
    45    40    29    1
    46    41     1    1
    47    42    38    1
    48    44    30    1
    49    44    32    2
