@<TRIPOS>MOLECULE
outputs/IAG933/test6/raw/output_876_IAG933_linker_design_.xyz
 42 44 0 0 0
SMALL
GASTEIGER

@<TRIPOS>ATOM
      1 C         -24.8550   -1.0120   30.1430 C.3     1  UNL1        0.0438
      2 C         -24.9730   -2.5050   29.7880 C.2     1  UNL1       -0.0208
      3 C         -23.9060   -3.1730   29.1460 C.2     1  UNL1       -0.0042
      4 C         -23.9890   -4.5490   28.8530 C.2     1  UNL1       -0.0003
      5 C         -25.1370   -5.2800   29.2050 C.2     1  UNL1       -0.0000
      6 C         -26.2320   -4.6110   29.7840 C.2     1  UNL1       -0.0003
      7 C         -26.1550   -3.2320   30.0650 C.2     1  UNL1       -0.0042
      8 C         -25.3870   -0.6790   31.5710 C.3     1  UNL1        0.0795
      9 C         -25.1890    0.7730   32.0280 C.3     1  UNL1        0.0451
     10 C         -25.3360    0.6840   33.5440 C.3     1  UNL1        0.0226
     11 C         -24.8290   -0.7150   33.9050 C.3     1  UNL1        0.0888
     12 N         -24.7580   -1.4810   32.6460 N.3     1  UNL1       -0.2190
     13 C         -25.6880    1.6140   26.4610 C.3     1  UNL1        0.0702
     14 C         -26.2500    2.9200   26.3950 C.2     1  UNL1        0.0548
     15 C         -25.6420    4.0930   27.1230 C.2     1  UNL1        0.2624
     16 N         -25.6140    5.2520   26.4490 N.am    1  UNL1       -0.2000
     17 C         -25.0260    6.4790   26.9630 C.3     1  UNL1        0.1388
     18 O         -25.1430    3.9660   28.2430 O.2     1  UNL1       -0.2687
     19 C         -27.4380    3.0910   25.6450 C.2     1  UNL1        0.1021
     20 N         -28.0750    2.0890   25.0030 N.2     1  UNL1       -0.2119
     21 C         -27.5430    0.8490   25.0790 C.2     1  UNL1        0.2341
     22 O         -28.1930   -0.2080   24.4770 O.2     1  UNL1       -0.4585
     23 C         -29.4600    0.0050   23.8660 C.3     1  UNL1        0.2423
     24 C         -30.0650   -1.3770   23.5730 C.3     1  UNL1        0.2292
     25 O         -30.7290   -1.8780   24.7210 O.3     1  UNL1       -0.2162
     26 C         -26.3540    0.5760   25.7770 C.3     1  UNL1        0.2400
     27 F         -25.8600   -0.6810   25.7950 F       1  UNL1       -0.2269
     28 C         -22.9111    1.3085   28.5311 C.3     1  UNL1        0.1213
     29 N         -27.1320    4.4706   32.5764 N.am    1  UNL1       -0.2053
     30 C         -23.1206    1.6714   29.0949 C.3     1  UNL1        0.1609
     31 C         -25.6300    3.0730   31.2508 C.3     1  UNL1        0.0530
     32 C         -28.0757    4.2411   31.6453 C.2     1  UNL1        0.2419
     33 C         -29.2511    5.1854   31.5491 C.3     1  UNL1        0.0964
     34 C         -21.5924    1.7605   27.4648 C.3     1  UNL1        0.0216
     35 C         -24.5893    1.9858   31.3775 C.3     1  UNL1        0.1184
     36 O         -28.0733    3.2445   30.8941 O.2     1  UNL1       -0.2733
     37 N         -23.6430    1.2887   28.2119 N.3     1  UNL1       -0.1303
     38 O         -23.6054    1.3013   30.5428 O.3     1  UNL1       -0.3546
     39 C         -22.1282    1.9457   26.3119 C.3     1  UNL1        0.0016
     40 C         -25.8375    3.7702   32.6140 C.3     1  UNL1        0.1176
     41 C         -24.2982    1.5335   26.8107 C.3     1  UNL1        0.0078
     42 C         -23.4145    1.8009   25.8683 C.3     1  UNL1        0.0005
@<TRIPOS>BOND
     1     2     7    1
     2     2     1    1
     3     3     2    2
     4     4     3    1
     5     4     5    2
     6     5     6    1
     7     6     7    2
     8     8     1    1
     9     8     9    1
    10     8    12    1
    11     9    35    1
    12     9    10    1
    13    10    11    1
    14    12    11    1
    15    13    41    1
    16    14    13    1
    17    14    15    1
    18    15    18    2
    19    16    17    1
    20    16    15    1
    21    19    14    2
    22    20    21    2
    23    20    19    1
    24    21    26    1
    25    22    21    1
    26    23    22    1
    27    24    23    1
    28    24    25    1
    29    26    27    1
    30    26    13    1
    31    28    37    1
    32    28    30    1
    33    29    40    1
    34    30    38    1
    35    31    40    1
    36    32    29    1
    37    33    32    1
    38    34    28    1
    39    35    31    1
    40    36    32    2
    41    38    35    1
    42    39    34    1
    43    42    39    1
    44    42    41    1
