@<TRIPOS>MOLECULE
outputs/IAG933/test6/raw/output_8762_IAG933_linker_design_.xyz
 45 50 0 0 0
SMALL
GASTEIGER

@<TRIPOS>ATOM
      1 C         -24.8550   -1.0120   30.1430 C.3     1  UNL1        0.0451
      2 C         -24.9730   -2.5050   29.7880 C.2     1  UNL1       -0.0207
      3 C         -23.9060   -3.1730   29.1460 C.2     1  UNL1       -0.0042
      4 C         -23.9890   -4.5490   28.8530 C.2     1  UNL1       -0.0003
      5 C         -25.1370   -5.2800   29.2050 C.2     1  UNL1       -0.0000
      6 C         -26.2320   -4.6110   29.7840 C.2     1  UNL1       -0.0003
      7 C         -26.1550   -3.2320   30.0650 C.2     1  UNL1       -0.0042
      8 C         -25.3870   -0.6790   31.5710 C.3     1  UNL1        0.0917
      9 C         -25.1890    0.7730   32.0280 C.3     1  UNL1        0.0765
     10 C         -25.3360    0.6840   33.5440 C.3     1  UNL1        0.0362
     11 C         -24.8290   -0.7150   33.9050 C.3     1  UNL1        0.0901
     12 N         -24.7580   -1.4810   32.6460 N.3     1  UNL1       -0.2177
     13 C         -25.6880    1.6140   26.4610 C.2     1  UNL1        0.0329
     14 C         -26.2500    2.9200   26.3950 C.2     1  UNL1        0.0739
     15 C         -25.6420    4.0930   27.1230 C.2     1  UNL1        0.2662
     16 N         -25.6140    5.2520   26.4490 N.am    1  UNL1       -0.1997
     17 C         -25.0260    6.4790   26.9630 C.3     1  UNL1        0.1388
     18 O         -25.1430    3.9660   28.2430 O.2     1  UNL1       -0.2683
     19 C         -27.4380    3.0910   25.6450 C.2     1  UNL1        0.1065
     20 N         -28.0750    2.0890   25.0030 N.2     1  UNL1       -0.2081
     21 C         -27.5430    0.8490   25.0790 C.2     1  UNL1        0.2530
     22 O         -28.1930   -0.2080   24.4770 O.2     1  UNL1       -0.4558
     23 C         -29.4600    0.0050   23.8660 C.3     1  UNL1        0.2426
     24 C         -30.0650   -1.3770   23.5730 C.3     1  UNL1        0.2292
     25 O         -30.7290   -1.8780   24.7210 O.3     1  UNL1       -0.2162
     26 C         -26.3540    0.5760   25.7770 C.2     1  UNL1        0.1905
     27 F         -25.8600   -0.6810   25.7950 F       1  UNL1       -0.1995
     28 C         -22.1074    1.1322   27.4318 C.3     1  UNL1        0.2086
     29 C         -26.6166    5.0177   32.5758 C.3     1  UNL1        0.0554
     30 S         -28.3086    4.6371   32.7181 S.3     1  UNL1       -0.1390
     31 C         -27.8149    3.0014   32.9026 C.3     1  UNL1        0.0749
     32 F         -20.9903    1.9316   27.3026 F       1  UNL1       -0.2330
     33 O         -22.8305    2.0399   25.3228 O.3     1  UNL1       -0.2183
     34 N         -25.0770    4.0184   30.9807 N.3     1  UNL1       -0.2012
     35 C         -24.3795    1.4562   27.0621 C.3     1  UNL1        0.1164
     36 N         -24.1196    1.3793   28.3182 N.3     1  UNL1       -0.2633
     37 C         -26.4104    2.7126   32.3155 C.3     1  UNL1        0.0863
     38 C         -23.1880    1.4185   26.4834 C.3     1  UNL1        0.2043
     39 C         -22.7642    1.1534   28.7915 C.3     1  UNL1        0.1108
     40 C         -24.9444    2.4763   30.5166 C.3     1  UNL1        0.1482
     41 C         -25.8075    4.8463   33.9791 C.3     1  UNL1        0.0123
     42 C         -26.1002    3.9382   31.8809 C.3     1  UNL1        0.0988
     43 C         -26.3412    6.4480   32.0518 C.3     1  UNL1        0.0123
     44 N         -25.8467    1.9397   31.4441 N.3     1  UNL1       -0.2581
     45 C         -24.8722    1.6621   29.4229 C.3     1  UNL1        0.1069
@<TRIPOS>BOND
     1     2     7    1
     2     2     1    1
     3     3     2    2
     4     4     3    1
     5     4     5    2
     6     5     6    1
     7     6     7    2
     8     8     1    1
     9     8     9    1
    10     8    12    1
    11     9    10    1
    12    10    11    1
    13    12    11    1
    14    14    13    1
    15    14    15    1
    16    15    18    2
    17    16    17    1
    18    16    15    1
    19    19    14    2
    20    20    21    2
    21    20    19    1
    22    21    26    1
    23    22    21    1
    24    23    22    1
    25    24    23    1
    26    24    25    1
    27    26    27    1
    28    26    13    2
    29    28    32    1
    30    28    39    1
    31    29    30    1
    32    29    41    1
    33    30    31    1
    34    35    13    1
    35    35    36    1
    36    36    39    1
    37    36    45    1
    38    37    31    1
    39    38    33    1
    40    38    35    1
    41    38    28    1
    42    40    45    1
    43    40    34    1
    44    40    44    1
    45    42    34    1
    46    42    37    1
    47    42    29    1
    48    43    29    1
    49    44     9    1
    50    44    37    1
