@<TRIPOS>MOLECULE
outputs/IAG933/test6/raw/output_8766_IAG933_linker_design_.xyz
 44 48 0 0 0
SMALL
GASTEIGER

@<TRIPOS>ATOM
      1 C         -24.8550   -1.0120   30.1430 C.3     1  UNL1        0.0442
      2 C         -24.9730   -2.5050   29.7880 C.2     1  UNL1       -0.0208
      3 C         -23.9060   -3.1730   29.1460 C.2     1  UNL1       -0.0042
      4 C         -23.9890   -4.5490   28.8530 C.2     1  UNL1       -0.0003
      5 C         -25.1370   -5.2800   29.2050 C.2     1  UNL1       -0.0000
      6 C         -26.2320   -4.6110   29.7840 C.2     1  UNL1       -0.0003
      7 C         -26.1550   -3.2320   30.0650 C.2     1  UNL1       -0.0042
      8 C         -25.3870   -0.6790   31.5710 C.3     1  UNL1        0.0845
      9 C         -25.1890    0.7730   32.0280 C.3     1  UNL1        0.0798
     10 C         -25.3360    0.6840   33.5440 C.3     1  UNL1        0.0281
     11 C         -24.8290   -0.7150   33.9050 C.3     1  UNL1        0.0892
     12 N         -24.7580   -1.4810   32.6460 N.3     1  UNL1       -0.2187
     13 C         -25.6880    1.6140   26.4610 C.2     1  UNL1        0.0807
     14 C         -26.2500    2.9200   26.3950 C.2     1  UNL1        0.0801
     15 C         -25.6420    4.0930   27.1230 C.2     1  UNL1        0.2665
     16 N         -25.6140    5.2520   26.4490 N.am    1  UNL1       -0.1997
     17 C         -25.0260    6.4790   26.9630 C.3     1  UNL1        0.1388
     18 O         -25.1430    3.9660   28.2430 O.2     1  UNL1       -0.2683
     19 C         -27.4380    3.0910   25.6450 C.2     1  UNL1        0.1069
     20 N         -28.0750    2.0890   25.0030 N.2     1  UNL1       -0.2081
     21 C         -27.5430    0.8490   25.0790 C.2     1  UNL1        0.2534
     22 O         -28.1930   -0.2080   24.4770 O.2     1  UNL1       -0.4558
     23 C         -29.4600    0.0050   23.8660 C.3     1  UNL1        0.2426
     24 C         -30.0650   -1.3770   23.5730 C.3     1  UNL1        0.2292
     25 O         -30.7290   -1.8780   24.7210 O.3     1  UNL1       -0.2162
     26 C         -26.3540    0.5760   25.7770 C.2     1  UNL1        0.1966
     27 F         -25.8600   -0.6810   25.7950 F       1  UNL1       -0.1991
     28 C         -24.5797    6.2065   32.0425 C.2     1  UNL1       -0.0003
     29 N         -24.3185    1.8807   29.9779 N.2     1  UNL1       -0.0468
     30 C         -22.0985    0.3152   29.0360 C.3     1  UNL1        0.1497
     31 C         -21.1841    0.6211   27.8851 C.2     1  UNL1       -0.0134
     32 C         -23.3927    1.1805   29.1332 C.2     1  UNL1        0.3550
     33 C         -25.0546    1.9690   31.1501 C.2     1  UNL1        0.1536
     34 C         -25.3058    6.9263   31.0901 C.2     1  UNL1       -0.0000
     35 C         -25.9008    2.8914   31.6666 C.3     1  UNL1        0.0954
     36 C         -23.0776    1.6672   26.2961 C.2     1  UNL1        0.0209
     37 C         -24.7807    4.8369   32.1966 C.2     1  UNL1       -0.0038
     38 N         -24.3841    0.5186   28.0735 N.2     1  UNL1       -0.0385
     39 C         -26.5854    4.9289   30.5206 C.2     1  UNL1       -0.0038
     40 C         -24.3354    1.3004   26.9630 C.2     1  UNL1        0.1916
     41 C         -21.6839    1.2420   26.6846 C.2     1  UNL1       -0.0046
     42 C         -25.7642    4.2066   31.4398 C.2     1  UNL1       -0.0143
     43 C         -26.2804    6.2829   30.3123 C.2     1  UNL1       -0.0003
     44 C         -23.1337    2.5317   25.0252 C.3     1  UNL1        0.0349
@<TRIPOS>BOND
     1     2     7    1
     2     2     1    1
     3     3     2    2
     4     4     3    1
     5     4     5    2
     6     5     6    1
     7     6     7    2
     8     8     1    1
     9     8     9    1
    10     8    12    1
    11     9    33    1
    12     9    10    1
    13    10    11    1
    14    12    11    1
    15    13    40    1
    16    14    13    1
    17    14    15    1
    18    15    18    2
    19    16    17    1
    20    16    15    1
    21    19    14    2
    22    20    21    2
    23    20    19    1
    24    21    26    1
    25    22    21    1
    26    23    22    1
    27    24    23    1
    28    24    25    1
    29    26    27    1
    30    26    13    2
    31    28    37    1
    32    29    33    2
    33    30    32    1
    34    31    30    1
    35    32    29    1
    36    33    35    1
    37    34    28    2
    38    36    41    1
    39    36    40    2
    40    38    32    2
    41    39    42    1
    42    40    38    1
    43    41    31    2
    44    42    35    1
    45    42    37    2
    46    43    39    2
    47    43    34    1
    48    44    36    1
