@<TRIPOS>MOLECULE
outputs/IAG933/test6/raw/output_8768_IAG933_linker_design_.xyz
 42 47 0 0 0
SMALL
GASTEIGER

@<TRIPOS>ATOM
      1 C         -24.8550   -1.0120   30.1430 C.3     1  UNL1        0.1711
      2 C         -24.9730   -2.5050   29.7880 C.2     1  UNL1        0.0074
      3 C         -23.9060   -3.1730   29.1460 C.2     1  UNL1       -0.0018
      4 C         -23.9890   -4.5490   28.8530 C.2     1  UNL1       -0.0002
      5 C         -25.1370   -5.2800   29.2050 C.2     1  UNL1       -0.0000
      6 C         -26.2320   -4.6110   29.7840 C.2     1  UNL1       -0.0002
      7 C         -26.1550   -3.2320   30.0650 C.2     1  UNL1       -0.0018
      8 C         -25.3870   -0.6790   31.5710 C.3     1  UNL1        0.1056
      9 C         -25.1890    0.7730   32.0280 C.3     1  UNL1        0.0217
     10 C         -25.3360    0.6840   33.5440 C.3     1  UNL1        0.0203
     11 C         -24.8290   -0.7150   33.9050 C.3     1  UNL1        0.0888
     12 N         -24.7580   -1.4810   32.6460 N.3     1  UNL1       -0.2166
     13 C         -25.6880    1.6140   26.4610 C.3     1  UNL1        0.1107
     14 C         -26.2500    2.9200   26.3950 C.2     1  UNL1        0.0583
     15 C         -25.6420    4.0930   27.1230 C.2     1  UNL1        0.2626
     16 N         -25.6140    5.2520   26.4490 N.am    1  UNL1       -0.2000
     17 C         -25.0260    6.4790   26.9630 C.3     1  UNL1        0.1388
     18 O         -25.1430    3.9660   28.2430 O.2     1  UNL1       -0.2687
     19 C         -27.4380    3.0910   25.6450 C.2     1  UNL1        0.1023
     20 N         -28.0750    2.0890   25.0030 N.2     1  UNL1       -0.2119
     21 C         -27.5430    0.8490   25.0790 C.2     1  UNL1        0.2342
     22 O         -28.1930   -0.2080   24.4770 O.2     1  UNL1       -0.4585
     23 C         -29.4600    0.0050   23.8660 C.3     1  UNL1        0.2423
     24 C         -30.0650   -1.3770   23.5730 C.3     1  UNL1        0.2292
     25 O         -30.7290   -1.8780   24.7210 O.3     1  UNL1       -0.2162
     26 C         -26.3540    0.5760   25.7770 C.3     1  UNL1        0.2435
     27 F         -25.8600   -0.6810   25.7950 F       1  UNL1       -0.2268
     28 O         -25.0782   -0.2385   29.0145 O.3     1  UNL1       -0.3300
     29 C         -23.1082    2.0303   27.8301 C.3     1  UNL1        0.1021
     30 C         -23.4168    1.5597   29.2163 C.2     1  UNL1        0.1962
     31 C         -22.9691    1.6558   24.6968 C.2     1  UNL1        0.4971
     32 F         -23.3828    1.4167   23.5274 F       1  UNL1       -0.1253
     33 C         -21.6240    1.3676   27.6809 C.3     1  UNL1        0.0120
     34 C         -23.7110   -0.0430   28.8842 C.3     1  UNL1        0.2325
     35 O         -23.5440    2.1494   30.2582 O.2     1  UNL1       -0.2919
     36 O         -23.5429    0.7999   25.6794 O.3     1  UNL1       -0.4271
     37 N         -22.5794   -0.3191   29.6030 N.3     1  UNL1       -0.1867
     38 C         -24.2272    1.4178   26.8422 C.3     1  UNL1        0.1857
     39 O         -21.9120    2.3269   24.9424 O.2     1  UNL1       -0.2104
     40 C         -21.5346   -0.8744   29.1622 C.3     1  UNL1        0.0916
     41 C         -21.2566    0.2255   28.5190 C.3     1  UNL1        0.0181
     42 C         -20.1282    1.1116   27.9402 C.3     1  UNL1        0.0020
@<TRIPOS>BOND
     1     1     2    1
     2     1     8    1
     3     2     7    1
     4     3     2    2
     5     4     3    1
     6     4     5    2
     7     5     6    1
     8     6     7    2
     9     8     9    1
    10     8    12    1
    11     9    10    1
    12    10    11    1
    13    12    11    1
    14    13    38    1
    15    14    13    1
    16    14    15    1
    17    15    18    2
    18    16    17    1
    19    16    15    1
    20    19    14    2
    21    20    21    2
    22    20    19    1
    23    21    26    1
    24    22    21    1
    25    23    22    1
    26    24    23    1
    27    24    25    1
    28    26    27    1
    29    26    13    1
    30    28     1    1
    31    29    38    1
    32    29    30    1
    33    30    35    2
    34    31    39    2
    35    31    36    1
    36    32    31    1
    37    33    29    1
    38    33    42    1
    39    33    41    1
    40    34    28    1
    41    34    30    1
    42    34    37    1
    43    34     1    1
    44    38    36    1
    45    40    37    1
    46    41    42    1
    47    41    40    1
