@<TRIPOS>MOLECULE
outputs/IAG933/test6/raw/output_8769_IAG933_linker_design_.xyz
 43 47 0 0 0
SMALL
GASTEIGER

@<TRIPOS>ATOM
      1 C         -24.8550   -1.0120   30.1430 C.3     1  UNL1        0.1114
      2 C         -24.9730   -2.5050   29.7880 C.2     1  UNL1       -0.0030
      3 C         -23.9060   -3.1730   29.1460 C.2     1  UNL1       -0.0026
      4 C         -23.9890   -4.5490   28.8530 C.2     1  UNL1       -0.0003
      5 C         -25.1370   -5.2800   29.2050 C.2     1  UNL1       -0.0000
      6 C         -26.2320   -4.6110   29.7840 C.2     1  UNL1       -0.0003
      7 C         -26.1550   -3.2320   30.0650 C.2     1  UNL1       -0.0026
      8 C         -25.3870   -0.6790   31.5710 C.3     1  UNL1        0.0950
      9 C         -25.1890    0.7730   32.0280 C.3     1  UNL1        0.0209
     10 C         -25.3360    0.6840   33.5440 C.3     1  UNL1        0.0203
     11 C         -24.8290   -0.7150   33.9050 C.3     1  UNL1        0.0888
     12 N         -24.7580   -1.4810   32.6460 N.3     1  UNL1       -0.2174
     13 C         -25.6880    1.6140   26.4610 C.3     1  UNL1        0.1622
     14 C         -26.2500    2.9200   26.3950 C.2     1  UNL1        0.0747
     15 C         -25.6420    4.0930   27.1230 C.2     1  UNL1        0.2641
     16 N         -25.6140    5.2520   26.4490 N.am    1  UNL1       -0.1999
     17 C         -25.0260    6.4790   26.9630 C.3     1  UNL1        0.1388
     18 O         -25.1430    3.9660   28.2430 O.2     1  UNL1       -0.2686
     19 C         -27.4380    3.0910   25.6450 C.2     1  UNL1        0.1038
     20 N         -28.0750    2.0890   25.0030 N.2     1  UNL1       -0.2118
     21 C         -27.5430    0.8490   25.0790 C.2     1  UNL1        0.2359
     22 O         -28.1930   -0.2080   24.4770 O.2     1  UNL1       -0.4585
     23 C         -29.4600    0.0050   23.8660 C.3     1  UNL1        0.2423
     24 C         -30.0650   -1.3770   23.5730 C.3     1  UNL1        0.2292
     25 O         -30.7290   -1.8780   24.7210 O.3     1  UNL1       -0.2162
     26 C         -26.3540    0.5760   25.7770 C.3     1  UNL1        0.2598
     27 F         -25.8600   -0.6810   25.7950 F       1  UNL1       -0.2250
     28 CL        -22.0638    2.2425   25.7013 Cl      1  UNL1       -0.0809
     29 N         -24.4547    1.5024   26.5637 N.pl3   1  UNL1       -0.2293
     30 C         -23.7258    1.2411   27.5062 C.2     1  UNL1        0.0895
     31 C         -28.8049    3.2186   29.0455 C.3     1  UNL1        0.0188
     32 C         -28.3104    2.9405   30.3988 C.3     1  UNL1        0.0188
     33 C         -26.9553   -0.2163   28.7308 C.3     1  UNL1        0.1084
     34 C         -22.3490    1.4689   27.2192 C.2     1  UNL1        0.0737
     35 N         -29.3395    0.9635   29.7224 N.3     1  UNL1       -0.2712
     36 C         -29.8458    2.1153   28.9594 C.3     1  UNL1        0.0722
     37 C         -23.9451    0.4119   28.6902 C.2     1  UNL1        0.0640
     38 C         -28.5436    0.0144   28.8176 C.3     1  UNL1        0.0938
     39 C         -22.7938    0.1014   29.5230 C.2     1  UNL1        0.0159
     40 N         -25.2601   -0.2223   29.0057 N.pl3   1  UNL1       -0.3016
     41 C         -21.4484    0.4125   29.1573 C.2     1  UNL1        0.0022
     42 C         -28.4565    1.5092   30.8083 C.3     1  UNL1        0.0722
     43 C         -21.2288    1.1209   27.9739 C.2     1  UNL1        0.0128
@<TRIPOS>BOND
     1     1    40    1
     2     2     7    1
     3     2     1    1
     4     3     2    2
     5     4     3    1
     6     4     5    2
     7     5     6    1
     8     6     7    2
     9     8     1    1
    10     8     9    1
    11     8    12    1
    12     9    10    1
    13    10    11    1
    14    12    11    1
    15    13    29    1
    16    14    13    1
    17    14    15    1
    18    15    18    2
    19    16    17    1
    20    16    15    1
    21    19    14    2
    22    20    21    2
    23    20    19    1
    24    21    26    1
    25    22    21    1
    26    23    22    1
    27    24    23    1
    28    24    25    1
    29    26    27    1
    30    26    13    1
    31    28    34    1
    32    29    30    1
    33    30    37    1
    34    31    32    1
    35    32    42    1
    36    33    38    1
    37    33    40    1
    38    34    30    2
    39    34    43    1
    40    35    42    1
    41    36    31    1
    42    36    35    1
    43    37    40    1
    44    37    39    2
    45    38    35    1
    46    41    39    1
    47    43    41    2
