@<TRIPOS>MOLECULE
outputs/IAG933/test6/raw/output_877_IAG933_linker_design_.xyz
 44 47 0 0 0
SMALL
GASTEIGER

@<TRIPOS>ATOM
      1 C         -24.8550   -1.0120   30.1430 C.3     1  UNL1        0.1126
      2 C         -24.9730   -2.5050   29.7880 C.2     1  UNL1       -0.0051
      3 C         -23.9060   -3.1730   29.1460 C.2     1  UNL1       -0.0029
      4 C         -23.9890   -4.5490   28.8530 C.2     1  UNL1       -0.0003
      5 C         -25.1370   -5.2800   29.2050 C.2     1  UNL1       -0.0000
      6 C         -26.2320   -4.6110   29.7840 C.2     1  UNL1       -0.0003
      7 C         -26.1550   -3.2320   30.0650 C.2     1  UNL1       -0.0029
      8 C         -25.3870   -0.6790   31.5710 C.3     1  UNL1        0.0929
      9 C         -25.1890    0.7730   32.0280 C.3     1  UNL1        0.0206
     10 C         -25.3360    0.6840   33.5440 C.3     1  UNL1        0.0203
     11 C         -24.8290   -0.7150   33.9050 C.3     1  UNL1        0.0888
     12 N         -24.7580   -1.4810   32.6460 N.3     1  UNL1       -0.2177
     13 C         -25.6880    1.6140   26.4610 C.3     1  UNL1        0.1445
     14 C         -26.2500    2.9200   26.3950 C.2     1  UNL1        0.0731
     15 C         -25.6420    4.0930   27.1230 C.2     1  UNL1        0.2640
     16 N         -25.6140    5.2520   26.4490 N.am    1  UNL1       -0.1999
     17 C         -25.0260    6.4790   26.9630 C.3     1  UNL1        0.1388
     18 O         -25.1430    3.9660   28.2430 O.2     1  UNL1       -0.2686
     19 C         -27.4380    3.0910   25.6450 C.2     1  UNL1        0.1038
     20 N         -28.0750    2.0890   25.0030 N.2     1  UNL1       -0.2118
     21 C         -27.5430    0.8490   25.0790 C.2     1  UNL1        0.2358
     22 O         -28.1930   -0.2080   24.4770 O.2     1  UNL1       -0.4585
     23 C         -29.4600    0.0050   23.8660 C.3     1  UNL1        0.2423
     24 C         -30.0650   -1.3770   23.5730 C.3     1  UNL1        0.2292
     25 O         -30.7290   -1.8780   24.7210 O.3     1  UNL1       -0.2162
     26 C         -26.3540    0.5760   25.7770 C.3     1  UNL1        0.2581
     27 F         -25.8600   -0.6810   25.7950 F       1  UNL1       -0.2251
     28 C         -23.4817    1.3502   27.5701 C.ar    1  UNL1        0.1365
     29 N         -22.4216    0.0383   29.7061 N.pl3   1  UNL1       -0.1023
     30 C         -29.4526    3.8684   28.3237 C.3     1  UNL1        0.0026
     31 O         -21.4495    2.0987   27.0570 O.2     1  UNL1       -0.3391
     32 C         -22.4689    0.8436   28.5053 C.ar    1  UNL1        0.2252
     33 O         -29.0325    0.3500   29.6454 O.3     1  UNL1       -0.3537
     34 N         -24.8431    1.1980   27.4813 N.pl3   1  UNL1       -0.2843
     35 N         -21.3107    1.2294   28.1363 N.ar    1  UNL1       -0.0561
     36 C         -29.0296    3.4332   30.7170 C.3     1  UNL1        0.0026
     37 N         -25.0492   -0.0316   29.2020 N.3     1  UNL1       -0.1955
     38 C         -29.6022    1.5625   29.1395 C.3     1  UNL1        0.1421
     39 C         -26.6045    0.6603   29.2667 C.3     1  UNL1        0.0701
     40 C         -27.8915   -0.2364   28.9308 C.3     1  UNL1        0.1454
     41 C         -25.4676    0.5977   28.4133 C.3     1  UNL1        0.1507
     42 C         -28.8056    2.8792   29.2857 C.3     1  UNL1        0.0297
     43 CL        -23.2170    2.5898   25.1666 Cl      1  UNL1       -0.0387
     44 C         -22.7054    2.0682   26.6884 C.ar    1  UNL1        0.2494
@<TRIPOS>BOND
     1     1    37    1
     2     2     7    1
     3     2     1    1
     4     3     2    2
     5     4     3    1
     6     4     5    2
     7     5     6    1
     8     6     7    2
     9     8     1    1
    10     8     9    1
    11     8    12    1
    12     9    10    1
    13    10    11    1
    14    12    11    1
    15    13    34    1
    16    14    13    1
    17    14    15    1
    18    15    18    2
    19    16    17    1
    20    16    15    1
    21    19    14    2
    22    20    21    2
    23    20    19    1
    24    21    26    1
    25    22    21    1
    26    23    22    1
    27    24    23    1
    28    24    25    1
    29    26    27    1
    30    26    13    1
    31    28    32   ar
    32    30    42    1
    33    31    35   ar
    34    32    29    1
    35    34    28    1
    36    34    41    1
    37    35    32   ar
    38    38    42    1
    39    38    33    1
    40    40    39    1
    41    40    33    1
    42    41    37    1
    43    41    39    1
    44    42    36    1
    45    43    44    1
    46    44    31   ar
    47    44    28   ar
