@<TRIPOS>MOLECULE
outputs/IAG933/test6/raw/output_8775_IAG933_linker_design_.xyz
 45 50 0 0 0
SMALL
GASTEIGER

@<TRIPOS>ATOM
      1 C         -24.8550   -1.0120   30.1430 C.3     1  UNL1        0.0563
      2 C         -24.9730   -2.5050   29.7880 C.2     1  UNL1       -0.0197
      3 C         -23.9060   -3.1730   29.1460 C.2     1  UNL1       -0.0042
      4 C         -23.9890   -4.5490   28.8530 C.2     1  UNL1       -0.0003
      5 C         -25.1370   -5.2800   29.2050 C.2     1  UNL1       -0.0000
      6 C         -26.2320   -4.6110   29.7840 C.2     1  UNL1       -0.0003
      7 C         -26.1550   -3.2320   30.0650 C.2     1  UNL1       -0.0042
      8 C         -25.3870   -0.6790   31.5710 C.3     1  UNL1        0.0782
      9 C         -25.1890    0.7730   32.0280 C.3     1  UNL1        0.0192
     10 C         -25.3360    0.6840   33.5440 C.3     1  UNL1        0.0202
     11 C         -24.8290   -0.7150   33.9050 C.3     1  UNL1        0.0887
     12 N         -24.7580   -1.4810   32.6460 N.3     1  UNL1       -0.2191
     13 C         -25.6880    1.6140   26.4610 C.3     1  UNL1        0.0954
     14 C         -26.2500    2.9200   26.3950 C.2     1  UNL1        0.0568
     15 C         -25.6420    4.0930   27.1230 C.2     1  UNL1        0.2207
     16 N         -25.6140    5.2520   26.4490 N.2     1  UNL1       -0.2359
     17 C         -25.0260    6.4790   26.9630 C.3     1  UNL1        0.1550
     18 O         -25.1430    3.9660   28.2430 O.2     1  UNL1       -0.4314
     19 C         -27.4380    3.0910   25.6450 C.2     1  UNL1        0.1025
     20 N         -28.0750    2.0890   25.0030 N.2     1  UNL1       -0.2118
     21 C         -27.5430    0.8490   25.0790 C.2     1  UNL1        0.2344
     22 O         -28.1930   -0.2080   24.4770 O.2     1  UNL1       -0.4585
     23 C         -29.4600    0.0050   23.8660 C.3     1  UNL1        0.2423
     24 C         -30.0650   -1.3770   23.5730 C.3     1  UNL1        0.2292
     25 O         -30.7290   -1.8780   24.7210 O.3     1  UNL1       -0.2162
     26 C         -26.3540    0.5760   25.7770 C.3     1  UNL1        0.2441
     27 F         -25.8600   -0.6810   25.7950 F       1  UNL1       -0.2265
     28 C         -21.9515    1.4847   27.1258 C.2     1  UNL1        0.2849
     29 O         -27.0944    3.3560   29.9492 O.3     1  UNL1       -0.2753
     30 F         -20.7495    1.3701   27.6602 F       1  UNL1       -0.1632
     31 C         -25.8980    3.7044   31.8594 C.3     1  UNL1        0.1382
     32 N         -25.7389    3.3049   30.4515 N.3     1  UNL1       -0.1109
     33 C         -24.1916    1.5220   26.7381 C.2     1  UNL1        0.0253
     34 C         -27.4259    4.7581   29.8600 C.3     1  UNL1        0.1986
     35 C         -23.4914    2.0134   25.7375 C.2     1  UNL1        0.1781
     36 N         -22.3309   -0.0443   29.6144 N.3     1  UNL1       -0.1264
     37 O         -22.0576    2.0191   25.9090 O.2     1  UNL1       -0.4266
     38 C         -25.0524    2.7889   29.1879 C.3     1  UNL1        0.3354
     39 C         -23.4171    0.3823   28.8474 C.3     1  UNL1        0.1355
     40 C         -25.5018    5.1688   32.3062 C.3     1  UNL1        0.1622
     41 N         -25.5010    1.2593   29.3857 N.3     1  UNL1       -0.1621
     42 C         -24.6061    0.2581   29.4122 C.3     1  UNL1        0.1049
     43 C         -26.2848    5.8181   29.9729 C.3     1  UNL1        0.1764
     44 C         -23.2115    1.1026   27.6914 C.2     1  UNL1        0.0597
     45 O         -25.9596    6.1490   31.3403 O.3     1  UNL1       -0.3495
@<TRIPOS>BOND
     1     1     2    1
     2     2     7    1
     3     3     2    2
     4     4     3    1
     5     4     5    2
     6     5     6    1
     7     6     7    2
     8     8     1    1
     9     8     9    1
    10     8    12    1
    11     9    10    1
    12    10    11    1
    13    12    11    1
    14    13    14    1
    15    13    33    1
    16    14    15    1
    17    15    18    1
    18    16    17    1
    19    16    15    2
    20    19    14    2
    21    20    21    2
    22    20    19    1
    23    21    26    1
    24    22    21    1
    25    23    22    1
    26    24    23    1
    27    24    25    1
    28    26    27    1
    29    26    13    1
    30    28    30    1
    31    28    44    2
    32    29    32    1
    33    31    40    1
    34    32    31    1
    35    33    44    1
    36    34    29    1
    37    34    43    1
    38    35    37    1
    39    35    33    2
    40    37    28    1
    41    38    18    1
    42    38    41    1
    43    38    32    1
    44    39    42    1
    45    39    36    1
    46    41    42    1
    47    42     1    1
    48    43    45    1
    49    44    39    1
    50    45    40    1
