@<TRIPOS>MOLECULE
outputs/IAG933/test6/raw/output_8786_IAG933_linker_design_.xyz
 48 52 0 0 0
SMALL
GASTEIGER

@<TRIPOS>ATOM
      1 C         -24.8550   -1.0120   30.1430 C.3     1  UNL1        0.0964
      2 C         -24.9730   -2.5050   29.7880 C.2     1  UNL1       -0.0064
      3 C         -23.9060   -3.1730   29.1460 C.2     1  UNL1       -0.0029
      4 C         -23.9890   -4.5490   28.8530 C.2     1  UNL1       -0.0003
      5 C         -25.1370   -5.2800   29.2050 C.2     1  UNL1       -0.0000
      6 C         -26.2320   -4.6110   29.7840 C.2     1  UNL1       -0.0003
      7 C         -26.1550   -3.2320   30.0650 C.2     1  UNL1       -0.0029
      8 C         -25.3870   -0.6790   31.5710 C.3     1  UNL1        0.0916
      9 C         -25.1890    0.7730   32.0280 C.3     1  UNL1        0.0206
     10 C         -25.3360    0.6840   33.5440 C.3     1  UNL1        0.0203
     11 C         -24.8290   -0.7150   33.9050 C.3     1  UNL1        0.0888
     12 N         -24.7580   -1.4810   32.6460 N.3     1  UNL1       -0.2178
     13 C         -25.6880    1.6140   26.4610 C.2     1  UNL1        0.0222
     14 C         -26.2500    2.9200   26.3950 C.2     1  UNL1        0.0728
     15 C         -25.6420    4.0930   27.1230 C.2     1  UNL1        0.2661
     16 N         -25.6140    5.2520   26.4490 N.am    1  UNL1       -0.1997
     17 C         -25.0260    6.4790   26.9630 C.3     1  UNL1        0.1388
     18 O         -25.1430    3.9660   28.2430 O.2     1  UNL1       -0.2683
     19 C         -27.4380    3.0910   25.6450 C.2     1  UNL1        0.1064
     20 N         -28.0750    2.0890   25.0030 N.2     1  UNL1       -0.2081
     21 C         -27.5430    0.8490   25.0790 C.2     1  UNL1        0.2530
     22 O         -28.1930   -0.2080   24.4770 O.2     1  UNL1       -0.4558
     23 C         -29.4600    0.0050   23.8660 C.3     1  UNL1        0.2426
     24 C         -30.0650   -1.3770   23.5730 C.3     1  UNL1        0.2292
     25 O         -30.7290   -1.8780   24.7210 O.3     1  UNL1       -0.2162
     26 C         -26.3540    0.5760   25.7770 C.2     1  UNL1        0.1893
     27 F         -25.8600   -0.6810   25.7950 F       1  UNL1       -0.1996
     28 C         -23.4237    1.2247   28.3522 C.3     1  UNL1        0.2754
     29 N         -25.5812   -0.0876   29.1538 N.3     1  UNL1       -0.2634
     30 N         -29.9158    2.4787   30.8738 N.am    1  UNL1       -0.2050
     31 C         -27.3517    4.5799   32.2304 C.2     1  UNL1       -0.0204
     32 C         -29.6351    3.3943   32.0111 C.3     1  UNL1        0.1198
     33 C         -28.0804    0.1010   29.6252 C.3     1  UNL1        0.1770
     34 O         -28.3410    3.0946   29.8591 O.2     1  UNL1       -0.2733
     35 C         -29.2331    2.2877   29.9772 C.2     1  UNL1        0.2440
     36 C         -24.5958    1.2486   27.2650 C.3     1  UNL1        0.1052
     37 C         -25.7492    4.6116   34.0714 C.2     1  UNL1       -0.0003
     38 C         -26.2598    4.7008   31.3066 C.2     1  UNL1       -0.0042
     39 C         -24.9557    4.9164   31.7920 C.2     1  UNL1       -0.0003
     40 C         -29.2202    0.9921   29.1667 C.3     1  UNL1        0.1210
     41 O         -28.7207   -1.1271   30.0387 O.3     1  UNL1       -0.2211
     42 C         -27.0458    4.4070   33.5689 C.2     1  UNL1       -0.0042
     43 C         -24.5636   -0.0667   28.0242 C.3     1  UNL1        0.1271
     44 F         -22.2726    0.4862   28.8786 F       1  UNL1       -0.2049
     45 C         -26.9504   -0.3954   28.6500 C.3     1  UNL1        0.1062
     46 O         -22.5530    2.3172   28.1309 O.3     1  UNL1       -0.1880
     47 C         -24.7087    4.8658   33.1769 C.2     1  UNL1       -0.0000
     48 C         -28.8424    4.7478   31.8602 C.3     1  UNL1        0.0498
@<TRIPOS>BOND
     1     1    29    1
     2     2     7    1
     3     2     1    1
     4     3     2    2
     5     4     3    1
     6     4     5    2
     7     5     6    1
     8     6     7    2
     9     8     1    1
    10     8     9    1
    11     8    12    1
    12     9    10    1
    13    10    11    1
    14    12    11    1
    15    14    13    1
    16    14    15    1
    17    15    18    2
    18    16    17    1
    19    16    15    1
    20    19    14    2
    21    20    21    2
    22    20    19    1
    23    21    26    1
    24    22    21    1
    25    23    22    1
    26    24    23    1
    27    24    25    1
    28    26    27    1
    29    26    13    2
    30    28    46    1
    31    28    44    1
    32    30    32    1
    33    31    42    1
    34    33    41    1
    35    34    35    2
    36    35    30    1
    37    36    13    1
    38    36    43    1
    39    36    28    1
    40    38    39    1
    41    38    31    2
    42    39    47    2
    43    40    33    1
    44    40    35    1
    45    42    37    2
    46    43    28    1
    47    43    29    1
    48    45    29    1
    49    45    33    1
    50    47    37    1
    51    48    32    1
    52    48    31    1
