@<TRIPOS>MOLECULE
outputs/IAG933/test6/raw/output_8787_IAG933_linker_design_.xyz
 45 47 0 0 0
SMALL
GASTEIGER

@<TRIPOS>ATOM
      1 C         -24.8550   -1.0120   30.1430 C.3     1  UNL1        0.0965
      2 C         -24.9730   -2.5050   29.7880 C.2     1  UNL1       -0.0064
      3 C         -23.9060   -3.1730   29.1460 C.2     1  UNL1       -0.0029
      4 C         -23.9890   -4.5490   28.8530 C.2     1  UNL1       -0.0003
      5 C         -25.1370   -5.2800   29.2050 C.2     1  UNL1       -0.0000
      6 C         -26.2320   -4.6110   29.7840 C.2     1  UNL1       -0.0003
      7 C         -26.1550   -3.2320   30.0650 C.2     1  UNL1       -0.0029
      8 C         -25.3870   -0.6790   31.5710 C.3     1  UNL1        0.0916
      9 C         -25.1890    0.7730   32.0280 C.3     1  UNL1        0.0206
     10 C         -25.3360    0.6840   33.5440 C.3     1  UNL1        0.0203
     11 C         -24.8290   -0.7150   33.9050 C.3     1  UNL1        0.0888
     12 N         -24.7580   -1.4810   32.6460 N.3     1  UNL1       -0.2178
     13 C         -25.6880    1.6140   26.4610 C.3     1  UNL1        0.0895
     14 C         -26.2500    2.9200   26.3950 C.2     1  UNL1        0.0565
     15 C         -25.6420    4.0930   27.1230 C.2     1  UNL1        0.2625
     16 N         -25.6140    5.2520   26.4490 N.am    1  UNL1       -0.2000
     17 C         -25.0260    6.4790   26.9630 C.3     1  UNL1        0.1388
     18 O         -25.1430    3.9660   28.2430 O.2     1  UNL1       -0.2687
     19 C         -27.4380    3.0910   25.6450 C.2     1  UNL1        0.1022
     20 N         -28.0750    2.0890   25.0030 N.2     1  UNL1       -0.2119
     21 C         -27.5430    0.8490   25.0790 C.2     1  UNL1        0.2341
     22 O         -28.1930   -0.2080   24.4770 O.2     1  UNL1       -0.4585
     23 C         -29.4600    0.0050   23.8660 C.3     1  UNL1        0.2423
     24 C         -30.0650   -1.3770   23.5730 C.3     1  UNL1        0.2292
     25 O         -30.7290   -1.8780   24.7210 O.3     1  UNL1       -0.2162
     26 C         -26.3540    0.5760   25.7770 C.3     1  UNL1        0.2416
     27 F         -25.8600   -0.6810   25.7950 F       1  UNL1       -0.2268
     28 C         -24.9280    1.0077   27.6966 C.3     1  UNL1        0.0979
     29 C         -30.4529    2.6349   27.7280 C.3     1  UNL1        0.0984
     30 C         -28.0702   -0.5255   28.6935 C.3     1  UNL1        0.1013
     31 N         -25.4584   -0.0093   29.0795 N.3     1  UNL1       -0.2647
     32 S         -30.0415    1.1361   28.4505 S.3     1  UNL1        0.0109
     33 C         -27.7753    1.8050   29.4674 C.3     1  UNL1        0.0841
     34 C         -22.4490    1.8687   27.1714 C.3     1  UNL1        0.2692
     35 C         -26.8229   -0.3536   28.8140 C.3     1  UNL1        0.0911
     36 C         -27.4667    2.9969   30.2207 C.3     1  UNL1        0.0198
     37 C         -22.9478    0.2733   28.7229 C.1     1  UNL1        0.1299
     38 N         -28.6842    1.0374   29.0104 N.3     1  UNL1       -0.2186
     39 C         -23.5256    0.9975   27.8137 C.2     1  UNL1        0.0928
     40 F         -21.1804    1.8617   27.8785 F       1  UNL1       -0.2138
     41 O         -30.1664    0.2023   27.3279 O.3     1  UNL1       -0.1544
     42 O         -22.2333   -0.2919   29.5220 O.2     1  UNL1       -0.2316
     43 CL        -22.5408    2.1633   25.4185 Cl      1  UNL1       -0.0715
     44 C         -31.3601    0.8436   29.3578 C.3     1  UNL1        0.2628
     45 O         -31.9475    2.0312   29.8791 O.3     1  UNL1       -0.2053
@<TRIPOS>BOND
     1     1    31    1
     2     2     7    1
     3     2     1    1
     4     3     2    2
     5     4     3    1
     6     4     5    2
     7     5     6    1
     8     6     7    2
     9     8     1    1
    10     8     9    1
    11     8    12    1
    12     9    10    1
    13    10    11    1
    14    12    11    1
    15    13    28    1
    16    14    13    1
    17    14    15    1
    18    15    18    2
    19    16    17    1
    20    16    15    1
    21    19    14    2
    22    20    21    2
    23    20    19    1
    24    21    26    1
    25    22    21    1
    26    23    22    1
    27    24    23    1
    28    24    25    1
    29    26    27    1
    30    26    13    1
    31    28    39    1
    32    28    31    1
    33    30    35    1
    34    30    38    1
    35    32    29    1
    36    32    38    1
    37    32    44    1
    38    33    36    1
    39    34    43    1
    40    34    39    1
    41    34    40    1
    42    35    31    1
    43    37    42    2
    44    38    33    1
    45    39    37    2
    46    41    32    1
    47    44    45    1
