@<TRIPOS>MOLECULE
outputs/IAG933/test6/raw/output_8788_IAG933_linker_design_.xyz
 42 46 0 0 0
SMALL
GASTEIGER

@<TRIPOS>ATOM
      1 C         -24.8550   -1.0120   30.1430 C.3     1  UNL1        0.0384
      2 C         -24.9730   -2.5050   29.7880 C.2     1  UNL1       -0.0212
      3 C         -23.9060   -3.1730   29.1460 C.2     1  UNL1       -0.0042
      4 C         -23.9890   -4.5490   28.8530 C.2     1  UNL1       -0.0003
      5 C         -25.1370   -5.2800   29.2050 C.2     1  UNL1       -0.0000
      6 C         -26.2320   -4.6110   29.7840 C.2     1  UNL1       -0.0003
      7 C         -26.1550   -3.2320   30.0650 C.2     1  UNL1       -0.0042
      8 C         -25.3870   -0.6790   31.5710 C.3     1  UNL1        0.0768
      9 C         -25.1890    0.7730   32.0280 C.3     1  UNL1        0.0192
     10 C         -25.3360    0.6840   33.5440 C.3     1  UNL1        0.0202
     11 C         -24.8290   -0.7150   33.9050 C.3     1  UNL1        0.0887
     12 N         -24.7580   -1.4810   32.6460 N.3     1  UNL1       -0.2191
     13 C         -25.6880    1.6140   26.4610 C.3     1  UNL1        0.1276
     14 C         -26.2500    2.9200   26.3950 C.2     1  UNL1        0.0620
     15 C         -25.6420    4.0930   27.1230 C.2     1  UNL1        0.2629
     16 N         -25.6140    5.2520   26.4490 N.am    1  UNL1       -0.2000
     17 C         -25.0260    6.4790   26.9630 C.3     1  UNL1        0.1388
     18 O         -25.1430    3.9660   28.2430 O.2     1  UNL1       -0.2686
     19 C         -27.4380    3.0910   25.6450 C.2     1  UNL1        0.1026
     20 N         -28.0750    2.0890   25.0030 N.2     1  UNL1       -0.2118
     21 C         -27.5430    0.8490   25.0790 C.2     1  UNL1        0.2345
     22 O         -28.1930   -0.2080   24.4770 O.2     1  UNL1       -0.4585
     23 C         -29.4600    0.0050   23.8660 C.3     1  UNL1        0.2423
     24 C         -30.0650   -1.3770   23.5730 C.3     1  UNL1        0.2292
     25 O         -30.7290   -1.8780   24.7210 O.3     1  UNL1       -0.2162
     26 C         -26.3540    0.5760   25.7770 C.3     1  UNL1        0.2471
     27 F         -25.8600   -0.6810   25.7950 F       1  UNL1       -0.2264
     28 C         -27.1981    0.6529   29.0683 C.3     1  UNL1        0.0036
     29 C         -29.2341    1.8677   29.5776 C.3     1  UNL1        0.1093
     30 N         -23.4787    1.0450   28.7405 N.pl3   1  UNL1       -0.3086
     31 C         -21.8088    1.6008   27.2677 C.3     1  UNL1        0.0456
     32 N         -29.8916    1.4335   30.7828 N.3     1  UNL1       -0.1314
     33 C         -22.9190    3.0614   25.3155 C.3     1  UNL1        0.2520
     34 C         -24.2369    1.5314   26.5347 C.2     1  UNL1        0.1323
     35 C         -25.9293   -0.3986   29.1782 C.3     1  UNL1        0.0071
     36 C         -22.2994    0.4527   29.3273 C.3     1  UNL1        0.0910
     37 C         -27.8607    1.9638   29.7528 C.3     1  UNL1        0.0206
     38 O         -23.5968    1.8878   25.2683 O.2     1  UNL1       -0.4743
     39 C         -23.1612    1.3020   27.4330 C.2     1  UNL1        0.0554
     40 C         -21.2202    0.8119   28.3508 C.3     1  UNL1        0.0275
     41 C         -24.3733    1.7969   29.4095 C.3     1  UNL1        0.0905
     42 C         -25.7570    1.0966   29.1900 C.3     1  UNL1        0.0202
@<TRIPOS>BOND
     1     1     2    1
     2     2     7    1
     3     3     2    2
     4     4     3    1
     5     4     5    2
     6     5     6    1
     7     6     7    2
     8     8     1    1
     9     8     9    1
    10     8    12    1
    11     9    10    1
    12    10    11    1
    13    12    11    1
    14    13    34    1
    15    14    13    1
    16    14    15    1
    17    15    18    2
    18    16    17    1
    19    16    15    1
    20    19    14    2
    21    20    21    2
    22    20    19    1
    23    21    26    1
    24    22    21    1
    25    23    22    1
    26    24    23    1
    27    24    25    1
    28    26    27    1
    29    26    13    1
    30    28    35    1
    31    28    42    1
    32    28    37    1
    33    29    37    1
    34    29    32    1
    35    30    36    1
    36    30    41    1
    37    31    39    1
    38    31    40    1
    39    34    39    2
    40    35    42    1
    41    35     1    1
    42    38    33    1
    43    38    34    1
    44    39    30    1
    45    40    36    1
    46    42    41    1
