@<TRIPOS>MOLECULE
outputs/IAG933/test6/raw/output_8789_IAG933_linker_design_.xyz
 41 46 0 0 0
SMALL
GASTEIGER

@<TRIPOS>ATOM
      1 C         -24.8550   -1.0120   30.1430 C.3     1  UNL1        0.0490
      2 C         -24.9730   -2.5050   29.7880 C.2     1  UNL1       -0.0206
      3 C         -23.9060   -3.1730   29.1460 C.2     1  UNL1       -0.0042
      4 C         -23.9890   -4.5490   28.8530 C.2     1  UNL1       -0.0003
      5 C         -25.1370   -5.2800   29.2050 C.2     1  UNL1       -0.0000
      6 C         -26.2320   -4.6110   29.7840 C.2     1  UNL1       -0.0003
      7 C         -26.1550   -3.2320   30.0650 C.2     1  UNL1       -0.0042
      8 C         -25.3870   -0.6790   31.5710 C.3     1  UNL1        0.0773
      9 C         -25.1890    0.7730   32.0280 C.3     1  UNL1        0.0192
     10 C         -25.3360    0.6840   33.5440 C.3     1  UNL1        0.0202
     11 C         -24.8290   -0.7150   33.9050 C.3     1  UNL1        0.0887
     12 N         -24.7580   -1.4810   32.6460 N.3     1  UNL1       -0.2191
     13 C         -25.6880    1.6140   26.4610 C.2     1  UNL1        0.0206
     14 C         -26.2500    2.9200   26.3950 C.2     1  UNL1        0.0727
     15 C         -25.6420    4.0930   27.1230 C.2     1  UNL1        0.2661
     16 N         -25.6140    5.2520   26.4490 N.am    1  UNL1       -0.1997
     17 C         -25.0260    6.4790   26.9630 C.3     1  UNL1        0.1388
     18 O         -25.1430    3.9660   28.2430 O.2     1  UNL1       -0.2683
     19 C         -27.4380    3.0910   25.6450 C.2     1  UNL1        0.1064
     20 N         -28.0750    2.0890   25.0030 N.2     1  UNL1       -0.2081
     21 C         -27.5430    0.8490   25.0790 C.2     1  UNL1        0.2530
     22 O         -28.1930   -0.2080   24.4770 O.2     1  UNL1       -0.4558
     23 C         -29.4600    0.0050   23.8660 C.3     1  UNL1        0.2426
     24 C         -30.0650   -1.3770   23.5730 C.3     1  UNL1        0.2292
     25 O         -30.7290   -1.8780   24.7210 O.3     1  UNL1       -0.2162
     26 C         -26.3540    0.5760   25.7770 C.2     1  UNL1        0.1893
     27 F         -25.8600   -0.6810   25.7950 F       1  UNL1       -0.1996
     28 C         -24.3084    0.6233   28.2944 C.3     1  UNL1        0.0252
     29 C         -26.6605    0.4012   29.0827 C.2     1  UNL1        0.3647
     30 C         -22.0318    0.1291   28.3910 C.3     1  UNL1        0.1448
     31 C         -22.0208    1.1365   26.0379 C.3     1  UNL1        0.0964
     32 F         -23.0486    2.8540   25.2828 F       1  UNL1       -0.2039
     33 C         -21.7880    1.9064   27.3928 C.3     1  UNL1        0.1234
     34 O         -20.8339    0.9623   27.7834 O.3     1  UNL1       -0.3559
     35 C         -23.1133    1.0826   28.0520 C.3     1  UNL1        0.0620
     36 O         -26.9236    1.5619   29.4214 O.co2   1  UNL1       -0.2457
     37 C         -24.3292    1.2424   26.8985 C.3     1  UNL1        0.0829
     38 C         -25.2448   -0.0309   29.0281 C.3     1  UNL1        0.1094
     39 F         -23.7311    0.7259   24.5643 F       1  UNL1       -0.2039
     40 C         -23.4389    1.4824   25.6361 C.3     1  UNL1        0.2696
     41 O         -27.5840   -0.3498   28.7522 O.co2   1  UNL1       -0.2457
@<TRIPOS>BOND
     1     1    38    1
     2     2     7    1
     3     2     1    1
     4     3     2    2
     5     4     3    1
     6     4     5    2
     7     5     6    1
     8     6     7    2
     9     8     1    1
    10     8     9    1
    11     8    12    1
    12     9    10    1
    13    10    11    1
    14    12    11    1
    15    14    13    1
    16    14    15    1
    17    15    18    2
    18    16    17    1
    19    16    15    1
    20    19    14    2
    21    20    21    2
    22    20    19    1
    23    21    26    1
    24    22    21    1
    25    23    22    1
    26    24    23    1
    27    24    25    1
    28    26    27    1
    29    26    13    2
    30    28    38    1
    31    29    36   ar
    32    32    40    1
    33    33    31    1
    34    33    34    1
    35    33    35    1
    36    34    30    1
    37    35    28    1
    38    35    30    1
    39    37    13    1
    40    37    35    1
    41    37    28    1
    42    38    29    1
    43    39    40    1
    44    40    31    1
    45    40    37    1
    46    41    29   ar
