@<TRIPOS>MOLECULE
outputs/IAG933/test6/raw/output_8790_IAG933_linker_design_.xyz
 46 50 0 0 0
SMALL
GASTEIGER

@<TRIPOS>ATOM
      1 C         -24.8550   -1.0120   30.1430 C.3     1  UNL1        0.1113
      2 C         -24.9730   -2.5050   29.7880 C.2     1  UNL1       -0.0030
      3 C         -23.9060   -3.1730   29.1460 C.2     1  UNL1       -0.0026
      4 C         -23.9890   -4.5490   28.8530 C.2     1  UNL1       -0.0003
      5 C         -25.1370   -5.2800   29.2050 C.2     1  UNL1       -0.0000
      6 C         -26.2320   -4.6110   29.7840 C.2     1  UNL1       -0.0003
      7 C         -26.1550   -3.2320   30.0650 C.2     1  UNL1       -0.0026
      8 C         -25.3870   -0.6790   31.5710 C.3     1  UNL1        0.0950
      9 C         -25.1890    0.7730   32.0280 C.3     1  UNL1        0.0209
     10 C         -25.3360    0.6840   33.5440 C.3     1  UNL1        0.0203
     11 C         -24.8290   -0.7150   33.9050 C.3     1  UNL1        0.0888
     12 N         -24.7580   -1.4810   32.6460 N.3     1  UNL1       -0.2174
     13 C         -25.6880    1.6140   26.4610 C.2     1  UNL1        0.0393
     14 C         -26.2500    2.9200   26.3950 C.2     1  UNL1        0.0766
     15 C         -25.6420    4.0930   27.1230 C.2     1  UNL1        0.2664
     16 N         -25.6140    5.2520   26.4490 N.am    1  UNL1       -0.1997
     17 C         -25.0260    6.4790   26.9630 C.3     1  UNL1        0.1388
     18 O         -25.1430    3.9660   28.2430 O.2     1  UNL1       -0.2683
     19 C         -27.4380    3.0910   25.6450 C.2     1  UNL1        0.1067
     20 N         -28.0750    2.0890   25.0030 N.2     1  UNL1       -0.2081
     21 C         -27.5430    0.8490   25.0790 C.2     1  UNL1        0.2533
     22 O         -28.1930   -0.2080   24.4770 O.2     1  UNL1       -0.4558
     23 C         -29.4600    0.0050   23.8660 C.3     1  UNL1        0.2426
     24 C         -30.0650   -1.3770   23.5730 C.3     1  UNL1        0.2292
     25 O         -30.7290   -1.8780   24.7210 O.3     1  UNL1       -0.2162
     26 C         -26.3540    0.5760   25.7770 C.2     1  UNL1        0.1931
     27 F         -25.8600   -0.6810   25.7950 F       1  UNL1       -0.1992
     28 S         -28.2280    1.4394   30.5292 S.3     1  UNL1       -0.0411
     29 O         -31.0382   -0.9609   30.2757 O.3     1  UNL1       -0.2017
     30 C         -24.2736    1.3869   27.0041 C.2     1  UNL1        0.0172
     31 C         -30.6658    0.4256   30.1253 C.3     1  UNL1        0.2231
     32 C         -26.2237   -0.2075   28.3464 C.3     1  UNL1        0.1028
     33 S         -29.0827    0.0003   27.9538 S.3     1  UNL1       -0.1237
     34 C         -29.3958    0.4177   29.5545 C.3     1  UNL1        0.1504
     35 C         -31.7489    1.0972   29.1863 C.3     1  UNL1        0.0576
     36 C         -21.8831    1.7585   26.6718 C.2     1  UNL1        0.0015
     37 C         -23.2129    1.9506   26.2458 C.2     1  UNL1        0.0014
     38 N         -25.0093   -0.0684   28.9910 N.pl3   1  UNL1       -0.3021
     39 C         -21.5511    0.9930   27.8197 C.2     1  UNL1        0.0193
     40 N         -30.6208    1.2874   31.3996 N.am    1  UNL1       -0.1680
     41 O         -28.8816    2.0694   32.8189 O.2     1  UNL1       -0.2611
     42 N         -22.1882   -0.1838   29.7666 N.pl3   1  UNL1       -0.1268
     43 C         -23.9622    0.6322   28.2099 C.2     1  UNL1        0.0651
     44 C         -22.5968    0.4676   28.6030 C.2     1  UNL1        0.1023
     45 C         -27.5494   -0.8726   28.2518 C.3     1  UNL1        0.0799
     46 C         -29.3207    1.6691   31.7037 C.2     1  UNL1        0.2950
@<TRIPOS>BOND
     1     1    38    1
     2     2     7    1
     3     2     1    1
     4     3     2    2
     5     4     3    1
     6     4     5    2
     7     5     6    1
     8     6     7    2
     9     8     1    1
    10     8     9    1
    11     8    12    1
    12     9    10    1
    13    10    11    1
    14    12    11    1
    15    13    30    1
    16    14    13    1
    17    14    15    1
    18    15    18    2
    19    16    17    1
    20    16    15    1
    21    19    14    2
    22    20    21    2
    23    20    19    1
    24    21    26    1
    25    22    21    1
    26    23    22    1
    27    24    23    1
    28    24    25    1
    29    26    27    1
    30    26    13    2
    31    28    46    1
    32    30    43    1
    33    31    35    1
    34    31    29    1
    35    31    40    1
    36    32    38    1
    37    33    45    1
    38    34    33    1
    39    34    31    1
    40    34    28    1
    41    36    39    2
    42    37    36    1
    43    37    30    2
    44    39    44    1
    45    40    46    1
    46    43    44    2
    47    43    38    1
    48    44    42    1
    49    45    32    1
    50    46    41    2
