@<TRIPOS>MOLECULE
outputs/IAG933/test6/raw/output_8792_IAG933_linker_design_.xyz
 39 43 0 0 0
SMALL
GASTEIGER

@<TRIPOS>ATOM
      1 C         -24.8550   -1.0120   30.1430 C.3     1  UNL1        0.1579
      2 C         -24.9730   -2.5050   29.7880 C.2     1  UNL1        0.0009
      3 C         -23.9060   -3.1730   29.1460 C.2     1  UNL1       -0.0025
      4 C         -23.9890   -4.5490   28.8530 C.2     1  UNL1       -0.0003
      5 C         -25.1370   -5.2800   29.2050 C.2     1  UNL1       -0.0000
      6 C         -26.2320   -4.6110   29.7840 C.2     1  UNL1       -0.0003
      7 C         -26.1550   -3.2320   30.0650 C.2     1  UNL1       -0.0025
      8 C         -25.3870   -0.6790   31.5710 C.3     1  UNL1        0.0991
      9 C         -25.1890    0.7730   32.0280 C.3     1  UNL1        0.0210
     10 C         -25.3360    0.6840   33.5440 C.3     1  UNL1        0.0203
     11 C         -24.8290   -0.7150   33.9050 C.3     1  UNL1        0.0888
     12 N         -24.7580   -1.4810   32.6460 N.3     1  UNL1       -0.2173
     13 C         -25.6880    1.6140   26.4610 C.3     1  UNL1        0.0946
     14 C         -26.2500    2.9200   26.3950 C.2     1  UNL1        0.0590
     15 C         -25.6420    4.0930   27.1230 C.2     1  UNL1        0.2628
     16 N         -25.6140    5.2520   26.4490 N.am    1  UNL1       -0.2000
     17 C         -25.0260    6.4790   26.9630 C.3     1  UNL1        0.1388
     18 O         -25.1430    3.9660   28.2430 O.2     1  UNL1       -0.2686
     19 C         -27.4380    3.0910   25.6450 C.2     1  UNL1        0.1025
     20 N         -28.0750    2.0890   25.0030 N.2     1  UNL1       -0.2118
     21 C         -27.5430    0.8490   25.0790 C.2     1  UNL1        0.2344
     22 O         -28.1930   -0.2080   24.4770 O.2     1  UNL1       -0.4585
     23 C         -29.4600    0.0050   23.8660 C.3     1  UNL1        0.2423
     24 C         -30.0650   -1.3770   23.5730 C.3     1  UNL1        0.2292
     25 O         -30.7290   -1.8780   24.7210 O.3     1  UNL1       -0.2162
     26 C         -26.3540    0.5760   25.7770 C.3     1  UNL1        0.2441
     27 F         -25.8600   -0.6810   25.7950 F       1  UNL1       -0.2265
     28 C         -24.8009    1.2525   27.5298 C.2     1  UNL1        0.0202
     29 N         -24.3371    0.0068   29.3147 N.pl3   1  UNL1       -0.1063
     30 C         -26.5958    0.4883   28.9242 C.1     1  UNL1        0.1186
     31 C         -21.2971    1.9745   26.9015 C.2     1  UNL1        0.2475
     32 C         -25.1953    0.5889   28.6434 C.2     1  UNL1        0.1562
     33 N         -23.2035    0.3878   29.4950 N.2     1  UNL1        0.0556
     34 CL        -23.0666    2.7175   24.9667 Cl      1  UNL1       -0.0780
     35 C         -22.6431    1.0273   28.4056 C.2     1  UNL1        0.3979
     36 N         -21.2933    1.3549   28.0939 N.2     1  UNL1       -0.0279
     37 C         -23.4360    1.4690   27.4232 C.2     1  UNL1        0.1031
     38 C         -22.5784    2.0908   26.4775 C.2     1  UNL1        0.1116
     39 N         -27.7705    0.2433   29.1701 N.1     1  UNL1       -0.1894
@<TRIPOS>BOND
     1     1     2    1
     2     2     7    1
     3     3     2    2
     4     4     3    1
     5     4     5    2
     6     5     6    1
     7     6     7    2
     8     8     1    1
     9     8     9    1
    10     8    12    1
    11     9    10    1
    12    10    11    1
    13    12    11    1
    14    13    28    1
    15    14    13    1
    16    14    15    1
    17    15    18    2
    18    16    17    1
    19    16    15    1
    20    19    14    2
    21    20    21    2
    22    20    19    1
    23    21    26    1
    24    22    21    1
    25    23    22    1
    26    24    23    1
    27    24    25    1
    28    26    27    1
    29    26    13    1
    30    28    32    2
    31    29    33    1
    32    29     1    1
    33    30    39    3
    34    31    36    2
    35    32    30    1
    36    32    29    1
    37    34    38    1
    38    35    33    2
    39    36    35    1
    40    37    28    1
    41    37    35    1
    42    38    31    1
    43    38    37    2
