@<TRIPOS>MOLECULE
outputs/IAG933/test6/raw/output_8795_IAG933_linker_design_.xyz
 42 45 0 0 0
SMALL
GASTEIGER

@<TRIPOS>ATOM
      1 C         -24.8550   -1.0120   30.1430 C.3     1  UNL1        0.1304
      2 C         -24.9730   -2.5050   29.7880 C.2     1  UNL1       -0.0015
      3 C         -23.9060   -3.1730   29.1460 C.2     1  UNL1       -0.0026
      4 C         -23.9890   -4.5490   28.8530 C.2     1  UNL1       -0.0003
      5 C         -25.1370   -5.2800   29.2050 C.2     1  UNL1       -0.0000
      6 C         -26.2320   -4.6110   29.7840 C.2     1  UNL1       -0.0003
      7 C         -26.1550   -3.2320   30.0650 C.2     1  UNL1       -0.0026
      8 C         -25.3870   -0.6790   31.5710 C.3     1  UNL1        0.0966
      9 C         -25.1890    0.7730   32.0280 C.3     1  UNL1        0.0210
     10 C         -25.3360    0.6840   33.5440 C.3     1  UNL1        0.0203
     11 C         -24.8290   -0.7150   33.9050 C.3     1  UNL1        0.0888
     12 N         -24.7580   -1.4810   32.6460 N.3     1  UNL1       -0.2174
     13 C         -25.6880    1.6140   26.4610 C.3     1  UNL1        0.0903
     14 C         -26.2500    2.9200   26.3950 C.2     1  UNL1        0.0565
     15 C         -25.6420    4.0930   27.1230 C.2     1  UNL1        0.2625
     16 N         -25.6140    5.2520   26.4490 N.am    1  UNL1       -0.2000
     17 C         -25.0260    6.4790   26.9630 C.3     1  UNL1        0.1388
     18 O         -25.1430    3.9660   28.2430 O.2     1  UNL1       -0.2687
     19 C         -27.4380    3.0910   25.6450 C.2     1  UNL1        0.1022
     20 N         -28.0750    2.0890   25.0030 N.2     1  UNL1       -0.2119
     21 C         -27.5430    0.8490   25.0790 C.2     1  UNL1        0.2341
     22 O         -28.1930   -0.2080   24.4770 O.2     1  UNL1       -0.4585
     23 C         -29.4600    0.0050   23.8660 C.3     1  UNL1        0.2423
     24 C         -30.0650   -1.3770   23.5730 C.3     1  UNL1        0.2292
     25 O         -30.7290   -1.8780   24.7210 O.3     1  UNL1       -0.2162
     26 C         -26.3540    0.5760   25.7770 C.3     1  UNL1        0.2417
     27 F         -25.8600   -0.6810   25.7950 F       1  UNL1       -0.2268
     28 C         -24.6716    1.5037   27.4598 C.3     1  UNL1        0.1039
     29 N         -25.1851    1.1059   28.7718 N.3     1  UNL1       -0.1982
     30 F         -21.2002    0.9217   27.5974 F       1  UNL1       -0.2000
     31 C         -23.0545    0.1101   28.9911 C.2     1  UNL1        0.2895
     32 C         -27.5000    2.2130   30.9301 C.3     1  UNL1        0.0868
     33 S         -27.7652    3.8893   31.4062 S.3     1  UNL1       -0.0689
     34 C         -23.4067    1.6798   27.0598 C.2     1  UNL1        0.0044
     35 N         -24.4323    0.0991   29.2492 N.am    1  UNL1       -0.2118
     36 C         -22.5840    0.9486   27.8769 C.2     1  UNL1        0.1880
     37 O         -27.5513    4.2066   32.8165 O.3     1  UNL1       -0.1709
     38 C         -26.7027    4.9850   30.5685 C.3     1  UNL1        0.0801
     39 O         -22.2003   -0.5420   29.6078 O.2     1  UNL1       -0.2661
     40 C         -26.3627    2.0004   29.6647 C.3     1  UNL1        0.1048
     41 C         -29.3670    4.1552   30.8609 C.3     1  UNL1        0.0801
     42 C         -22.9371    2.3687   25.7763 C.3     1  UNL1        0.0303
@<TRIPOS>BOND
     1     1     2    1
     2     2     7    1
     3     3     2    2
     4     4     3    1
     5     4     5    2
     6     5     6    1
     7     6     7    2
     8     8     1    1
     9     8     9    1
    10     8    12    1
    11     9    10    1
    12    10    11    1
    13    12    11    1
    14    13    14    1
    15    13    28    1
    16    14    15    1
    17    15    18    2
    18    16    17    1
    19    16    15    1
    20    19    14    2
    21    20    21    2
    22    20    19    1
    23    21    26    1
    24    22    21    1
    25    23    22    1
    26    24    23    1
    27    24    25    1
    28    26    27    1
    29    26    13    1
    30    28    34    1
    31    28    29    1
    32    29    35    1
    33    29    40    1
    34    30    36    1
    35    31    35   am
    36    31    39    2
    37    32    33    1
    38    33    37    1
    39    34    36    2
    40    35     1    1
    41    36    31    1
    42    38    33    1
    43    40    32    1
    44    41    33    1
    45    42    34    1
