@<TRIPOS>MOLECULE
outputs/IAG933/test6/raw/output_8796_IAG933_linker_design_.xyz
 45 49 0 0 0
SMALL
GASTEIGER

@<TRIPOS>ATOM
      1 C         -24.8550   -1.0120   30.1430 C.3     1  UNL1        0.0384
      2 C         -24.9730   -2.5050   29.7880 C.2     1  UNL1       -0.0212
      3 C         -23.9060   -3.1730   29.1460 C.2     1  UNL1       -0.0042
      4 C         -23.9890   -4.5490   28.8530 C.2     1  UNL1       -0.0003
      5 C         -25.1370   -5.2800   29.2050 C.2     1  UNL1       -0.0000
      6 C         -26.2320   -4.6110   29.7840 C.2     1  UNL1       -0.0003
      7 C         -26.1550   -3.2320   30.0650 C.2     1  UNL1       -0.0042
      8 C         -25.3870   -0.6790   31.5710 C.3     1  UNL1        0.0768
      9 C         -25.1890    0.7730   32.0280 C.3     1  UNL1        0.0192
     10 C         -25.3360    0.6840   33.5440 C.3     1  UNL1        0.0202
     11 C         -24.8290   -0.7150   33.9050 C.3     1  UNL1        0.0887
     12 N         -24.7580   -1.4810   32.6460 N.3     1  UNL1       -0.2191
     13 C         -25.6880    1.6140   26.4610 C.2     1  UNL1        0.0156
     14 C         -26.2500    2.9200   26.3950 C.2     1  UNL1        0.0726
     15 C         -25.6420    4.0930   27.1230 C.2     1  UNL1        0.2661
     16 N         -25.6140    5.2520   26.4490 N.am    1  UNL1       -0.1997
     17 C         -25.0260    6.4790   26.9630 C.3     1  UNL1        0.1388
     18 O         -25.1430    3.9660   28.2430 O.2     1  UNL1       -0.2683
     19 C         -27.4380    3.0910   25.6450 C.2     1  UNL1        0.1064
     20 N         -28.0750    2.0890   25.0030 N.2     1  UNL1       -0.2081
     21 C         -27.5430    0.8490   25.0790 C.2     1  UNL1        0.2530
     22 O         -28.1930   -0.2080   24.4770 O.2     1  UNL1       -0.4558
     23 C         -29.4600    0.0050   23.8660 C.3     1  UNL1        0.2426
     24 C         -30.0650   -1.3770   23.5730 C.3     1  UNL1        0.2292
     25 O         -30.7290   -1.8780   24.7210 O.3     1  UNL1       -0.2162
     26 C         -26.3540    0.5760   25.7770 C.2     1  UNL1        0.1891
     27 F         -25.8600   -0.6810   25.7950 F       1  UNL1       -0.1996
     28 C         -23.2497    1.1894   26.5670 C.3     1  UNL1        0.0042
     29 C         -29.6803    2.9424   32.3967 C.3     1  UNL1        0.0774
     30 C         -24.5452    1.2566   27.3470 C.3     1  UNL1        0.0266
     31 C         -24.9494    0.1524   28.2552 C.3     1  UNL1        0.0262
     32 C         -28.4893    3.8951   34.2975 C.3     1  UNL1        0.1453
     33 C         -23.1103    2.3814   25.5982 C.3     1  UNL1        0.0003
     34 N         -28.3817    2.5965   31.7887 N.3     1  UNL1       -0.2395
     35 O         -29.5514    1.1187   29.2502 O.2     1  UNL1       -0.2718
     36 C         -27.1580    3.1175   32.3090 C.3     1  UNL1        0.2203
     37 C         -23.9622   -0.1006   29.2887 C.3     1  UNL1        0.0074
     38 C         -28.2889    2.7708   30.3295 C.3     1  UNL1        0.1621
     39 C         -28.4253    1.4648   29.6127 C.2     1  UNL1        0.2578
     40 O         -27.2864    3.8100   33.5109 O.3     1  UNL1       -0.3373
     41 C         -29.6560    4.1951   33.3656 C.3     1  UNL1        0.0495
     42 N         -27.3202    0.6828   29.2358 N.am    1  UNL1       -0.2042
     43 C         -22.6958    0.8088   28.8984 C.3     1  UNL1        0.0004
     44 C         -22.2651    1.2010   27.5913 C.3     1  UNL1        0.0003
     45 C         -26.4411   -0.1417   28.4435 C.3     1  UNL1        0.1155
@<TRIPOS>BOND
     1     1     2    1
     2     2     7    1
     3     3     2    2
     4     4     3    1
     5     4     5    2
     6     5     6    1
     7     6     7    2
     8     8     1    1
     9     8     9    1
    10     8    12    1
    11     9    10    1
    12    10    11    1
    13    12    11    1
    14    14    13    1
    15    14    15    1
    16    15    18    2
    17    16    17    1
    18    16    15    1
    19    19    14    2
    20    20    21    2
    21    20    19    1
    22    21    26    1
    23    22    21    1
    24    23    22    1
    25    24    23    1
    26    24    25    1
    27    26    27    1
    28    26    13    2
    29    28    33    1
    30    28    30    1
    31    28    44    1
    32    29    41    1
    33    30    13    1
    34    30    31    1
    35    31    45    1
    36    31    37    1
    37    34    36    1
    38    34    29    1
    39    35    39    2
    40    36    40    1
    41    37     1    1
    42    38    34    1
    43    39    38    1
    44    40    32    1
    45    41    32    1
    46    42    39    1
    47    43    37    1
    48    44    43    1
    49    45    42    1
