@<TRIPOS>MOLECULE
outputs/IAG933/test6/raw/output_8802_IAG933_linker_design_.xyz
 45 49 0 0 0
SMALL
GASTEIGER

@<TRIPOS>ATOM
      1 C         -24.8550   -1.0120   30.1430 C.3     1  UNL1        0.0965
      2 C         -24.9730   -2.5050   29.7880 C.2     1  UNL1       -0.0064
      3 C         -23.9060   -3.1730   29.1460 C.2     1  UNL1       -0.0029
      4 C         -23.9890   -4.5490   28.8530 C.2     1  UNL1       -0.0003
      5 C         -25.1370   -5.2800   29.2050 C.2     1  UNL1       -0.0000
      6 C         -26.2320   -4.6110   29.7840 C.2     1  UNL1       -0.0003
      7 C         -26.1550   -3.2320   30.0650 C.2     1  UNL1       -0.0029
      8 C         -25.3870   -0.6790   31.5710 C.3     1  UNL1        0.0916
      9 C         -25.1890    0.7730   32.0280 C.3     1  UNL1        0.0206
     10 C         -25.3360    0.6840   33.5440 C.3     1  UNL1        0.0203
     11 C         -24.8290   -0.7150   33.9050 C.3     1  UNL1        0.0888
     12 N         -24.7580   -1.4810   32.6460 N.3     1  UNL1       -0.2178
     13 C         -25.6880    1.6140   26.4610 C.3     1  UNL1        0.0732
     14 C         -26.2500    2.9200   26.3950 C.2     1  UNL1        0.0549
     15 C         -25.6420    4.0930   27.1230 C.2     1  UNL1        0.2624
     16 N         -25.6140    5.2520   26.4490 N.am    1  UNL1       -0.2000
     17 C         -25.0260    6.4790   26.9630 C.3     1  UNL1        0.1388
     18 O         -25.1430    3.9660   28.2430 O.2     1  UNL1       -0.2687
     19 C         -27.4380    3.0910   25.6450 C.2     1  UNL1        0.1021
     20 N         -28.0750    2.0890   25.0030 N.2     1  UNL1       -0.2119
     21 C         -27.5430    0.8490   25.0790 C.2     1  UNL1        0.2341
     22 O         -28.1930   -0.2080   24.4770 O.2     1  UNL1       -0.4585
     23 C         -29.4600    0.0050   23.8660 C.3     1  UNL1        0.2423
     24 C         -30.0650   -1.3770   23.5730 C.3     1  UNL1        0.2292
     25 O         -30.7290   -1.8780   24.7210 O.3     1  UNL1       -0.2162
     26 C         -26.3540    0.5760   25.7770 C.3     1  UNL1        0.2401
     27 F         -25.8600   -0.6810   25.7950 F       1  UNL1       -0.2269
     28 F         -29.6356    0.0809   26.8573 F       1  UNL1       -0.2190
     29 C         -22.2930    1.8725   26.4903 C.1     1  UNL1       -0.0699
     30 C         -23.9078    0.1716   27.9841 C.3     1  UNL1        0.1186
     31 C         -22.5527    2.2947   25.3132 C.1     1  UNL1       -0.0137
     32 C         -22.6688    0.5179   28.5856 C.2     1  UNL1        0.1781
     33 C         -24.7843    1.3766   27.5526 C.3     1  UNL1        0.0453
     34 C         -29.5905    0.6027   28.1559 C.3     1  UNL1        0.2244
     35 C         -31.8591    0.2904   28.5923 C.3     1  UNL1        0.1863
     36 O         -22.4115    0.2117   29.7625 O.2     1  UNL1       -0.2936
     37 N         -24.7893   -0.0164   29.0878 N.3     1  UNL1       -0.2642
     38 N         -28.1836    0.3303   28.5099 N.3     1  UNL1       -0.2451
     39 O         -32.1888   -0.3178   27.3443 O.3     1  UNL1       -0.2203
     40 C         -29.5532   -0.5625   30.1537 C.3     1  UNL1        0.0242
     41 C         -27.1125    1.3303   28.6820 C.3     1  UNL1        0.0904
     42 C         -21.6327    1.1922   27.6079 C.3     1  UNL1        0.1426
     43 C         -30.4115   -0.2343   28.9128 C.3     1  UNL1        0.0828
     44 C         -25.7102    0.8273   28.8505 C.3     1  UNL1        0.0762
     45 C         -28.1966   -0.8069   29.4430 C.3     1  UNL1        0.0748
@<TRIPOS>BOND
     1     1     2    1
     2     2     7    1
     3     3     2    2
     4     4     3    1
     5     4     5    2
     6     5     6    1
     7     6     7    2
     8     8     1    1
     9     8     9    1
    10     8    12    1
    11     9    10    1
    12    10    11    1
    13    12    11    1
    14    13    14    1
    15    14    15    1
    16    15    18    2
    17    16    17    1
    18    16    15    1
    19    19    14    2
    20    20    21    2
    21    20    19    1
    22    21    26    1
    23    22    21    1
    24    23    22    1
    25    24    23    1
    26    24    25    1
    27    26    27    1
    28    26    13    1
    29    29    42    1
    30    30    32    1
    31    30    37    1
    32    31    29    3
    33    32    36    2
    34    33    13    1
    35    33    30    1
    36    33    44    1
    37    34    28    1
    38    34    38    1
    39    34    43    1
    40    37     1    1
    41    38    41    1
    42    38    45    1
    43    39    35    1
    44    42    32    1
    45    43    35    1
    46    43    40    1
    47    44    41    1
    48    44    37    1
    49    45    40    1
