@<TRIPOS>MOLECULE
outputs/IAG933/test6/raw/output_8806_IAG933_linker_design_.xyz
 41 44 0 0 0
SMALL
GASTEIGER

@<TRIPOS>ATOM
      1 C         -24.8550   -1.0120   30.1430 C.3     1  UNL1        0.0626
      2 C         -24.9730   -2.5050   29.7880 C.2     1  UNL1       -0.0191
      3 C         -23.9060   -3.1730   29.1460 C.2     1  UNL1       -0.0042
      4 C         -23.9890   -4.5490   28.8530 C.2     1  UNL1       -0.0003
      5 C         -25.1370   -5.2800   29.2050 C.2     1  UNL1       -0.0000
      6 C         -26.2320   -4.6110   29.7840 C.2     1  UNL1       -0.0003
      7 C         -26.1550   -3.2320   30.0650 C.2     1  UNL1       -0.0042
      8 C         -25.3870   -0.6790   31.5710 C.3     1  UNL1        0.0788
      9 C         -25.1890    0.7730   32.0280 C.3     1  UNL1        0.0193
     10 C         -25.3360    0.6840   33.5440 C.3     1  UNL1        0.0202
     11 C         -24.8290   -0.7150   33.9050 C.3     1  UNL1        0.0887
     12 N         -24.7580   -1.4810   32.6460 N.3     1  UNL1       -0.2191
     13 C         -25.6880    1.6140   26.4610 C.2     1  UNL1        0.0537
     14 C         -26.2500    2.9200   26.3950 C.2     1  UNL1        0.0779
     15 C         -25.6420    4.0930   27.1230 C.2     1  UNL1        0.2665
     16 N         -25.6140    5.2520   26.4490 N.am    1  UNL1       -0.1997
     17 C         -25.0260    6.4790   26.9630 C.3     1  UNL1        0.1388
     18 O         -25.1430    3.9660   28.2430 O.2     1  UNL1       -0.2683
     19 C         -27.4380    3.0910   25.6450 C.2     1  UNL1        0.1068
     20 N         -28.0750    2.0890   25.0030 N.2     1  UNL1       -0.2081
     21 C         -27.5430    0.8490   25.0790 C.2     1  UNL1        0.2533
     22 O         -28.1930   -0.2080   24.4770 O.2     1  UNL1       -0.4558
     23 C         -29.4600    0.0050   23.8660 C.3     1  UNL1        0.2426
     24 C         -30.0650   -1.3770   23.5730 C.3     1  UNL1        0.2292
     25 O         -30.7290   -1.8780   24.7210 O.3     1  UNL1       -0.2162
     26 C         -26.3540    0.5760   25.7770 C.2     1  UNL1        0.1944
     27 F         -25.8600   -0.6810   25.7950 F       1  UNL1       -0.1992
     28 C         -24.4180    1.3212   27.0665 C.ar    1  UNL1        0.0641
     29 C         -22.8976    2.4311   25.3970 C.3     1  UNL1        0.1327
     30 N         -28.0865    1.5709   30.5551 N.3     1  UNL1       -0.1210
     31 C         -28.6767    0.2236   30.1145 C.3     1  UNL1        0.1956
     32 C         -22.1079    1.1352   27.5059 C.ar    1  UNL1        0.2313
     33 N         -23.1800    1.6628   26.6083 N.ar    1  UNL1       -0.3011
     34 O         -28.7620   -0.3172   27.8704 O.2     1  UNL1       -0.2717
     35 C         -28.0628   -0.1461   28.8664 C.2     1  UNL1        0.2611
     36 N         -26.6809   -0.1714   28.7785 N.am    1  UNL1       -0.2009
     37 C         -22.9007    0.5124   28.5853 C.ar    1  UNL1        0.1831
     38 C         -25.3403   -0.1386   29.0761 C.3     1  UNL1        0.1265
     39 C         -24.2927    0.5260   28.2927 C.ar    1  UNL1        0.0450
     40 F         -20.9414    1.1713   27.3523 F       1  UNL1       -0.1825
     41 F         -22.3036    0.0217   29.6131 F       1  UNL1       -0.2004
@<TRIPOS>BOND
     1     1    38    1
     2     2     7    1
     3     2     1    1
     4     3     2    2
     5     4     3    1
     6     4     5    2
     7     5     6    1
     8     6     7    2
     9     8     1    1
    10     8     9    1
    11     8    12    1
    12     9    10    1
    13    10    11    1
    14    12    11    1
    15    13    28    1
    16    14    13    1
    17    14    15    1
    18    15    18    2
    19    16    17    1
    20    16    15    1
    21    19    14    2
    22    20    21    2
    23    20    19    1
    24    21    26    1
    25    22    21    1
    26    23    22    1
    27    24    23    1
    28    24    25    1
    29    26    27    1
    30    26    13    2
    31    28    39   ar
    32    29    33    1
    33    31    30    1
    34    32    37   ar
    35    33    28   ar
    36    33    32   ar
    37    34    35    2
    38    35    31    1
    39    36    35    1
    40    37    41    1
    41    38    36    1
    42    39    37   ar
    43    39    38    1
    44    40    32    1
