@<TRIPOS>MOLECULE
outputs/IAG933/test6/raw/output_8808_IAG933_linker_design_.xyz
 44 49 0 0 0
SMALL
GASTEIGER

@<TRIPOS>ATOM
      1 C         -24.8550   -1.0120   30.1430 C.3     1  UNL1        0.1154
      2 C         -24.9730   -2.5050   29.7880 C.2     1  UNL1       -0.0027
      3 C         -23.9060   -3.1730   29.1460 C.2     1  UNL1       -0.0026
      4 C         -23.9890   -4.5490   28.8530 C.2     1  UNL1       -0.0003
      5 C         -25.1370   -5.2800   29.2050 C.2     1  UNL1       -0.0000
      6 C         -26.2320   -4.6110   29.7840 C.2     1  UNL1       -0.0003
      7 C         -26.1550   -3.2320   30.0650 C.2     1  UNL1       -0.0026
      8 C         -25.3870   -0.6790   31.5710 C.3     1  UNL1        0.0954
      9 C         -25.1890    0.7730   32.0280 C.3     1  UNL1        0.0209
     10 C         -25.3360    0.6840   33.5440 C.3     1  UNL1        0.0203
     11 C         -24.8290   -0.7150   33.9050 C.3     1  UNL1        0.0888
     12 N         -24.7580   -1.4810   32.6460 N.3     1  UNL1       -0.2174
     13 C         -25.6880    1.6140   26.4610 C.3     1  UNL1        0.0779
     14 C         -26.2500    2.9200   26.3950 C.2     1  UNL1        0.0552
     15 C         -25.6420    4.0930   27.1230 C.2     1  UNL1        0.2625
     16 N         -25.6140    5.2520   26.4490 N.am    1  UNL1       -0.2000
     17 C         -25.0260    6.4790   26.9630 C.3     1  UNL1        0.1388
     18 O         -25.1430    3.9660   28.2430 O.2     1  UNL1       -0.2687
     19 C         -27.4380    3.0910   25.6450 C.2     1  UNL1        0.1022
     20 N         -28.0750    2.0890   25.0030 N.2     1  UNL1       -0.2119
     21 C         -27.5430    0.8490   25.0790 C.2     1  UNL1        0.2341
     22 O         -28.1930   -0.2080   24.4770 O.2     1  UNL1       -0.4585
     23 C         -29.4600    0.0050   23.8660 C.3     1  UNL1        0.2423
     24 C         -30.0650   -1.3770   23.5730 C.3     1  UNL1        0.2292
     25 O         -30.7290   -1.8780   24.7210 O.3     1  UNL1       -0.2162
     26 C         -26.3540    0.5760   25.7770 C.3     1  UNL1        0.2404
     27 F         -25.8600   -0.6810   25.7950 F       1  UNL1       -0.2269
     28 C         -22.2398    1.8261   27.0440 C.2     1  UNL1        0.1358
     29 C         -26.6409    1.4341   29.4615 C.2     1  UNL1       -0.0066
     30 C         -23.4973    0.3404   28.5590 C.2     1  UNL1        0.0508
     31 C         -23.4509    1.2042   27.5160 C.2     1  UNL1        0.0291
     32 O         -22.4005    2.3926   25.7327 O.2     1  UNL1       -0.4754
     33 C         -20.9309    1.5303   27.6353 C.2     1  UNL1        0.0367
     34 C         -29.4754    0.5806   28.9561 C.2     1  UNL1       -0.0042
     35 C         -28.6937   -0.5309   28.5815 C.2     1  UNL1        0.0009
     36 C         -27.2968   -0.7200   28.4501 C.2     1  UNL1        0.0145
     37 C         -27.7579    2.1032   29.7650 C.3     1  UNL1        0.0533
     38 N         -24.8810   -0.1314   29.0305 N.pl3   1  UNL1       -0.2835
     39 C         -21.0407    0.5642   28.6656 C.2     1  UNL1        0.0044
     40 C         -22.2685   -0.0811   29.0814 C.2     1  UNL1        0.0147
     41 C         -26.2834    0.1573   29.0031 C.2     1  UNL1        0.0478
     42 C         -24.3183    1.4131   26.6436 C.3     1  UNL1        0.0776
     43 C         -23.5582    1.6830   25.4966 C.3     1  UNL1        0.2102
     44 C         -29.0546    1.7304   29.5060 C.2     1  UNL1       -0.0214
@<TRIPOS>BOND
     1     1    38    1
     2     2     7    1
     3     2     1    1
     4     3     2    2
     5     4     3    1
     6     4     5    2
     7     5     6    1
     8     6     7    2
     9     8     1    1
    10     8     9    1
    11     8    12    1
    12     9    10    1
    13    10    11    1
    14    12    11    1
    15    13    14    1
    16    13    42    1
    17    14    15    1
    18    15    18    2
    19    16    17    1
    20    16    15    1
    21    19    14    2
    22    20    21    2
    23    20    19    1
    24    21    26    1
    25    22    21    1
    26    23    22    1
    27    24    23    1
    28    24    25    1
    29    26    27    1
    30    26    13    1
    31    28    31    2
    32    28    33    1
    33    29    37    1
    34    30    38    1
    35    30    40    2
    36    31    30    1
    37    32    28    1
    38    33    39    2
    39    34    44    2
    40    35    34    1
    41    36    35    2
    42    36    41    1
    43    39    40    1
    44    41    38    1
    45    41    29    2
    46    42    43    1
    47    42    31    1
    48    43    32    1
    49    44    37    1
