@<TRIPOS>MOLECULE
outputs/IAG933/test6/raw/output_8811_IAG933_linker_design_.xyz
 41 43 0 0 0
SMALL
GASTEIGER

@<TRIPOS>ATOM
      1 C         -24.8550   -1.0120   30.1430 C.3     1  UNL1        0.0582
      2 C         -24.9730   -2.5050   29.7880 C.2     1  UNL1       -0.0195
      3 C         -23.9060   -3.1730   29.1460 C.2     1  UNL1       -0.0042
      4 C         -23.9890   -4.5490   28.8530 C.2     1  UNL1       -0.0003
      5 C         -25.1370   -5.2800   29.2050 C.2     1  UNL1       -0.0000
      6 C         -26.2320   -4.6110   29.7840 C.2     1  UNL1       -0.0003
      7 C         -26.1550   -3.2320   30.0650 C.2     1  UNL1       -0.0042
      8 C         -25.3870   -0.6790   31.5710 C.3     1  UNL1        0.0785
      9 C         -25.1890    0.7730   32.0280 C.3     1  UNL1        0.0192
     10 C         -25.3360    0.6840   33.5440 C.3     1  UNL1        0.0202
     11 C         -24.8290   -0.7150   33.9050 C.3     1  UNL1        0.0887
     12 N         -24.7580   -1.4810   32.6460 N.3     1  UNL1       -0.2191
     13 C         -25.6880    1.6140   26.4610 C.2     1  UNL1        0.0407
     14 C         -26.2500    2.9200   26.3950 C.2     1  UNL1        0.0744
     15 C         -25.6420    4.0930   27.1230 C.2     1  UNL1        0.2219
     16 N         -25.6140    5.2520   26.4490 N.2     1  UNL1       -0.2357
     17 C         -25.0260    6.4790   26.9630 C.3     1  UNL1        0.1550
     18 O         -25.1430    3.9660   28.2430 O.2     1  UNL1       -0.4624
     19 C         -27.4380    3.0910   25.6450 C.2     1  UNL1        0.1068
     20 N         -28.0750    2.0890   25.0030 N.2     1  UNL1       -0.2081
     21 C         -27.5430    0.8490   25.0790 C.2     1  UNL1        0.2533
     22 O         -28.1930   -0.2080   24.4770 O.2     1  UNL1       -0.4558
     23 C         -29.4600    0.0050   23.8660 C.3     1  UNL1        0.2426
     24 C         -30.0650   -1.3770   23.5730 C.3     1  UNL1        0.2292
     25 O         -30.7290   -1.8780   24.7210 O.3     1  UNL1       -0.2162
     26 C         -26.3540    0.5760   25.7770 C.2     1  UNL1        0.1931
     27 F         -25.8600   -0.6810   25.7950 F       1  UNL1       -0.1992
     28 C         -22.8517    0.7175   28.5417 C.2     1  UNL1        0.3294
     29 O         -20.7201    1.5462   27.9347 O.co2   1  UNL1       -0.2354
     30 C         -24.3271    2.3369   29.8000 C.3     1  UNL1        0.1373
     31 C         -24.5903    4.6272   31.9529 C.3     1  UNL1        0.1372
     32 C         -25.2510    3.4762   29.5860 C.3     1  UNL1        0.1878
     33 C         -25.1326    0.0235   29.0632 C.3     1  UNL1        0.0997
     34 N         -24.1893    1.1597   28.9813 N.am    1  UNL1       -0.2666
     35 C         -25.1673    5.6044   33.0335 C.2     1  UNL1        0.4539
     36 N         -25.0503    7.0053   32.5631 N.pl3   1  UNL1        0.1994
     37 O         -22.2029   -0.1334   29.5381 O.2     1  UNL1       -0.2626
     38 C         -25.3512    4.7144   30.6202 C.3     1  UNL1        0.0587
     39 O         -22.1541    1.6727   26.3092 O.co2   1  UNL1       -0.2354
     40 C         -21.8407    1.3413   27.4765 C.2     1  UNL1        0.4404
     41 N         -24.9013    4.9742   34.3869 N.pl3   1  UNL1        0.1994
@<TRIPOS>BOND
     1     1    33    1
     2     2     7    1
     3     2     1    1
     4     3     2    2
     5     4     3    1
     6     4     5    2
     7     5     6    1
     8     6     7    2
     9     8     1    1
    10     8     9    1
    11     8    12    1
    12     9    10    1
    13    10    11    1
    14    12    11    1
    15    14    13    1
    16    14    15    1
    17    15    18    1
    18    16    17    1
    19    16    15    2
    20    18    32    1
    21    19    14    2
    22    20    21    2
    23    20    19    1
    24    21    26    1
    25    22    21    1
    26    23    22    1
    27    24    23    1
    28    24    25    1
    29    26    27    1
    30    26    13    2
    31    28    34   am
    32    28    37    2
    33    31    35    1
    34    32    30    1
    35    32    38    1
    36    34    33    1
    37    34    30    1
    38    35    41    1
    39    36    35    2
    40    38    31    1
    41    39    40   ar
    42    40    29   ar
    43    40    28    1
