@<TRIPOS>MOLECULE
outputs/IAG933/test6/raw/output_8814_IAG933_linker_design_.xyz
 42 46 0 0 0
SMALL
GASTEIGER

@<TRIPOS>ATOM
      1 C         -24.8550   -1.0120   30.1430 C.3     1  UNL1        0.0963
      2 C         -24.9730   -2.5050   29.7880 C.2     1  UNL1       -0.0064
      3 C         -23.9060   -3.1730   29.1460 C.2     1  UNL1       -0.0029
      4 C         -23.9890   -4.5490   28.8530 C.2     1  UNL1       -0.0003
      5 C         -25.1370   -5.2800   29.2050 C.2     1  UNL1       -0.0000
      6 C         -26.2320   -4.6110   29.7840 C.2     1  UNL1       -0.0003
      7 C         -26.1550   -3.2320   30.0650 C.2     1  UNL1       -0.0029
      8 C         -25.3870   -0.6790   31.5710 C.3     1  UNL1        0.0916
      9 C         -25.1890    0.7730   32.0280 C.3     1  UNL1        0.0206
     10 C         -25.3360    0.6840   33.5440 C.3     1  UNL1        0.0203
     11 C         -24.8290   -0.7150   33.9050 C.3     1  UNL1        0.0888
     12 N         -24.7580   -1.4810   32.6460 N.3     1  UNL1       -0.2178
     13 C         -25.6880    1.6140   26.4610 C.3     1  UNL1        0.0756
     14 C         -26.2500    2.9200   26.3950 C.2     1  UNL1        0.0552
     15 C         -25.6420    4.0930   27.1230 C.2     1  UNL1        0.2625
     16 N         -25.6140    5.2520   26.4490 N.am    1  UNL1       -0.2000
     17 C         -25.0260    6.4790   26.9630 C.3     1  UNL1        0.1388
     18 O         -25.1430    3.9660   28.2430 O.2     1  UNL1       -0.2687
     19 C         -27.4380    3.0910   25.6450 C.2     1  UNL1        0.1021
     20 N         -28.0750    2.0890   25.0030 N.2     1  UNL1       -0.2119
     21 C         -27.5430    0.8490   25.0790 C.2     1  UNL1        0.2341
     22 O         -28.1930   -0.2080   24.4770 O.2     1  UNL1       -0.4585
     23 C         -29.4600    0.0050   23.8660 C.3     1  UNL1        0.2423
     24 C         -30.0650   -1.3770   23.5730 C.3     1  UNL1        0.2292
     25 O         -30.7290   -1.8780   24.7210 O.3     1  UNL1       -0.2162
     26 C         -26.3540    0.5760   25.7770 C.3     1  UNL1        0.2404
     27 F         -25.8600   -0.6810   25.7950 F       1  UNL1       -0.2269
     28 C         -24.7074    1.1639   27.4456 C.3     1  UNL1        0.0484
     29 N         -22.7472    0.2643   29.0352 N.pl3   1  UNL1       -0.1309
     30 N         -21.5936    1.8994   26.1150 N.2     1  UNL1       -0.2629
     31 C         -26.6324    0.7738   29.0949 C.3     1  UNL1        0.1034
     32 C         -21.2212    1.3701   27.3444 C.3     1  UNL1        0.1695
     33 N         -25.7440   -0.3243   29.1479 N.3     1  UNL1       -0.2667
     34 C         -22.9197    1.7463   25.9159 C.2     1  UNL1        0.0904
     35 C         -22.3483    0.9093   27.9459 C.2     1  UNL1        0.0888
     36 C         -31.6025    0.8475   28.8558 C.3     1  UNL1        0.0001
     37 C         -29.1680    1.3428   28.9118 C.3     1  UNL1        0.0343
     38 O         -28.1805   -1.0541   29.3358 O.3     1  UNL1       -0.2217
     39 C         -30.2812    0.6164   28.1910 C.3     1  UNL1        0.0027
     40 C         -23.4254    1.2086   27.1014 C.2     1  UNL1        0.0126
     41 C         -24.8665    0.4451   28.4495 C.3     1  UNL1        0.0795
     42 C         -28.0945    0.2473   29.1650 C.3     1  UNL1        0.1678
@<TRIPOS>BOND
     1     1     2    1
     2     2     7    1
     3     3     2    2
     4     4     3    1
     5     4     5    2
     6     5     6    1
     7     6     7    2
     8     8     1    1
     9     8     9    1
    10     8    12    1
    11     9    10    1
    12    10    11    1
    13    12    11    1
    14    13    28    1
    15    14    13    1
    16    14    15    1
    17    15    18    2
    18    16    17    1
    19    16    15    1
    20    19    14    2
    21    20    21    2
    22    20    19    1
    23    21    26    1
    24    22    21    1
    25    23    22    1
    26    24    23    1
    27    24    25    1
    28    26    27    1
    29    26    13    1
    30    28    40    1
    31    30    32    1
    32    31    33    1
    33    31    42    1
    34    32    35    1
    35    33     1    1
    36    34    30    2
    37    34    40    1
    38    35    29    1
    39    37    42    1
    40    39    36    1
    41    39    37    1
    42    40    35    2
    43    41    28    1
    44    41    31    1
    45    41    33    1
    46    42    38    1
