@<TRIPOS>MOLECULE
No_882-gen_results/8p0m/2024-11-27-11-27-31/
 10 10 0 0 0
SMALL
GASTEIGER

@<TRIPOS>ATOM
      1 C         -28.0162   -0.8135   28.8779 C.ar    1  UNL1       -0.0003
      2 C         -28.4690   -0.7850   29.8287 C.ar    1  UNL1       -0.0000
      3 C         -26.5455   -0.8762   28.8500 C.ar    1  UNL1       -0.0043
      4 C         -25.8041   -1.0324   30.0571 C.ar    1  UNL1       -0.0228
      5 C         -26.5373   -1.0386   31.2171 C.ar    1  UNL1       -0.0043
      6 C         -27.8843   -0.9532   31.1862 C.ar    1  UNL1       -0.0003
      7 C         -24.4124   -1.2540   30.2305 C.3     1  UNL1        0.0189
      8 C         -23.6217   -0.3412   30.9760 C.3     1  UNL1        0.0044
      9 C         -23.6886   -1.3503   28.8438 C.3     1  UNL1        0.0044
     10 C         -24.1437   -2.7494   30.7408 C.3     1  UNL1        0.0044
@<TRIPOS>BOND
     1     4     7    1
     2     7     8    1
     3     7     9    1
     4     7    10    1
     5     1     2   ar
     6     2     6   ar
     7     6     5   ar
     8     5     4   ar
     9     4     3   ar
    10     3     1   ar
