@<TRIPOS>MOLECULE
outputs/IAG933/test6/raw/output_8821_IAG933_linker_design_.xyz
 43 46 0 0 0
SMALL
GASTEIGER

@<TRIPOS>ATOM
      1 C         -24.8550   -1.0120   30.1430 C.3     1  UNL1        0.0710
      2 C         -24.9730   -2.5050   29.7880 C.2     1  UNL1       -0.0184
      3 C         -23.9060   -3.1730   29.1460 C.2     1  UNL1       -0.0041
      4 C         -23.9890   -4.5490   28.8530 C.2     1  UNL1       -0.0003
      5 C         -25.1370   -5.2800   29.2050 C.2     1  UNL1       -0.0000
      6 C         -26.2320   -4.6110   29.7840 C.2     1  UNL1       -0.0003
      7 C         -26.1550   -3.2320   30.0650 C.2     1  UNL1       -0.0041
      8 C         -25.3870   -0.6790   31.5710 C.3     1  UNL1        0.0795
      9 C         -25.1890    0.7730   32.0280 C.3     1  UNL1        0.0193
     10 C         -25.3360    0.6840   33.5440 C.3     1  UNL1        0.0202
     11 C         -24.8290   -0.7150   33.9050 C.3     1  UNL1        0.0887
     12 N         -24.7580   -1.4810   32.6460 N.3     1  UNL1       -0.2190
     13 C         -25.6880    1.6140   26.4610 C.3     1  UNL1        0.1572
     14 C         -26.2500    2.9200   26.3950 C.2     1  UNL1        0.0720
     15 C         -25.6420    4.0930   27.1230 C.2     1  UNL1        0.2638
     16 N         -25.6140    5.2520   26.4490 N.am    1  UNL1       -0.2000
     17 C         -25.0260    6.4790   26.9630 C.3     1  UNL1        0.1388
     18 O         -25.1430    3.9660   28.2430 O.2     1  UNL1       -0.2686
     19 C         -27.4380    3.0910   25.6450 C.2     1  UNL1        0.1035
     20 N         -28.0750    2.0890   25.0030 N.2     1  UNL1       -0.2118
     21 C         -27.5430    0.8490   25.0790 C.2     1  UNL1        0.2356
     22 O         -28.1930   -0.2080   24.4770 O.2     1  UNL1       -0.4585
     23 C         -29.4600    0.0050   23.8660 C.3     1  UNL1        0.2423
     24 C         -30.0650   -1.3770   23.5730 C.3     1  UNL1        0.2292
     25 O         -30.7290   -1.8780   24.7210 O.3     1  UNL1       -0.2162
     26 C         -26.3540    0.5760   25.7770 C.3     1  UNL1        0.2570
     27 F         -25.8600   -0.6810   25.7950 F       1  UNL1       -0.2253
     28 C         -21.5113    0.2811   29.0618 C.2     1  UNL1        0.0983
     29 C         -20.6737    0.3452   28.1450 C.2     1  UNL1        0.0222
     30 N         -29.3500    0.6447   30.0562 N.3     1  UNL1       -0.0941
     31 O         -26.4054    0.2946   28.4111 O.3     1  UNL1       -0.3459
     32 C         -23.5140    1.2159   27.4491 C.3     1  UNL1        0.1896
     33 C         -27.5892   -0.5574   28.7722 C.3     1  UNL1        0.1951
     34 O         -23.7014    1.8717   25.3311 O.3     1  UNL1       -0.1326
     35 C         -28.7805    0.3719   28.7696 C.3     1  UNL1        0.2712
     36 C         -23.7483    0.4112   28.5391 C.2     1  UNL1        0.0863
     37 C         -25.1208    0.0833   29.1035 C.3     1  UNL1        0.1578
     38 N         -22.7461   -0.0574   29.3126 N.2     1  UNL1       -0.2484
     39 O         -29.8696   -0.3035   27.9503 O.3     1  UNL1       -0.1994
     40 O         -22.4710    2.2220   25.6930 O.3     1  UNL1       -0.1670
     41 F         -21.1760    2.2181   27.6277 F       1  UNL1       -0.1989
     42 N         -24.3231    1.5407   26.4397 N.3     1  UNL1       -0.1189
     43 C         -22.3655    1.9218   27.0043 C.3     1  UNL1        0.3335
@<TRIPOS>BOND
     1     1    37    1
     2     2     7    1
     3     2     1    1
     4     3     2    2
     5     4     3    1
     6     4     5    2
     7     5     6    1
     8     6     7    2
     9     8     1    1
    10     8     9    1
    11     8    12    1
    12     9    10    1
    13    10    11    1
    14    12    11    1
    15    13    14    1
    16    14    15    1
    17    15    18    2
    18    16    17    1
    19    16    15    1
    20    19    14    2
    21    20    21    2
    22    20    19    1
    23    21    26    1
    24    22    21    1
    25    23    22    1
    26    24    23    1
    27    24    25    1
    28    26    27    1
    29    26    13    1
    30    28    38    1
    31    29    28    2
    32    31    33    1
    33    32    36    1
    34    34    40    1
    35    35    39    1
    36    35    33    1
    37    35    30    1
    38    36    37    1
    39    36    38    2
    40    37    31    1
    41    40    43    1
    42    42    34    1
    43    42    13    1
    44    42    32    1
    45    43    32    1
    46    43    41    1
