@<TRIPOS>MOLECULE
outputs/IAG933/test6/raw/output_8822_IAG933_linker_design_.xyz
 46 50 0 0 0
SMALL
GASTEIGER

@<TRIPOS>ATOM
      1 C         -24.8550   -1.0120   30.1430 C.3     1  UNL1        0.0855
      2 C         -24.9730   -2.5050   29.7880 C.2     1  UNL1       -0.0171
      3 C         -23.9060   -3.1730   29.1460 C.2     1  UNL1       -0.0041
      4 C         -23.9890   -4.5490   28.8530 C.2     1  UNL1       -0.0003
      5 C         -25.1370   -5.2800   29.2050 C.2     1  UNL1       -0.0000
      6 C         -26.2320   -4.6110   29.7840 C.2     1  UNL1       -0.0003
      7 C         -26.1550   -3.2320   30.0650 C.2     1  UNL1       -0.0041
      8 C         -25.3870   -0.6790   31.5710 C.3     1  UNL1        0.0808
      9 C         -25.1890    0.7730   32.0280 C.3     1  UNL1        0.0193
     10 C         -25.3360    0.6840   33.5440 C.3     1  UNL1        0.0202
     11 C         -24.8290   -0.7150   33.9050 C.3     1  UNL1        0.0887
     12 N         -24.7580   -1.4810   32.6460 N.3     1  UNL1       -0.2190
     13 C         -25.6880    1.6140   26.4610 C.2     1  UNL1        0.0160
     14 C         -26.2500    2.9200   26.3950 C.2     1  UNL1        0.0726
     15 C         -25.6420    4.0930   27.1230 C.2     1  UNL1        0.2661
     16 N         -25.6140    5.2520   26.4490 N.am    1  UNL1       -0.1997
     17 C         -25.0260    6.4790   26.9630 C.3     1  UNL1        0.1388
     18 O         -25.1430    3.9660   28.2430 O.2     1  UNL1       -0.2683
     19 C         -27.4380    3.0910   25.6450 C.2     1  UNL1        0.1064
     20 N         -28.0750    2.0890   25.0030 N.2     1  UNL1       -0.2081
     21 C         -27.5430    0.8490   25.0790 C.2     1  UNL1        0.2530
     22 O         -28.1930   -0.2080   24.4770 O.2     1  UNL1       -0.4558
     23 C         -29.4600    0.0050   23.8660 C.3     1  UNL1        0.2426
     24 C         -30.0650   -1.3770   23.5730 C.3     1  UNL1        0.2292
     25 O         -30.7290   -1.8780   24.7210 O.3     1  UNL1       -0.2162
     26 C         -26.3540    0.5760   25.7770 C.2     1  UNL1        0.1891
     27 F         -25.8600   -0.6810   25.7950 F       1  UNL1       -0.1996
     28 C         -30.3025    0.4052   27.6943 C.1     1  UNL1       -0.0616
     29 C         -24.2710    1.2672   26.9853 C.3     1  UNL1        0.0333
     30 C         -28.2560    0.3880   28.7316 C.2     1  UNL1        0.3653
     31 C         -23.0653    2.1134   26.5252 C.3     1  UNL1        0.0095
     32 C         -31.3821    0.9967   27.5895 C.2     1  UNL1        0.1510
     33 C         -21.7063    1.0417   28.4068 C.2     1  UNL1       -0.0306
     34 C         -33.7004    0.0566   28.0756 C.3     1  UNL1        0.2529
     35 C         -31.3465    2.3636   27.4988 C.3     1  UNL1        0.0783
     36 C         -29.4992    2.5895   29.2836 C.3     1  UNL1        0.3062
     37 O         -32.4352    0.2514   27.5180 O.2     1  UNL1       -0.4684
     38 C         -25.4408   -0.0037   28.9387 C.3     1  UNL1        0.2144
     39 C         -30.2869    3.1002   28.1781 C.3     1  UNL1        0.0826
     40 N         -28.6524    1.5104   29.4519 N.2     1  UNL1       -0.0457
     41 N         -26.8700   -0.2798   28.5533 N.pl3   1  UNL1       -0.0348
     42 N         -29.6989    3.2421   30.4388 N.3     1  UNL1       -0.0775
     43 C         -24.2832    0.8948   28.5310 C.3     1  UNL1        0.0730
     44 C         -21.7254    1.7714   27.1493 C.3     1  UNL1        0.0260
     45 C         -22.8045    0.5375   29.0558 C.2     1  UNL1       -0.0265
     46 C         -29.2339   -0.2649   27.9362 C.2     1  UNL1        0.1367
@<TRIPOS>BOND
     1     1    38    1
     2     2     7    1
     3     2     1    1
     4     3     2    2
     5     4     3    1
     6     4     5    2
     7     5     6    1
     8     6     7    2
     9     8     1    1
    10     8     9    1
    11     8    12    1
    12     9    10    1
    13    10    11    1
    14    12    11    1
    15    14    13    1
    16    14    15    1
    17    15    18    2
    18    16    17    1
    19    16    15    1
    20    19    14    2
    21    20    21    2
    22    20    19    1
    23    21    26    1
    24    22    21    1
    25    23    22    1
    26    24    23    1
    27    24    25    1
    28    26    27    1
    29    26    13    2
    30    28    46    2
    31    29    13    1
    32    29    43    1
    33    30    40    2
    34    31    29    1
    35    31    44    1
    36    32    28    2
    37    33    45    2
    38    35    32    1
    39    35    39    1
    40    36    40    1
    41    36    42    1
    42    37    32    1
    43    37    34    1
    44    38    41    1
    45    39    36    1
    46    41    30    1
    47    43    38    1
    48    43    45    1
    49    44    33    1
    50    46    30    1
