@<TRIPOS>MOLECULE
outputs/IAG933/test6/raw/output_8824_IAG933_linker_design_.xyz
 40 44 0 0 0
SMALL
GASTEIGER

@<TRIPOS>ATOM
      1 C         -24.8550   -1.0120   30.1430 C.3     1  UNL1        0.1187
      2 C         -24.9730   -2.5050   29.7880 C.2     1  UNL1       -0.0048
      3 C         -23.9060   -3.1730   29.1460 C.2     1  UNL1       -0.0029
      4 C         -23.9890   -4.5490   28.8530 C.2     1  UNL1       -0.0003
      5 C         -25.1370   -5.2800   29.2050 C.2     1  UNL1       -0.0000
      6 C         -26.2320   -4.6110   29.7840 C.2     1  UNL1       -0.0003
      7 C         -26.1550   -3.2320   30.0650 C.2     1  UNL1       -0.0029
      8 C         -25.3870   -0.6790   31.5710 C.3     1  UNL1        0.0933
      9 C         -25.1890    0.7730   32.0280 C.3     1  UNL1        0.0206
     10 C         -25.3360    0.6840   33.5440 C.3     1  UNL1        0.0203
     11 C         -24.8290   -0.7150   33.9050 C.3     1  UNL1        0.0888
     12 N         -24.7580   -1.4810   32.6460 N.3     1  UNL1       -0.2177
     13 C         -25.6880    1.6140   26.4610 C.3     1  UNL1        0.1528
     14 C         -26.2500    2.9200   26.3950 C.2     1  UNL1        0.0714
     15 C         -25.6420    4.0930   27.1230 C.2     1  UNL1        0.2638
     16 N         -25.6140    5.2520   26.4490 N.am    1  UNL1       -0.2000
     17 C         -25.0260    6.4790   26.9630 C.3     1  UNL1        0.1388
     18 O         -25.1430    3.9660   28.2430 O.2     1  UNL1       -0.2686
     19 C         -27.4380    3.0910   25.6450 C.2     1  UNL1        0.1035
     20 N         -28.0750    2.0890   25.0030 N.2     1  UNL1       -0.2118
     21 C         -27.5430    0.8490   25.0790 C.2     1  UNL1        0.2356
     22 O         -28.1930   -0.2080   24.4770 O.2     1  UNL1       -0.4585
     23 C         -29.4600    0.0050   23.8660 C.3     1  UNL1        0.2423
     24 C         -30.0650   -1.3770   23.5730 C.3     1  UNL1        0.2292
     25 O         -30.7290   -1.8780   24.7210 O.3     1  UNL1       -0.2162
     26 C         -26.3540    0.5760   25.7770 C.3     1  UNL1        0.2564
     27 F         -25.8600   -0.6810   25.7950 F       1  UNL1       -0.2253
     28 O         -26.0507    0.9098   29.1528 O.2     1  UNL1       -0.1408
     29 O         -23.2838    1.9865   25.2549 O.3     1  UNL1       -0.3091
     30 C         -21.4380    0.9555   28.4691 C.3     1  UNL1        0.2006
     31 C         -22.0193    1.3834   27.0916 C.3     1  UNL1        0.1938
     32 C         -23.3703    1.4038   26.5994 C.3     1  UNL1        0.2286
     33 N         -23.8871   -0.0562   29.2866 N.3     1  UNL1       -0.1385
     34 O         -20.2247    0.2103   28.2255 O.3     1  UNL1       -0.2188
     35 S         -24.6811    1.0391   29.0855 S.O2    1  UNL1        0.1047
     36 O         -21.2704    2.1931   26.3868 O.3     1  UNL1       -0.3225
     37 N         -24.7311    1.3268   27.4867 N.3     1  UNL1       -0.1115
     38 C         -22.3369    0.1000   29.4443 C.3     1  UNL1        0.1327
     39 O         -24.2279    2.1269   29.5695 O.2     1  UNL1       -0.1408
     40 C         -21.8710    2.4780   25.1711 C.3     1  UNL1        0.2953
@<TRIPOS>BOND
     1     1     2    1
     2     2     7    1
     3     3     2    2
     4     4     3    1
     5     4     5    2
     6     5     6    1
     7     6     7    2
     8     8     1    1
     9     8     9    1
    10     8    12    1
    11     9    10    1
    12    10    11    1
    13    12    11    1
    14    13    14    1
    15    14    15    1
    16    15    18    2
    17    16    17    1
    18    16    15    1
    19    19    14    2
    20    20    21    2
    21    20    19    1
    22    21    26    1
    23    22    21    1
    24    23    22    1
    25    24    23    1
    26    24    25    1
    27    26    27    1
    28    26    13    1
    29    30    34    1
    30    30    38    1
    31    31    36    1
    32    31    30    1
    33    32    29    1
    34    32    31    1
    35    32    37    1
    36    33    38    1
    37    33     1    1
    38    35    28    2
    39    35    33    1
    40    35    39    2
    41    37    13    1
    42    37    35    1
    43    40    29    1
    44    40    36    1
