@<TRIPOS>MOLECULE
outputs/IAG933/test6/raw/output_8829_IAG933_linker_design_.xyz
 45 49 0 0 0
SMALL
GASTEIGER

@<TRIPOS>ATOM
      1 C         -24.8550   -1.0120   30.1430 C.3     1  UNL1        0.0963
      2 C         -24.9730   -2.5050   29.7880 C.2     1  UNL1       -0.0064
      3 C         -23.9060   -3.1730   29.1460 C.2     1  UNL1       -0.0029
      4 C         -23.9890   -4.5490   28.8530 C.2     1  UNL1       -0.0003
      5 C         -25.1370   -5.2800   29.2050 C.2     1  UNL1       -0.0000
      6 C         -26.2320   -4.6110   29.7840 C.2     1  UNL1       -0.0003
      7 C         -26.1550   -3.2320   30.0650 C.2     1  UNL1       -0.0029
      8 C         -25.3870   -0.6790   31.5710 C.3     1  UNL1        0.0916
      9 C         -25.1890    0.7730   32.0280 C.3     1  UNL1        0.0206
     10 C         -25.3360    0.6840   33.5440 C.3     1  UNL1        0.0203
     11 C         -24.8290   -0.7150   33.9050 C.3     1  UNL1        0.0888
     12 N         -24.7580   -1.4810   32.6460 N.3     1  UNL1       -0.2178
     13 C         -25.6880    1.6140   26.4610 C.3     1  UNL1        0.0716
     14 C         -26.2500    2.9200   26.3950 C.2     1  UNL1        0.0548
     15 C         -25.6420    4.0930   27.1230 C.2     1  UNL1        0.2624
     16 N         -25.6140    5.2520   26.4490 N.am    1  UNL1       -0.2000
     17 C         -25.0260    6.4790   26.9630 C.3     1  UNL1        0.1388
     18 O         -25.1430    3.9660   28.2430 O.2     1  UNL1       -0.2687
     19 C         -27.4380    3.0910   25.6450 C.2     1  UNL1        0.1021
     20 N         -28.0750    2.0890   25.0030 N.2     1  UNL1       -0.2119
     21 C         -27.5430    0.8490   25.0790 C.2     1  UNL1        0.2341
     22 O         -28.1930   -0.2080   24.4770 O.2     1  UNL1       -0.4585
     23 C         -29.4600    0.0050   23.8660 C.3     1  UNL1        0.2423
     24 C         -30.0650   -1.3770   23.5730 C.3     1  UNL1        0.2292
     25 O         -30.7290   -1.8780   24.7210 O.3     1  UNL1       -0.2162
     26 C         -26.3540    0.5760   25.7770 C.3     1  UNL1        0.2400
     27 F         -25.8600   -0.6810   25.7950 F       1  UNL1       -0.2269
     28 C         -23.6398    1.2902   27.4927 C.3     1  UNL1        0.0179
     29 C         -28.9781    0.4170   29.3841 C.3     1  UNL1        0.2440
     30 C         -29.7551   -0.7391   29.3331 C.3     1  UNL1        0.0618
     31 C         -28.1330    3.1912   30.4093 C.3     1  UNL1        0.1742
     32 O         -20.8683    1.5964   27.2620 O.3     1  UNL1       -0.2204
     33 C         -21.8318    0.0107   29.1684 C.3     1  UNL1        0.0515
     34 C         -23.2537   -0.0223   28.4625 C.3     1  UNL1        0.0605
     35 O         -28.7165    0.5899   30.7964 O.3     1  UNL1       -0.1927
     36 C         -25.8154    0.3838   28.6803 C.3     1  UNL1        0.0880
     37 O         -28.4459   -0.4533   28.5148 O.3     1  UNL1       -0.3288
     38 C         -30.3994    1.1509   27.8234 C.3     1  UNL1        0.0349
     39 C         -20.6910    0.5804   28.2840 C.3     1  UNL1        0.1835
     40 C         -26.9607   -0.4067   28.6610 C.3     1  UNL1        0.1606
     41 C         -29.3981    1.7229   28.9059 C.3     1  UNL1        0.1691
     42 O         -28.1790    2.6532   29.0957 O.3     1  UNL1       -0.3485
     43 N         -24.5334   -0.1288   29.3063 N.3     1  UNL1       -0.2694
     44 C         -25.0309    1.1254   27.4650 C.3     1  UNL1        0.0259
     45 C         -30.9754   -0.2247   28.4004 C.3     1  UNL1        0.0079
@<TRIPOS>BOND
     1     1     2    1
     2     2     7    1
     3     3     2    2
     4     4     3    1
     5     4     5    2
     6     5     6    1
     7     6     7    2
     8     8     1    1
     9     8     9    1
    10     8    12    1
    11     9    10    1
    12    10    11    1
    13    12    11    1
    14    13    14    1
    15    13    44    1
    16    14    15    1
    17    15    18    2
    18    16    17    1
    19    16    15    1
    20    19    14    2
    21    20    21    2
    22    20    19    1
    23    21    26    1
    24    22    21    1
    25    23    22    1
    26    24    23    1
    27    24    25    1
    28    26    27    1
    29    26    13    1
    30    28    34    1
    31    29    35    1
    32    30    29    1
    33    32    39    1
    34    34    33    1
    35    34    43    1
    36    36    40    1
    37    36    43    1
    38    37    40    1
    39    37    29    1
    40    38    45    1
    41    38    41    1
    42    39    33    1
    43    41    42    1
    44    41    29    1
    45    42    31    1
    46    43     1    1
    47    44    28    1
    48    44    36    1
    49    45    30    1
