@<TRIPOS>MOLECULE
No_883-gen_results/8p0m/2024-11-27-11-27-31/
 19 22 0 0 0
SMALL
GASTEIGER

@<TRIPOS>ATOM
      1 C         -28.0162   -0.8135   28.8779 C.ar    1  UNL1        0.0146
      2 C         -27.0636   -0.1189   28.6079 C.ar    1  UNL1        0.0404
      3 C         -25.7923   -0.4302   29.0761 C.ar    1  UNL1        0.0033
      4 C         -24.5456    0.3494   28.8225 C.ar    1  UNL1        0.0037
      5 C         -24.6586    1.4196   27.8878 C.ar    1  UNL1        0.0449
      6 C         -23.5403    2.1791   27.5500 C.ar    1  UNL1        0.1469
      7 C         -22.2925    1.7428   28.0473 C.ar    1  UNL1        0.0375
      8 C         -22.1712    0.7079   28.9284 C.ar    1  UNL1        0.0031
      9 C         -23.3345   -0.0624   29.3081 C.ar    1  UNL1        0.0002
     10 C         -27.9466   -1.8823   29.8708 C.ar    1  UNL1        0.0578
     11 C         -26.7159   -2.3287   30.3060 C.ar    1  UNL1        0.0114
     12 C         -25.5921   -1.5643   29.9672 C.ar    1  UNL1        0.0010
     13 CL        -29.3178   -2.8004   30.2932 Cl      1  UNL1       -0.0822
     14 O         -23.6390    3.1741   26.6982 O.3     1  UNL1       -0.4421
     15 C         -24.9691    3.1520   26.0636 C.2     1  UNL1        0.2215
     16 C         -25.7990    1.7465   27.2574 C.2     1  UNL1        0.0792
     17 C         -25.9203    2.7614   26.3566 C.1     1  UNL1       -0.0580
     18 C         -27.0585    1.0156   27.6772 C.2     1  UNL1        0.2028
     19 O         -28.1867    1.3021   27.1523 O.2     1  UNL1       -0.2859
@<TRIPOS>BOND
     1     3     4    1
     2    10    13    1
     3     6    14    1
     4    14    15    1
     5     5    16    1
     6    15    17    2
     7    16    17    2
     8     2    18    1
     9    16    18    1
    10    18    19    2
    11     4     9   ar
    12     9     8   ar
    13     8     7   ar
    14     7     6   ar
    15     6     5   ar
    16     5     4   ar
    17     1     2   ar
    18     2     3   ar
    19     3    12   ar
    20    12    11   ar
    21    11    10   ar
    22    10     1   ar
