@<TRIPOS>MOLECULE
outputs/IAG933/test6/raw/output_8831_IAG933_linker_design_.xyz
 46 50 0 0 0
SMALL
GASTEIGER

@<TRIPOS>ATOM
      1 C         -24.8550   -1.0120   30.1430 C.3     1  UNL1        0.1136
      2 C         -24.9730   -2.5050   29.7880 C.2     1  UNL1       -0.0050
      3 C         -23.9060   -3.1730   29.1460 C.2     1  UNL1       -0.0029
      4 C         -23.9890   -4.5490   28.8530 C.2     1  UNL1       -0.0003
      5 C         -25.1370   -5.2800   29.2050 C.2     1  UNL1       -0.0000
      6 C         -26.2320   -4.6110   29.7840 C.2     1  UNL1       -0.0003
      7 C         -26.1550   -3.2320   30.0650 C.2     1  UNL1       -0.0029
      8 C         -25.3870   -0.6790   31.5710 C.3     1  UNL1        0.0930
      9 C         -25.1890    0.7730   32.0280 C.3     1  UNL1        0.0206
     10 C         -25.3360    0.6840   33.5440 C.3     1  UNL1        0.0203
     11 C         -24.8290   -0.7150   33.9050 C.3     1  UNL1        0.0888
     12 N         -24.7580   -1.4810   32.6460 N.3     1  UNL1       -0.2177
     13 C         -25.6880    1.6140   26.4610 C.2     1  UNL1        0.0407
     14 C         -26.2500    2.9200   26.3950 C.2     1  UNL1        0.0744
     15 C         -25.6420    4.0930   27.1230 C.2     1  UNL1        0.2231
     16 N         -25.6140    5.2520   26.4490 N.2     1  UNL1       -0.2356
     17 C         -25.0260    6.4790   26.9630 C.3     1  UNL1        0.1550
     18 O         -25.1430    3.9660   28.2430 O.2     1  UNL1       -0.4463
     19 C         -27.4380    3.0910   25.6450 C.2     1  UNL1        0.1068
     20 N         -28.0750    2.0890   25.0030 N.2     1  UNL1       -0.2081
     21 C         -27.5430    0.8490   25.0790 C.2     1  UNL1        0.2533
     22 O         -28.1930   -0.2080   24.4770 O.2     1  UNL1       -0.4558
     23 C         -29.4600    0.0050   23.8660 C.3     1  UNL1        0.2426
     24 C         -30.0650   -1.3770   23.5730 C.3     1  UNL1        0.2292
     25 O         -30.7290   -1.8780   24.7210 O.3     1  UNL1       -0.2162
     26 C         -26.3540    0.5760   25.7770 C.2     1  UNL1        0.1931
     27 F         -25.8600   -0.6810   25.7950 F       1  UNL1       -0.1992
     28 C         -28.9895    5.5053   28.4020 C.2     1  UNL1       -0.0002
     29 C         -21.1010    1.2964   27.7428 C.3     1  UNL1        0.2121
     30 O         -29.8666    8.6709   30.9749 O.2     1  UNL1       -0.2913
     31 C         -27.9870    4.6164   28.7926 C.2     1  UNL1       -0.0041
     32 C         -27.6842    9.2460   31.1465 C.3     1  UNL1        0.0773
     33 N         -24.7419    2.1509   29.4095 N.3     1  UNL1       -0.1637
     34 C         -28.6972    8.3354   30.8505 C.2     1  UNL1        0.1735
     35 C         -26.2514    3.8948   30.2679 C.3     1  UNL1        0.0890
     36 C         -22.1720    0.8096   28.7383 C.3     1  UNL1        0.1286
     37 N         -22.8311   -0.3443   28.7703 N.3     1  UNL1       -0.1439
     38 C         -22.6525    1.6252   29.7077 C.3     1  UNL1        0.0573
     39 F         -19.8868    1.4985   28.2931 F       1  UNL1       -0.2327
     40 C         -23.9102    1.2680   29.6372 C.3     1  UNL1        0.1517
     41 C         -27.3710    6.1080   30.6586 C.2     1  UNL1       -0.0013
     42 C         -29.3112    6.5596   29.2585 C.2     1  UNL1        0.0028
     43 C         -25.3379    3.3070   29.3496 C.3     1  UNL1        0.2484
     44 N         -23.9811   -0.0797   29.5321 N.3     1  UNL1       -0.1849
     45 C         -27.1924    4.8916   29.9378 C.2     1  UNL1       -0.0169
     46 C         -28.4313    6.9476   30.2770 C.2     1  UNL1        0.0344
@<TRIPOS>BOND
     1     1     2    1
     2     2     7    1
     3     3     2    2
     4     4     3    1
     5     4     5    2
     6     5     6    1
     7     6     7    2
     8     8     1    1
     9     8     9    1
    10     8    12    1
    11     9    10    1
    12    10    11    1
    13    12    11    1
    14    14    13    1
    15    14    15    1
    16    15    18    1
    17    16    17    1
    18    16    15    2
    19    18    43    1
    20    19    14    2
    21    20    21    2
    22    20    19    1
    23    21    26    1
    24    22    21    1
    25    23    22    1
    26    24    23    1
    27    24    25    1
    28    26    27    1
    29    26    13    2
    30    28    31    2
    31    28    42    1
    32    29    39    1
    33    31    45    1
    34    34    30    2
    35    34    32    1
    36    36    29    1
    37    36    37    1
    38    36    38    1
    39    37    44    1
    40    40    33    1
    41    40    38    1
    42    42    46    2
    43    43    33    1
    44    43    35    1
    45    44    40    1
    46    44     1    1
    47    45    35    1
    48    45    41    2
    49    46    41    1
    50    46    34    1
