@<TRIPOS>MOLECULE
outputs/IAG933/test6/raw/output_8833_IAG933_linker_design_.xyz
 44 48 0 0 0
SMALL
GASTEIGER

@<TRIPOS>ATOM
      1 C         -24.8550   -1.0120   30.1430 C.3     1  UNL1        0.0511
      2 C         -24.9730   -2.5050   29.7880 C.2     1  UNL1       -0.0204
      3 C         -23.9060   -3.1730   29.1460 C.2     1  UNL1       -0.0042
      4 C         -23.9890   -4.5490   28.8530 C.2     1  UNL1       -0.0003
      5 C         -25.1370   -5.2800   29.2050 C.2     1  UNL1       -0.0000
      6 C         -26.2320   -4.6110   29.7840 C.2     1  UNL1       -0.0003
      7 C         -26.1550   -3.2320   30.0650 C.2     1  UNL1       -0.0042
      8 C         -25.3870   -0.6790   31.5710 C.3     1  UNL1        0.0776
      9 C         -25.1890    0.7730   32.0280 C.3     1  UNL1        0.0192
     10 C         -25.3360    0.6840   33.5440 C.3     1  UNL1        0.0202
     11 C         -24.8290   -0.7150   33.9050 C.3     1  UNL1        0.0887
     12 N         -24.7580   -1.4810   32.6460 N.3     1  UNL1       -0.2191
     13 C         -25.6880    1.6140   26.4610 C.3     1  UNL1        0.0921
     14 C         -26.2500    2.9200   26.3950 C.2     1  UNL1        0.0589
     15 C         -25.6420    4.0930   27.1230 C.2     1  UNL1        0.2628
     16 N         -25.6140    5.2520   26.4490 N.am    1  UNL1       -0.2000
     17 C         -25.0260    6.4790   26.9630 C.3     1  UNL1        0.1388
     18 O         -25.1430    3.9660   28.2430 O.2     1  UNL1       -0.2686
     19 C         -27.4380    3.0910   25.6450 C.2     1  UNL1        0.1025
     20 N         -28.0750    2.0890   25.0030 N.2     1  UNL1       -0.2118
     21 C         -27.5430    0.8490   25.0790 C.2     1  UNL1        0.2344
     22 O         -28.1930   -0.2080   24.4770 O.2     1  UNL1       -0.4585
     23 C         -29.4600    0.0050   23.8660 C.3     1  UNL1        0.2423
     24 C         -30.0650   -1.3770   23.5730 C.3     1  UNL1        0.2292
     25 O         -30.7290   -1.8780   24.7210 O.3     1  UNL1       -0.2162
     26 C         -26.3540    0.5760   25.7770 C.3     1  UNL1        0.2440
     27 F         -25.8600   -0.6810   25.7950 F       1  UNL1       -0.2265
     28 C         -30.6822    3.7558   29.6259 C.3     1  UNL1        0.0001
     29 C         -23.2990    2.0089   26.0595 C.2     1  UNL1       -0.0042
     30 C         -30.7116    4.0761   28.1633 C.3     1  UNL1        0.0000
     31 C         -21.6605    1.5235   27.7682 C.2     1  UNL1       -0.0003
     32 C         -24.3400    1.5104   26.9096 C.2     1  UNL1       -0.0186
     33 N         -27.3486    0.9797   29.9821 N.am    1  UNL1       -0.2052
     34 C         -25.1229    0.1952   29.0806 C.3     1  UNL1        0.1054
     35 C         -29.5486    2.6967   29.6342 C.3     1  UNL1        0.0018
     36 C         -22.6728    1.0110   28.6107 C.2     1  UNL1       -0.0041
     37 C         -30.1776    2.8579   27.2676 C.3     1  UNL1        0.0000
     38 O         -27.2124   -0.6040   28.3528 O.2     1  UNL1       -0.2730
     39 C         -24.0260    0.9470   28.1907 C.2     1  UNL1       -0.0170
     40 C         -27.0269    2.4065   30.0713 C.3     1  UNL1        0.1152
     41 C         -28.1524    3.3430   29.4922 C.3     1  UNL1        0.0234
     42 C         -29.7574    1.8157   28.3629 C.3     1  UNL1        0.0001
     43 C         -21.9698    2.0102   26.4602 C.2     1  UNL1       -0.0003
     44 C         -26.6970    0.1805   29.1029 C.2     1  UNL1        0.2454
@<TRIPOS>BOND
     1     1    34    1
     2     2     7    1
     3     2     1    1
     4     3     2    2
     5     4     3    1
     6     4     5    2
     7     5     6    1
     8     6     7    2
     9     8     1    1
    10     8     9    1
    11     8    12    1
    12     9    10    1
    13    10    11    1
    14    12    11    1
    15    13    32    1
    16    14    13    1
    17    14    15    1
    18    15    18    2
    19    16    17    1
    20    16    15    1
    21    19    14    2
    22    20    21    2
    23    20    19    1
    24    21    26    1
    25    22    21    1
    26    23    22    1
    27    24    23    1
    28    24    25    1
    29    26    27    1
    30    26    13    1
    31    28    35    1
    32    29    43    2
    33    29    32    1
    34    30    28    1
    35    31    36    2
    36    32    39    2
    37    33    40    1
    38    34    44    1
    39    37    30    1
    40    37    42    1
    41    38    44    2
    42    39    36    1
    43    39    34    1
    44    41    35    1
    45    41    40    1
    46    42    35    1
    47    43    31    1
    48    44    33    1
