@<TRIPOS>MOLECULE
outputs/IAG933/test6/raw/output_8838_IAG933_linker_design_.xyz
 41 44 0 0 0
SMALL
GASTEIGER

@<TRIPOS>ATOM
      1 C         -24.8550   -1.0120   30.1430 C.3     1  UNL1        0.1115
      2 C         -24.9730   -2.5050   29.7880 C.2     1  UNL1       -0.0030
      3 C         -23.9060   -3.1730   29.1460 C.2     1  UNL1       -0.0026
      4 C         -23.9890   -4.5490   28.8530 C.2     1  UNL1       -0.0003
      5 C         -25.1370   -5.2800   29.2050 C.2     1  UNL1       -0.0000
      6 C         -26.2320   -4.6110   29.7840 C.2     1  UNL1       -0.0003
      7 C         -26.1550   -3.2320   30.0650 C.2     1  UNL1       -0.0026
      8 C         -25.3870   -0.6790   31.5710 C.3     1  UNL1        0.0950
      9 C         -25.1890    0.7730   32.0280 C.3     1  UNL1        0.0209
     10 C         -25.3360    0.6840   33.5440 C.3     1  UNL1        0.0203
     11 C         -24.8290   -0.7150   33.9050 C.3     1  UNL1        0.0888
     12 N         -24.7580   -1.4810   32.6460 N.3     1  UNL1       -0.2174
     13 C         -25.6880    1.6140   26.4610 C.3     1  UNL1        0.2387
     14 C         -26.2500    2.9200   26.3950 C.2     1  UNL1        0.0947
     15 C         -25.6420    4.0930   27.1230 C.2     1  UNL1        0.2658
     16 N         -25.6140    5.2520   26.4490 N.am    1  UNL1       -0.1999
     17 C         -25.0260    6.4790   26.9630 C.3     1  UNL1        0.1388
     18 O         -25.1430    3.9660   28.2430 O.2     1  UNL1       -0.2685
     19 C         -27.4380    3.0910   25.6450 C.2     1  UNL1        0.1057
     20 N         -28.0750    2.0890   25.0030 N.2     1  UNL1       -0.2116
     21 C         -27.5430    0.8490   25.0790 C.2     1  UNL1        0.2379
     22 O         -28.1930   -0.2080   24.4770 O.2     1  UNL1       -0.4584
     23 C         -29.4600    0.0050   23.8660 C.3     1  UNL1        0.2423
     24 C         -30.0650   -1.3770   23.5730 C.3     1  UNL1        0.2292
     25 O         -30.7290   -1.8780   24.7210 O.3     1  UNL1       -0.2162
     26 C         -26.3540    0.5760   25.7770 C.3     1  UNL1        0.2798
     27 F         -25.8600   -0.6810   25.7950 F       1  UNL1       -0.2229
     28 C         -23.7501    0.4836   28.4986 C.2     1  UNL1        0.1204
     29 O         -28.8808    3.0619   30.4065 O.3     1  UNL1       -0.2203
     30 C         -21.5323    1.9508   27.1580 C.3     1  UNL1        0.2351
     31 C         -21.3423    1.1681   28.2765 C.2     1  UNL1        0.0223
     32 O         -29.3373   -0.3298   28.9950 O.3     1  UNL1       -0.2203
     33 N         -24.9288    0.0049   29.1621 N.pl3   1  UNL1       -0.2990
     34 C         -27.4556    1.1396   29.4475 C.3     1  UNL1        0.0857
     35 C         -27.5681    2.6411   30.0583 C.3     1  UNL1        0.1864
     36 C         -22.3917    0.3928   28.8902 C.2     1  UNL1        0.0201
     37 O         -24.6149    1.1550   26.6251 O.2     1  UNL1       -0.4428
     38 C         -26.3894    0.2434   28.6113 C.3     1  UNL1        0.0965
     39 C         -23.7904    1.2087   27.3314 C.2     1  UNL1        0.3064
     40 C         -28.6444    0.2851   30.1017 C.3     1  UNL1        0.1864
     41 O         -22.8851    2.0260   26.7105 O.2     1  UNL1       -0.4423
@<TRIPOS>BOND
     1     1    33    1
     2     2     7    1
     3     2     1    1
     4     3     2    2
     5     4     3    1
     6     4     5    2
     7     5     6    1
     8     6     7    2
     9     8     1    1
    10     8     9    1
    11     8    12    1
    12     9    10    1
    13    10    11    1
    14    12    11    1
    15    13    37    1
    16    14    13    1
    17    14    15    1
    18    15    18    2
    19    16    17    1
    20    16    15    1
    21    19    14    2
    22    20    21    2
    23    20    19    1
    24    21    26    1
    25    22    21    1
    26    23    22    1
    27    24    23    1
    28    24    25    1
    29    26    27    1
    30    26    13    1
    31    28    36    1
    32    28    33    1
    33    30    31    1
    34    31    36    2
    35    32    40    1
    36    34    35    1
    37    34    40    1
    38    35    29    1
    39    37    39    1
    40    38    33    1
    41    38    34    1
    42    39    28    2
    43    41    30    1
    44    41    39    1
