@<TRIPOS>MOLECULE
outputs/IAG933/test6/raw/output_8840_IAG933_linker_design_.xyz
 40 45 0 0 0
SMALL
GASTEIGER

@<TRIPOS>ATOM
      1 C         -24.8550   -1.0120   30.1430 C.3     1  UNL1        0.0680
      2 C         -24.9730   -2.5050   29.7880 C.2     1  UNL1       -0.0187
      3 C         -23.9060   -3.1730   29.1460 C.2     1  UNL1       -0.0042
      4 C         -23.9890   -4.5490   28.8530 C.2     1  UNL1       -0.0003
      5 C         -25.1370   -5.2800   29.2050 C.2     1  UNL1       -0.0000
      6 C         -26.2320   -4.6110   29.7840 C.2     1  UNL1       -0.0003
      7 C         -26.1550   -3.2320   30.0650 C.2     1  UNL1       -0.0042
      8 C         -25.3870   -0.6790   31.5710 C.3     1  UNL1        0.0792
      9 C         -25.1890    0.7730   32.0280 C.3     1  UNL1        0.0193
     10 C         -25.3360    0.6840   33.5440 C.3     1  UNL1        0.0202
     11 C         -24.8290   -0.7150   33.9050 C.3     1  UNL1        0.0887
     12 N         -24.7580   -1.4810   32.6460 N.3     1  UNL1       -0.2190
     13 C         -25.6880    1.6140   26.4610 C.2     1  UNL1        0.0448
     14 C         -26.2500    2.9200   26.3950 C.2     1  UNL1        0.0749
     15 C         -25.6420    4.0930   27.1230 C.2     1  UNL1        0.2662
     16 N         -25.6140    5.2520   26.4490 N.am    1  UNL1       -0.1997
     17 C         -25.0260    6.4790   26.9630 C.3     1  UNL1        0.1388
     18 O         -25.1430    3.9660   28.2430 O.2     1  UNL1       -0.2683
     19 C         -27.4380    3.0910   25.6450 C.2     1  UNL1        0.1065
     20 N         -28.0750    2.0890   25.0030 N.2     1  UNL1       -0.2081
     21 C         -27.5430    0.8490   25.0790 C.2     1  UNL1        0.2530
     22 O         -28.1930   -0.2080   24.4770 O.2     1  UNL1       -0.4558
     23 C         -29.4600    0.0050   23.8660 C.3     1  UNL1        0.2426
     24 C         -30.0650   -1.3770   23.5730 C.3     1  UNL1        0.2292
     25 O         -30.7290   -1.8780   24.7210 O.3     1  UNL1       -0.2162
     26 C         -26.3540    0.5760   25.7770 C.2     1  UNL1        0.1914
     27 F         -25.8600   -0.6810   25.7950 F       1  UNL1       -0.1995
     28 C         -27.9936   -0.8467   28.3573 C.3     1  UNL1        0.1741
     29 O         -23.4271    1.7363   26.1984 O.3     1  UNL1       -0.3490
     30 C         -23.1038    0.2485   28.3163 C.3     1  UNL1        0.0657
     31 C         -21.5599    1.9773   26.7124 C.3     1  UNL1        0.1719
     32 O         -23.8246    1.9812   29.4815 O.3     1  UNL1       -0.2202
     33 C         -25.4630    0.0003   29.1798 C.3     1  UNL1        0.1511
     34 C         -22.6494    1.1364   27.2099 C.3     1  UNL1        0.1513
     35 C         -24.3891    1.3661   27.0891 C.3     1  UNL1        0.1665
     36 C         -20.8791    0.6659   28.5131 C.3     1  UNL1        0.1424
     37 C         -22.0942    0.3978   29.2256 C.3     1  UNL1        0.0372
     38 O         -26.8969    0.0711   28.8649 O.3     1  UNL1       -0.3506
     39 C         -24.4913    1.0088   28.6427 C.3     1  UNL1        0.1822
     40 O         -20.6618    1.7800   27.6994 O.3     1  UNL1       -0.3512
@<TRIPOS>BOND
     1     1    33    1
     2     2     7    1
     3     2     1    1
     4     3     2    2
     5     4     3    1
     6     4     5    2
     7     5     6    1
     8     6     7    2
     9     8     1    1
    10     8     9    1
    11     8    12    1
    12     9    10    1
    13    10    11    1
    14    12    11    1
    15    14    13    1
    16    14    15    1
    17    15    18    2
    18    16    17    1
    19    16    15    1
    20    19    14    2
    21    20    21    2
    22    20    19    1
    23    21    26    1
    24    22    21    1
    25    23    22    1
    26    24    23    1
    27    24    25    1
    28    26    27    1
    29    26    13    2
    30    28    38    1
    31    29    35    1
    32    29    34    1
    33    30    39    1
    34    30    37    1
    35    31    40    1
    36    33    38    1
    37    34    31    1
    38    34    30    1
    39    35    13    1
    40    35    34    1
    41    35    39    1
    42    36    37    1
    43    39    33    1
    44    39    32    1
    45    40    36    1
