@<TRIPOS>MOLECULE
outputs/IAG933/test6/raw/output_8846_IAG933_linker_design_.xyz
 40 44 0 0 0
SMALL
GASTEIGER

@<TRIPOS>ATOM
      1 C         -24.8550   -1.0120   30.1430 C.3     1  UNL1        0.0451
      2 C         -24.9730   -2.5050   29.7880 C.2     1  UNL1       -0.0209
      3 C         -23.9060   -3.1730   29.1460 C.2     1  UNL1       -0.0042
      4 C         -23.9890   -4.5490   28.8530 C.2     1  UNL1       -0.0003
      5 C         -25.1370   -5.2800   29.2050 C.2     1  UNL1       -0.0000
      6 C         -26.2320   -4.6110   29.7840 C.2     1  UNL1       -0.0003
      7 C         -26.1550   -3.2320   30.0650 C.2     1  UNL1       -0.0042
      8 C         -25.3870   -0.6790   31.5710 C.3     1  UNL1        0.0770
      9 C         -25.1890    0.7730   32.0280 C.3     1  UNL1        0.0192
     10 C         -25.3360    0.6840   33.5440 C.3     1  UNL1        0.0202
     11 C         -24.8290   -0.7150   33.9050 C.3     1  UNL1        0.0887
     12 N         -24.7580   -1.4810   32.6460 N.3     1  UNL1       -0.2191
     13 C         -25.6880    1.6140   26.4610 C.2     1  UNL1        0.0888
     14 C         -26.2500    2.9200   26.3950 C.2     1  UNL1        0.0900
     15 C         -25.6420    4.0930   27.1230 C.2     1  UNL1        0.2676
     16 N         -25.6140    5.2520   26.4490 N.am    1  UNL1       -0.1997
     17 C         -25.0260    6.4790   26.9630 C.3     1  UNL1        0.1388
     18 O         -25.1430    3.9660   28.2430 O.2     1  UNL1       -0.2683
     19 C         -27.4380    3.0910   25.6450 C.2     1  UNL1        0.1080
     20 N         -28.0750    2.0890   25.0030 N.2     1  UNL1       -0.2080
     21 C         -27.5430    0.8490   25.0790 C.2     1  UNL1        0.2546
     22 O         -28.1930   -0.2080   24.4770 O.2     1  UNL1       -0.4558
     23 C         -29.4600    0.0050   23.8660 C.3     1  UNL1        0.2426
     24 C         -30.0650   -1.3770   23.5730 C.3     1  UNL1        0.2292
     25 O         -30.7290   -1.8780   24.7210 O.3     1  UNL1       -0.2162
     26 C         -26.3540    0.5760   25.7770 C.2     1  UNL1        0.2063
     27 F         -25.8600   -0.6810   25.7950 F       1  UNL1       -0.1979
     28 C         -21.4918   -0.7306   28.8660 C.3     1  UNL1        0.0358
     29 C         -22.7632    0.0795   29.1069 C.3     1  UNL1        0.1435
     30 C         -24.2379   -0.0341   29.2940 C.3     1  UNL1        0.0855
     31 C         -23.3309    1.5161   27.0381 C.3     1  UNL1        0.1607
     32 N         -24.6631    1.3308   27.2918 N.pl3   1  UNL1       -0.2694
     33 C         -21.1238    1.4426   27.7424 C.3     1  UNL1        0.1664
     34 C         -25.0050    0.9769   28.6201 C.3     1  UNL1        0.2318
     35 C         -20.3627    0.2270   28.4431 C.3     1  UNL1        0.0382
     36 C         -22.5595    1.4674   28.4005 C.3     1  UNL1        0.0966
     37 O         -25.1405    2.0480   29.5317 O.3     1  UNL1       -0.2006
     38 F         -22.4362    0.2917   30.4603 F       1  UNL1       -0.2397
     39 F         -20.7087    2.3610   27.0786 F       1  UNL1       -0.2371
     40 CL        -22.9341    2.3800   25.5698 Cl      1  UNL1       -0.0926
@<TRIPOS>BOND
     1     1     2    1
     2     2     7    1
     3     3     2    2
     4     4     3    1
     5     4     5    2
     6     5     6    1
     7     6     7    2
     8     8     1    1
     9     8     9    1
    10     8    12    1
    11     9    10    1
    12    10    11    1
    13    12    11    1
    14    13    32    1
    15    14    13    1
    16    14    15    1
    17    15    18    2
    18    16    17    1
    19    16    15    1
    20    19    14    2
    21    20    21    2
    22    20    19    1
    23    21    26    1
    24    22    21    1
    25    23    22    1
    26    24    23    1
    27    24    25    1
    28    26    27    1
    29    26    13    2
    30    28    29    1
    31    29    30    1
    32    29    38    1
    33    30     1    1
    34    31    40    1
    35    31    32    1
    36    31    36    1
    37    32    34    1
    38    33    39    1
    39    33    36    1
    40    33    35    1
    41    34    30    1
    42    34    37    1
    43    35    28    1
    44    36    29    1
