@<TRIPOS>MOLECULE
outputs/IAG933/test6/raw/output_8849_IAG933_linker_design_.xyz
 40 43 0 0 0
SMALL
GASTEIGER

@<TRIPOS>ATOM
      1 C         -24.8550   -1.0120   30.1430 C.3     1  UNL1        0.0586
      2 C         -24.9730   -2.5050   29.7880 C.2     1  UNL1       -0.0195
      3 C         -23.9060   -3.1730   29.1460 C.2     1  UNL1       -0.0042
      4 C         -23.9890   -4.5490   28.8530 C.2     1  UNL1       -0.0003
      5 C         -25.1370   -5.2800   29.2050 C.2     1  UNL1       -0.0000
      6 C         -26.2320   -4.6110   29.7840 C.2     1  UNL1       -0.0003
      7 C         -26.1550   -3.2320   30.0650 C.2     1  UNL1       -0.0042
      8 C         -25.3870   -0.6790   31.5710 C.3     1  UNL1        0.0785
      9 C         -25.1890    0.7730   32.0280 C.3     1  UNL1        0.0192
     10 C         -25.3360    0.6840   33.5440 C.3     1  UNL1        0.0202
     11 C         -24.8290   -0.7150   33.9050 C.3     1  UNL1        0.0887
     12 N         -24.7580   -1.4810   32.6460 N.3     1  UNL1       -0.2191
     13 C         -25.6880    1.6140   26.4610 C.3     1  UNL1        0.0762
     14 C         -26.2500    2.9200   26.3950 C.2     1  UNL1        0.0552
     15 C         -25.6420    4.0930   27.1230 C.2     1  UNL1        0.2625
     16 N         -25.6140    5.2520   26.4490 N.am    1  UNL1       -0.2000
     17 C         -25.0260    6.4790   26.9630 C.3     1  UNL1        0.1388
     18 O         -25.1430    3.9660   28.2430 O.2     1  UNL1       -0.2687
     19 C         -27.4380    3.0910   25.6450 C.2     1  UNL1        0.1021
     20 N         -28.0750    2.0890   25.0030 N.2     1  UNL1       -0.2119
     21 C         -27.5430    0.8490   25.0790 C.2     1  UNL1        0.2341
     22 O         -28.1930   -0.2080   24.4770 O.2     1  UNL1       -0.4585
     23 C         -29.4600    0.0050   23.8660 C.3     1  UNL1        0.2423
     24 C         -30.0650   -1.3770   23.5730 C.3     1  UNL1        0.2292
     25 O         -30.7290   -1.8780   24.7210 O.3     1  UNL1       -0.2162
     26 C         -26.3540    0.5760   25.7770 C.3     1  UNL1        0.2404
     27 F         -25.8600   -0.6810   25.7950 F       1  UNL1       -0.2269
     28 C         -28.5617    2.5648   30.9193 C.3     1  UNL1        0.0101
     29 C         -27.4721    2.1364   30.0955 C.3     1  UNL1        0.0868
     30 N         -26.8921   -0.0248   28.9407 N.am    1  UNL1       -0.2065
     31 C         -24.9605    1.1724   27.7231 C.3     1  UNL1        0.0611
     32 O         -21.8916    2.2382   26.1897 O.2     1  UNL1       -0.2510
     33 N         -21.4219    1.7308   27.5111 N.2     1  UNL1        0.1685
     34 C         -22.5867    1.0960   28.1283 C.2     1  UNL1        0.4586
     35 C         -23.5381    1.3146   27.3324 C.2     1  UNL1        0.1167
     36 C         -23.1441    1.8878   26.1459 C.2     1  UNL1        0.2456
     37 C         -27.7690    0.9896   29.2702 C.2     1  UNL1        0.2413
     38 O         -28.9222    0.8593   28.9107 O.2     1  UNL1       -0.2733
     39 C         -25.3346   -0.0491   28.8214 C.3     1  UNL1        0.1054
     40 N         -22.7367    0.5300   29.3087 N.pl3   1  UNL1        0.2203
@<TRIPOS>BOND
     1     1    39    1
     2     2     7    1
     3     2     1    1
     4     3     2    2
     5     4     3    1
     6     4     5    2
     7     5     6    1
     8     6     7    2
     9     8     1    1
    10     8     9    1
    11     8    12    1
    12     9    10    1
    13    10    11    1
    14    12    11    1
    15    13    31    1
    16    14    13    1
    17    14    15    1
    18    15    18    2
    19    16    17    1
    20    16    15    1
    21    19    14    2
    22    20    21    2
    23    20    19    1
    24    21    26    1
    25    22    21    1
    26    23    22    1
    27    24    23    1
    28    24    25    1
    29    26    27    1
    30    26    13    1
    31    29    28    1
    32    30    37    1
    33    31    39    1
    34    32    33    1
    35    33    34    2
    36    34    40    1
    37    35    31    1
    38    35    34    1
    39    36    32    1
    40    36    35    2
    41    37    29    1
    42    38    37    2
    43    39    30    1
