@<TRIPOS>MOLECULE
No_885-gen_results/8p0m/2024-11-27-11-27-31/
 13 14 0 0 0
SMALL
GASTEIGER

@<TRIPOS>ATOM
      1 C         -28.0162   -0.8135   28.8779 C.ar    1  UNL1        0.0067
      2 C         -27.0636   -0.1190   28.6079 C.ar    1  UNL1        0.0346
      3 C         -26.9287    1.1713   29.0083 C.ar    1  UNL1        0.0067
      4 C         -27.9560    1.7411   29.7840 C.ar    1  UNL1        0.0005
      5 C         -29.0569   -0.3271   29.7466 C.ar    1  UNL1        0.0005
      6 C         -28.9828    0.9722   30.1516 C.ar    1  UNL1        0.0000
      7 BR        -25.6042   -0.7936   27.5664 Br      1  UNL1       -0.0490
      8 C         -30.0822    1.5155   31.0142 C.ar    1  UNL1        0.0000
      9 C         -31.1089    1.1667   31.1045 C.ar    1  UNL1        0.0000
     10 C         -32.1791    1.7467   31.9685 C.ar    1  UNL1        0.0000
     11 C         -31.8065    2.8926   32.7015 C.ar    1  UNL1        0.0000
     12 C         -30.5351    3.3527   32.5953 C.ar    1  UNL1        0.0000
     13 C         -29.5915    2.7405   31.7944 C.ar    1  UNL1        0.0000
@<TRIPOS>BOND
     1     2     7    1
     2     6     8    1
     3     1     2   ar
     4     2     3   ar
     5     3     4   ar
     6     4     6   ar
     7     6     5   ar
     8     5     1   ar
     9     8     9   ar
    10     9    10   ar
    11    10    11   ar
    12    11    12   ar
    13    12    13   ar
    14    13     8   ar
