@<TRIPOS>MOLECULE
outputs/IAG933/test6/raw/output_8857_IAG933_linker_design_.xyz
 44 47 0 0 0
SMALL
GASTEIGER

@<TRIPOS>ATOM
      1 C         -24.8550   -1.0120   30.1430 C.3     1  UNL1        0.0421
      2 C         -24.9730   -2.5050   29.7880 C.2     1  UNL1       -0.0208
      3 C         -23.9060   -3.1730   29.1460 C.2     1  UNL1       -0.0042
      4 C         -23.9890   -4.5490   28.8530 C.2     1  UNL1       -0.0003
      5 C         -25.1370   -5.2800   29.2050 C.2     1  UNL1       -0.0000
      6 C         -26.2320   -4.6110   29.7840 C.2     1  UNL1       -0.0003
      7 C         -26.1550   -3.2320   30.0650 C.2     1  UNL1       -0.0042
      8 C         -25.3870   -0.6790   31.5710 C.3     1  UNL1        0.0771
      9 C         -25.1890    0.7730   32.0280 C.3     1  UNL1        0.0192
     10 C         -25.3360    0.6840   33.5440 C.3     1  UNL1        0.0202
     11 C         -24.8290   -0.7150   33.9050 C.3     1  UNL1        0.0887
     12 N         -24.7580   -1.4810   32.6460 N.3     1  UNL1       -0.2191
     13 C         -25.6880    1.6140   26.4610 C.2     1  UNL1        0.0523
     14 C         -26.2500    2.9200   26.3950 C.2     1  UNL1        0.0778
     15 C         -25.6420    4.0930   27.1230 C.2     1  UNL1        0.2665
     16 N         -25.6140    5.2520   26.4490 N.am    1  UNL1       -0.1997
     17 C         -25.0260    6.4790   26.9630 C.3     1  UNL1        0.1388
     18 O         -25.1430    3.9660   28.2430 O.2     1  UNL1       -0.2683
     19 C         -27.4380    3.0910   25.6450 C.2     1  UNL1        0.1068
     20 N         -28.0750    2.0890   25.0030 N.2     1  UNL1       -0.2081
     21 C         -27.5430    0.8490   25.0790 C.2     1  UNL1        0.2533
     22 O         -28.1930   -0.2080   24.4770 O.2     1  UNL1       -0.4558
     23 C         -29.4600    0.0050   23.8660 C.3     1  UNL1        0.2426
     24 C         -30.0650   -1.3770   23.5730 C.3     1  UNL1        0.2292
     25 O         -30.7290   -1.8780   24.7210 O.3     1  UNL1       -0.2162
     26 C         -26.3540    0.5760   25.7770 C.2     1  UNL1        0.1943
     27 F         -25.8600   -0.6810   25.7950 F       1  UNL1       -0.1992
     28 C         -30.4905    1.9491   29.0739 C.3     1  UNL1        0.1422
     29 C         -24.1270    0.5633   28.2974 C.2     1  UNL1       -0.0292
     30 N         -27.8833    3.8462   31.4934 N.3     1  UNL1        0.0419
     31 C         -30.1013    3.1716   31.7439 C.3     1  UNL1        0.1700
     32 C         -22.7463    0.4397   28.7076 C.3     1  UNL1        0.0251
     33 C         -25.2523   -0.0346   29.0479 C.3     1  UNL1        0.0250
     34 C         -21.7747    0.9959   27.8335 C.3     1  UNL1        0.0277
     35 N         -23.5517    2.0921   26.8255 N.pl3   1  UNL1       -0.2381
     36 O         -29.4949    1.2211   29.8300 O.3     1  UNL1       -0.3538
     37 O         -29.1390    3.7410   30.9036 O.3     1  UNL1       -0.2489
     38 C         -22.4883    1.7649   26.8173 C.3     1  UNL1        0.1125
     39 C         -31.6688    2.3974   29.9575 C.3     1  UNL1        0.0347
     40 C         -24.4347    1.4054   27.2061 C.2     1  UNL1        0.0599
     41 C         -26.6847   -0.2559   28.4478 C.3     1  UNL1        0.0070
     42 C         -27.6382   -0.2814   29.2869 C.3     1  UNL1        0.0324
     43 C         -31.3024    2.2716   31.4178 C.3     1  UNL1        0.0370
     44 C         -29.1032    0.0108   29.1886 C.3     1  UNL1        0.1422
@<TRIPOS>BOND
     1     1    33    1
     2     2     7    1
     3     2     1    1
     4     3     2    2
     5     4     3    1
     6     4     5    2
     7     5     6    1
     8     6     7    2
     9     8     1    1
    10     8     9    1
    11     8    12    1
    12     9    10    1
    13    10    11    1
    14    12    11    1
    15    13    40    1
    16    14    13    1
    17    14    15    1
    18    15    18    2
    19    16    17    1
    20    16    15    1
    21    19    14    2
    22    20    21    2
    23    20    19    1
    24    21    26    1
    25    22    21    1
    26    23    22    1
    27    24    23    1
    28    24    25    1
    29    26    27    1
    30    26    13    2
    31    28    36    1
    32    28    39    1
    33    29    32    1
    34    29    33    1
    35    33    41    1
    36    34    32    1
    37    35    40    1
    38    37    30    1
    39    37    31    1
    40    38    35    1
    41    38    34    1
    42    39    43    1
    43    40    29    2
    44    41    42    1
    45    43    31    1
    46    44    42    1
    47    44    36    1
