@<TRIPOS>MOLECULE
outputs/IAG933/test6/raw/output_8858_IAG933_linker_design_.xyz
 49 54 0 0 0
SMALL
GASTEIGER

@<TRIPOS>ATOM
      1 C         -24.8550   -1.0120   30.1430 C.3     1  UNL1        0.0544
      2 C         -24.9730   -2.5050   29.7880 C.2     1  UNL1       -0.0198
      3 C         -23.9060   -3.1730   29.1460 C.2     1  UNL1       -0.0042
      4 C         -23.9890   -4.5490   28.8530 C.2     1  UNL1       -0.0003
      5 C         -25.1370   -5.2800   29.2050 C.2     1  UNL1       -0.0000
      6 C         -26.2320   -4.6110   29.7840 C.2     1  UNL1       -0.0003
      7 C         -26.1550   -3.2320   30.0650 C.2     1  UNL1       -0.0042
      8 C         -25.3870   -0.6790   31.5710 C.3     1  UNL1        0.0782
      9 C         -25.1890    0.7730   32.0280 C.3     1  UNL1        0.0192
     10 C         -25.3360    0.6840   33.5440 C.3     1  UNL1        0.0202
     11 C         -24.8290   -0.7150   33.9050 C.3     1  UNL1        0.0887
     12 N         -24.7580   -1.4810   32.6460 N.3     1  UNL1       -0.2191
     13 C         -25.6880    1.6140   26.4610 C.3     1  UNL1        0.0752
     14 C         -26.2500    2.9200   26.3950 C.2     1  UNL1        0.0528
     15 C         -25.6420    4.0930   27.1230 C.2     1  UNL1        0.2190
     16 N         -25.6140    5.2520   26.4490 N.2     1  UNL1       -0.2359
     17 C         -25.0260    6.4790   26.9630 C.3     1  UNL1        0.1550
     18 O         -25.1430    3.9660   28.2430 O.2     1  UNL1       -0.4469
     19 C         -27.4380    3.0910   25.6450 C.2     1  UNL1        0.1022
     20 N         -28.0750    2.0890   25.0030 N.2     1  UNL1       -0.2119
     21 C         -27.5430    0.8490   25.0790 C.2     1  UNL1        0.2341
     22 O         -28.1930   -0.2080   24.4770 O.2     1  UNL1       -0.4585
     23 C         -29.4600    0.0050   23.8660 C.3     1  UNL1        0.2423
     24 C         -30.0650   -1.3770   23.5730 C.3     1  UNL1        0.2292
     25 O         -30.7290   -1.8780   24.7210 O.3     1  UNL1       -0.2162
     26 C         -26.3540    0.5760   25.7770 C.3     1  UNL1        0.2402
     27 F         -25.8600   -0.6810   25.7950 F       1  UNL1       -0.2269
     28 CA        -27.9403    3.0597   30.4310 C.3     1  UNL1        0.1313
     29 C         -22.9190    1.5431   26.4325 C.2     1  UNL1        0.0996
     30 F         -31.9606    1.9374   26.5793 F       1  UNL1       -0.2045
     31 C         -25.3343    2.5633   29.1924 C.3     1  UNL1        0.2434
     32 F         -20.7278    1.0025   28.4931 F       1  UNL1       -0.2174
     33 C         -24.2356    0.5466   28.2366 C.3     1  UNL1        0.0317
     34 C         -29.8710    3.7834   28.9158 C.2     1  UNL1       -0.0049
     35 N         -26.5185    2.6794   30.1893 N.3     1  UNL1       -0.1744
     36 C         -31.7262    4.6300   27.4260 C.3     1  UNL1        0.0334
     37 N         -22.6414    2.4315   25.6126 N.2     1  UNL1       -0.1513
     38 C         -29.0275    2.7218   29.3841 C.2     1  UNL1       -0.0040
     39 O         -27.7469    5.4692   30.3431 O.3     1  UNL1       -0.2185
     40 C         -23.7598   -0.2089   29.4620 C.3     1  UNL1        0.0815
     41 C         -31.0536    2.2157   27.4802 C.2     1  UNL1        0.1361
     42 C         -22.7973    1.1561   27.9645 C.3     1  UNL1        0.0945
     43 N         -22.4836   -0.2789   29.6681 N.3     1  UNL1       -0.1880
     44 C         -25.3416    1.3395   28.0041 C.3     1  UNL1        0.0670
     45 C         -27.7355    4.5020   30.4146 C.3     1  UNL1        0.2039
     46 C         -29.3430    1.4228   28.8811 C.2     1  UNL1       -0.0006
     47 C         -30.2642    1.1689   27.8961 C.2     1  UNL1        0.0290
     48 C         -30.8722    3.5197   27.9866 C.2     1  UNL1        0.0053
     49 C         -21.8054    0.4328   28.6333 C.3     1  UNL1        0.2404
@<TRIPOS>BOND
     1     1     2    1
     2     2     7    1
     3     3     2    2
     4     4     3    1
     5     4     5    2
     6     5     6    1
     7     6     7    2
     8     8     1    1
     9     8     9    1
    10     8    12    1
    11     9    10    1
    12    10    11    1
    13    12    11    1
    14    13    14    1
    15    13    44    1
    16    14    15    1
    17    15    18    1
    18    16    17    1
    19    16    15    2
    20    18    31    1
    21    19    14    2
    22    20    21    2
    23    20    19    1
    24    21    26    1
    25    22    21    1
    26    23    22    1
    27    24    23    1
    28    24    25    1
    29    26    27    1
    30    26    13    1
    31    28    45    1
    32    30    41    1
    33    31    35    1
    34    32    49    1
    35    33    44    1
    36    33    40    1
    37    34    38    1
    38    35    28    1
    39    36    48    1
    40    37    29    2
    41    38    28    1
    42    39    45    1
    43    40    43    1
    44    40     1    1
    45    41    47    2
    46    41    48    1
    47    42    29    1
    48    42    33    1
    49    42    49    1
    50    44    31    1
    51    46    38    2
    52    47    46    1
    53    48    34    2
    54    49    43    1
