@<TRIPOS>MOLECULE
outputs/IAG933/test6/raw/output_8861_IAG933_linker_design_.xyz
 59 66 0 0 0
SMALL
GASTEIGER

@<TRIPOS>ATOM
      1 C         -24.8550   -1.0120   30.1430 C.3     1  UNL1        0.1113
      2 C         -24.9730   -2.5050   29.7880 C.2     1  UNL1       -0.0030
      3 C         -23.9060   -3.1730   29.1460 C.2     1  UNL1       -0.0026
      4 C         -23.9890   -4.5490   28.8530 C.2     1  UNL1       -0.0003
      5 C         -25.1370   -5.2800   29.2050 C.2     1  UNL1       -0.0000
      6 C         -26.2320   -4.6110   29.7840 C.2     1  UNL1       -0.0003
      7 C         -26.1550   -3.2320   30.0650 C.2     1  UNL1       -0.0026
      8 C         -25.3870   -0.6790   31.5710 C.3     1  UNL1        0.0950
      9 C         -25.1890    0.7730   32.0280 C.3     1  UNL1        0.0209
     10 C         -25.3360    0.6840   33.5440 C.3     1  UNL1        0.0203
     11 C         -24.8290   -0.7150   33.9050 C.3     1  UNL1        0.0888
     12 N         -24.7580   -1.4810   32.6460 N.3     1  UNL1       -0.2174
     13 C         -25.6880    1.6140   26.4610 C.2     1  UNL1        0.0350
     14 C         -26.2500    2.9200   26.3950 C.2     1  UNL1        0.0763
     15 C         -25.6420    4.0930   27.1230 C.2     1  UNL1        0.2664
     16 N         -25.6140    5.2520   26.4490 N.am    1  UNL1       -0.1997
     17 C         -25.0260    6.4790   26.9630 C.3     1  UNL1        0.1388
     18 O         -25.1430    3.9660   28.2430 O.2     1  UNL1       -0.2683
     19 C         -27.4380    3.0910   25.6450 C.2     1  UNL1        0.1067
     20 N         -28.0750    2.0890   25.0030 N.2     1  UNL1       -0.2081
     21 C         -27.5430    0.8490   25.0790 C.2     1  UNL1        0.2533
     22 O         -28.1930   -0.2080   24.4770 O.2     1  UNL1       -0.4558
     23 C         -29.4600    0.0050   23.8660 C.3     1  UNL1        0.2426
     24 C         -30.0650   -1.3770   23.5730 C.3     1  UNL1        0.2292
     25 O         -30.7290   -1.8780   24.7210 O.3     1  UNL1       -0.2162
     26 C         -26.3540    0.5760   25.7770 C.2     1  UNL1        0.1928
     27 F         -25.8600   -0.6810   25.7950 F       1  UNL1       -0.1992
     28 C         -28.0655    4.1252   32.7850 C.3     1  UNL1        0.2163
     29 N         -28.4253    0.5892   30.6170 N.2     1  UNL1       -0.2478
     30 C         -22.9441    0.5414   28.4472 C.3     1  UNL1        0.0411
     31 C         -25.2527    5.4290   31.3021 C.3     1  UNL1        0.1547
     32 C         -27.7392    2.8677   30.6058 C.3     1  UNL1        0.1130
     33 C         -23.0100    2.4219   25.3870 C.3     1  UNL1        0.0047
     34 C         -30.7659    6.5309   33.7442 C.2     1  UNL1        0.0031
     35 C         -28.8148    5.4584   32.8274 C.2     1  UNL1        0.0232
     36 N         -25.4370   -0.1226   29.0809 N.pl3   1  UNL1       -0.3026
     37 C         -29.8063    5.5272   33.8108 C.2     1  UNL1       -0.0003
     38 N         -28.3992    3.0904   31.7601 N.pl3   1  UNL1       -0.2769
     39 C         -23.2927    1.8169   26.7336 C.3     1  UNL1        0.0237
     40 O         -26.9584    4.3767   33.4387 O.3     1  UNL1       -0.3340
     41 C         -23.4756    4.6424   32.9151 C.3     1  UNL1        0.0052
     42 C         -25.8320    3.5760   33.0569 C.3     1  UNL1        0.1469
     43 C         -20.9200    1.8819   27.8102 C.3     1  UNL1        0.0007
     44 O         -25.0101    6.5984   32.0478 O.3     1  UNL1       -0.2231
     45 C         -29.5376    7.5799   31.8864 C.2     1  UNL1        0.1915
     46 C         -28.6206    6.4915   31.8554 C.2     1  UNL1        0.0168
     47 C         -24.7253    4.1905   32.1314 C.3     1  UNL1        0.0601
     48 C         -27.1805    4.0881   30.0896 C.3     1  UNL1        0.0285
     49 C         -29.1407    0.8912   31.6735 C.2     1  UNL1        0.1140
     50 O         -29.3588    8.6396   31.0780 O.2     1  UNL1       -0.2869
     51 C         -22.3779    1.4601   27.6693 C.3     1  UNL1        0.0097
     52 C         -27.5029    6.3747   30.9119 C.3     1  UNL1        0.0320
     53 C         -29.2321    2.1666   32.1137 C.2     1  UNL1        0.0844
     54 C         -26.9528    0.5208   28.8243 C.3     1  UNL1        0.1343
     55 C         -24.3752    0.5323   28.2649 C.2     1  UNL1        0.0213
     56 C         -24.5872    1.3715   27.1566 C.2     1  UNL1       -0.0108
     57 C         -27.7031    1.3131   30.0334 C.2     1  UNL1        0.0748
     58 C         -26.6442    5.2329   30.6998 C.3     1  UNL1        0.0370
     59 C         -30.6759    7.5245   32.7462 C.2     1  UNL1        0.0417
@<TRIPOS>BOND
     1     1    36    1
     2     2     7    1
     3     2     1    1
     4     3     2    2
     5     4     3    1
     6     4     5    2
     7     5     6    1
     8     6     7    2
     9     8     1    1
    10     8     9    1
    11     8    12    1
    12     9    10    1
    13    10    11    1
    14    12    11    1
    15    13    56    1
    16    14    13    1
    17    14    15    1
    18    15    18    2
    19    16    17    1
    20    16    15    1
    21    19    14    2
    22    20    21    2
    23    20    19    1
    24    21    26    1
    25    22    21    1
    26    23    22    1
    27    24    23    1
    28    24    25    1
    29    26    27    1
    30    26    13    2
    31    28    35    1
    32    28    40    1
    33    29    49    1
    34    31    44    1
    35    31    47    1
    36    32    48    1
    37    32    38    1
    38    34    37    1
    39    35    37    2
    40    38    53    1
    41    38    28    1
    42    39    33    1
    43    39    56    1
    44    39    51    1
    45    42    40    1
    46    45    59    1
    47    46    45    2
    48    46    35    1
    49    47    41    1
    50    47    42    1
    51    49    53    2
    52    50    45    1
    53    51    43    1
    54    51    30    1
    55    52    46    1
    56    54    36    1
    57    54    57    1
    58    55    30    1
    59    55    36    1
    60    56    55    2
    61    57    32    1
    62    57    29    2
    63    58    48    1
    64    58    52    1
    65    58    31    1
    66    59    34    2
