@<TRIPOS>MOLECULE
outputs/IAG933/test6/raw/output_8867_IAG933_linker_design_.xyz
 45 50 0 0 0
SMALL
GASTEIGER

@<TRIPOS>ATOM
      1 C         -24.8550   -1.0120   30.1430 C.3     1  UNL1        0.0530
      2 C         -24.9730   -2.5050   29.7880 C.2     1  UNL1       -0.0198
      3 C         -23.9060   -3.1730   29.1460 C.2     1  UNL1       -0.0042
      4 C         -23.9890   -4.5490   28.8530 C.2     1  UNL1       -0.0003
      5 C         -25.1370   -5.2800   29.2050 C.2     1  UNL1       -0.0000
      6 C         -26.2320   -4.6110   29.7840 C.2     1  UNL1       -0.0003
      7 C         -26.1550   -3.2320   30.0650 C.2     1  UNL1       -0.0042
      8 C         -25.3870   -0.6790   31.5710 C.3     1  UNL1        0.0781
      9 C         -25.1890    0.7730   32.0280 C.3     1  UNL1        0.0192
     10 C         -25.3360    0.6840   33.5440 C.3     1  UNL1        0.0202
     11 C         -24.8290   -0.7150   33.9050 C.3     1  UNL1        0.0887
     12 N         -24.7580   -1.4810   32.6460 N.3     1  UNL1       -0.2191
     13 C         -25.6880    1.6140   26.4610 C.2     1  UNL1        0.0315
     14 C         -26.2500    2.9200   26.3950 C.2     1  UNL1        0.0739
     15 C         -25.6420    4.0930   27.1230 C.2     1  UNL1        0.2662
     16 N         -25.6140    5.2520   26.4490 N.am    1  UNL1       -0.1997
     17 C         -25.0260    6.4790   26.9630 C.3     1  UNL1        0.1388
     18 O         -25.1430    3.9660   28.2430 O.2     1  UNL1       -0.2683
     19 C         -27.4380    3.0910   25.6450 C.2     1  UNL1        0.1065
     20 N         -28.0750    2.0890   25.0030 N.2     1  UNL1       -0.2081
     21 C         -27.5430    0.8490   25.0790 C.2     1  UNL1        0.2530
     22 O         -28.1930   -0.2080   24.4770 O.2     1  UNL1       -0.4558
     23 C         -29.4600    0.0050   23.8660 C.3     1  UNL1        0.2426
     24 C         -30.0650   -1.3770   23.5730 C.3     1  UNL1        0.2292
     25 O         -30.7290   -1.8780   24.7210 O.3     1  UNL1       -0.2162
     26 C         -26.3540    0.5760   25.7770 C.2     1  UNL1        0.1904
     27 F         -25.8600   -0.6810   25.7950 F       1  UNL1       -0.1995
     28 C         -28.9535    1.3048   29.3365 C.3     1  UNL1        0.0866
     29 C         -28.1388   -0.7442   29.0644 C.3     1  UNL1        0.0028
     30 C         -28.8313    2.7608   28.9050 C.3     1  UNL1        0.0526
     31 C         -22.1084    1.3528   27.8027 C.3     1  UNL1        0.0353
     32 N         -30.1337    1.2554   30.1446 N.3     1  UNL1       -0.1672
     33 CL        -22.7156    2.0748   25.2032 Cl      1  UNL1       -0.1132
     34 O         -29.9509    2.3186   30.9435 O.3     1  UNL1       -0.2823
     35 C         -31.4771    1.2437   29.5853 C.3     1  UNL1        0.1009
     36 C         -22.9806    1.0722   26.6078 C.3     1  UNL1        0.1001
     37 N         -24.3509    0.8293   28.5897 N.3     1  UNL1       -0.2702
     38 C         -31.5755    0.3417   28.2803 C.3     1  UNL1        0.0199
     39 C         -26.7920   -0.4798   28.3908 C.3     1  UNL1        0.0164
     40 C         -29.1445    0.1673   28.3724 C.3     1  UNL1        0.0172
     41 C         -30.4002   -0.6653   28.2506 C.3     1  UNL1        0.0029
     42 C         -29.4992    3.4020   30.1024 C.3     1  UNL1        0.1680
     43 C         -25.4004   -0.1321   29.0317 C.3     1  UNL1        0.0631
     44 C         -24.5324    1.6340   27.3515 C.3     1  UNL1        0.0978
     45 C         -22.9247    0.8014   29.0088 C.3     1  UNL1        0.0736
@<TRIPOS>BOND
     1     1    43    1
     2     2     7    1
     3     2     1    1
     4     3     2    2
     5     4     3    1
     6     4     5    2
     7     5     6    1
     8     6     7    2
     9     8     1    1
    10     8     9    1
    11     8    12    1
    12     9    10    1
    13    10    11    1
    14    12    11    1
    15    14    13    1
    16    14    15    1
    17    15    18    2
    18    16    17    1
    19    16    15    1
    20    19    14    2
    21    20    21    2
    22    20    19    1
    23    21    26    1
    24    22    21    1
    25    23    22    1
    26    24    23    1
    27    24    25    1
    28    26    27    1
    29    26    13    2
    30    28    30    1
    31    28    32    1
    32    30    42    1
    33    31    45    1
    34    32    35    1
    35    32    34    1
    36    36    33    1
    37    36    44    1
    38    36    31    1
    39    37    45    1
    40    37    43    1
    41    38    35    1
    42    39    29    1
    43    40    29    1
    44    40    28    1
    45    41    38    1
    46    41    40    1
    47    42    34    1
    48    43    39    1
    49    44    13    1
    50    44    37    1
