@<TRIPOS>MOLECULE
outputs/IAG933/test6/raw/output_887_IAG933_linker_design_.xyz
 42 47 0 0 0
SMALL
GASTEIGER

@<TRIPOS>ATOM
      1 C         -24.8550   -1.0120   30.1430 C.3     1  UNL1        0.0692
      2 C         -24.9730   -2.5050   29.7880 C.2     1  UNL1       -0.0185
      3 C         -23.9060   -3.1730   29.1460 C.2     1  UNL1       -0.0041
      4 C         -23.9890   -4.5490   28.8530 C.2     1  UNL1       -0.0003
      5 C         -25.1370   -5.2800   29.2050 C.2     1  UNL1       -0.0000
      6 C         -26.2320   -4.6110   29.7840 C.2     1  UNL1       -0.0003
      7 C         -26.1550   -3.2320   30.0650 C.2     1  UNL1       -0.0041
      8 C         -25.3870   -0.6790   31.5710 C.3     1  UNL1        0.0795
      9 C         -25.1890    0.7730   32.0280 C.3     1  UNL1        0.0193
     10 C         -25.3360    0.6840   33.5440 C.3     1  UNL1        0.0202
     11 C         -24.8290   -0.7150   33.9050 C.3     1  UNL1        0.0887
     12 N         -24.7580   -1.4810   32.6460 N.3     1  UNL1       -0.2190
     13 C         -25.6880    1.6140   26.4610 C.2     1  UNL1        0.0255
     14 C         -26.2500    2.9200   26.3950 C.2     1  UNL1        0.0731
     15 C         -25.6420    4.0930   27.1230 C.2     1  UNL1        0.2661
     16 N         -25.6140    5.2520   26.4490 N.am    1  UNL1       -0.1997
     17 C         -25.0260    6.4790   26.9630 C.3     1  UNL1        0.1388
     18 O         -25.1430    3.9660   28.2430 O.2     1  UNL1       -0.2683
     19 C         -27.4380    3.0910   25.6450 C.2     1  UNL1        0.1064
     20 N         -28.0750    2.0890   25.0030 N.2     1  UNL1       -0.2081
     21 C         -27.5430    0.8490   25.0790 C.2     1  UNL1        0.2530
     22 O         -28.1930   -0.2080   24.4770 O.2     1  UNL1       -0.4558
     23 C         -29.4600    0.0050   23.8660 C.3     1  UNL1        0.2426
     24 C         -30.0650   -1.3770   23.5730 C.3     1  UNL1        0.2292
     25 O         -30.7290   -1.8780   24.7210 O.3     1  UNL1       -0.2162
     26 C         -26.3540    0.5760   25.7770 C.2     1  UNL1        0.1896
     27 F         -25.8600   -0.6810   25.7950 F       1  UNL1       -0.1996
     28 C         -24.4186    1.3872   27.0496 C.3     1  UNL1        0.1154
     29 C         -22.0880    2.4073   24.3298 C.3     1  UNL1        0.1780
     30 C         -22.2383   -0.3589   29.5644 C.3     1  UNL1        0.0326
     31 O         -23.2624    1.8301   24.8473 O.3     1  UNL1       -0.3174
     32 C         -20.2287   -0.0792   28.1447 C.3     1  UNL1        0.1290
     33 N         -20.5607    1.1555   27.9944 N.2     1  UNL1       -0.2381
     34 C         -23.2762    1.7399   26.2348 C.3     1  UNL1        0.2970
     35 C         -22.8101    0.5491   28.5687 C.2     1  UNL1        0.0256
     36 C         -25.2877    0.0567   29.1000 C.3     1  UNL1        0.1404
     37 O         -22.1302    2.0401   26.7549 O.2     1  UNL1       -0.4362
     38 C         -26.6624    0.6561   29.1570 C.3     1  UNL1        0.1737
     39 O         -26.5177   -0.4695   28.5366 O.3     1  UNL1       -0.3491
     40 C         -20.9873   -0.5059   29.3298 C.3     1  UNL1        0.0312
     41 C         -21.8358    1.3132   27.8075 C.2     1  UNL1        0.2178
     42 C         -24.1782    0.7037   28.2522 C.2     1  UNL1       -0.0070
@<TRIPOS>BOND
     1     1     2    1
     2     2     7    1
     3     3     2    2
     4     4     3    1
     5     4     5    2
     6     5     6    1
     7     6     7    2
     8     8     1    1
     9     8     9    1
    10     8    12    1
    11     9    10    1
    12    10    11    1
    13    12    11    1
    14    14    13    1
    15    14    15    1
    16    15    18    2
    17    16    17    1
    18    16    15    1
    19    19    14    2
    20    20    21    2
    21    20    19    1
    22    21    26    1
    23    22    21    1
    24    23    22    1
    25    24    23    1
    26    24    25    1
    27    26    27    1
    28    26    13    2
    29    28    13    1
    30    28    42    1
    31    29    31    1
    32    32    40    1
    33    33    32    1
    34    34    31    1
    35    34    37    1
    36    34    28    1
    37    35    30    1
    38    36    38    1
    39    36     1    1
    40    37    41    1
    41    39    36    1
    42    39    38    1
    43    40    30    1
    44    41    33    2
    45    41    35    1
    46    42    35    2
    47    42    36    1
