@<TRIPOS>MOLECULE
outputs/IAG933/test6/raw/output_8874_IAG933_linker_design_.xyz
 45 49 0 0 0
SMALL
GASTEIGER

@<TRIPOS>ATOM
      1 C         -24.8550   -1.0120   30.1430 C.3     1  UNL1        0.1561
      2 C         -24.9730   -2.5050   29.7880 C.2     1  UNL1        0.0060
      3 C         -23.9060   -3.1730   29.1460 C.2     1  UNL1       -0.0019
      4 C         -23.9890   -4.5490   28.8530 C.2     1  UNL1       -0.0002
      5 C         -25.1370   -5.2800   29.2050 C.2     1  UNL1       -0.0000
      6 C         -26.2320   -4.6110   29.7840 C.2     1  UNL1       -0.0002
      7 C         -26.1550   -3.2320   30.0650 C.2     1  UNL1       -0.0019
      8 C         -25.3870   -0.6790   31.5710 C.3     1  UNL1        0.1042
      9 C         -25.1890    0.7730   32.0280 C.3     1  UNL1        0.0217
     10 C         -25.3360    0.6840   33.5440 C.3     1  UNL1        0.0203
     11 C         -24.8290   -0.7150   33.9050 C.3     1  UNL1        0.0888
     12 N         -24.7580   -1.4810   32.6460 N.3     1  UNL1       -0.2166
     13 C         -25.6880    1.6140   26.4610 C.3     1  UNL1        0.1102
     14 C         -26.2500    2.9200   26.3950 C.2     1  UNL1        0.0583
     15 C         -25.6420    4.0930   27.1230 C.2     1  UNL1        0.2203
     16 N         -25.6140    5.2520   26.4490 N.2     1  UNL1       -0.2359
     17 C         -25.0260    6.4790   26.9630 C.3     1  UNL1        0.1550
     18 O         -25.1430    3.9660   28.2430 O.2     1  UNL1       -0.4366
     19 C         -27.4380    3.0910   25.6450 C.2     1  UNL1        0.1026
     20 N         -28.0750    2.0890   25.0030 N.2     1  UNL1       -0.2118
     21 C         -27.5430    0.8490   25.0790 C.2     1  UNL1        0.2345
     22 O         -28.1930   -0.2080   24.4770 O.2     1  UNL1       -0.4585
     23 C         -29.4600    0.0050   23.8660 C.3     1  UNL1        0.2423
     24 C         -30.0650   -1.3770   23.5730 C.3     1  UNL1        0.2292
     25 O         -30.7290   -1.8780   24.7210 O.3     1  UNL1       -0.2162
     26 C         -26.3540    0.5760   25.7770 C.3     1  UNL1        0.2455
     27 F         -25.8600   -0.6810   25.7950 F       1  UNL1       -0.2265
     28 N         -23.4948    1.5947   25.7658 N.ar    1  UNL1       -0.2202
     29 O         -25.0218    2.1961   29.8874 O.3     1  UNL1       -0.2918
     30 C         -24.0422    1.2047   27.9836 C.ar    1  UNL1        0.0485
     31 F         -21.4020    1.9943   25.0274 F       1  UNL1       -0.1808
     32 C         -25.0898    4.4052   30.5866 C.3     1  UNL1        0.0881
     33 C         -25.0125    3.4673   29.4609 C.3     1  UNL1        0.2919
     34 C         -22.1310    0.1244   29.2493 C.3     1  UNL1        0.2108
     35 O         -25.3849   -0.2753   29.0799 O.3     1  UNL1       -0.3236
     36 S         -26.5142    6.7229   29.8669 S.3     1  UNL1       -0.1391
     37 C         -25.0653    7.5458   30.5253 C.3     1  UNL1        0.0692
     38 F         -20.4835    1.8539   27.6849 F       1  UNL1       -0.2004
     39 C         -26.4245    5.0606   30.4131 C.3     1  UNL1        0.0641
     40 C         -21.7292    1.5346   27.2983 C.ar    1  UNL1        0.1841
     41 O         -20.9602   -0.4934   28.9302 O.3     1  UNL1       -0.2151
     42 C         -24.4071    1.4759   26.7428 C.ar    1  UNL1        0.0690
     43 C         -22.6726    0.9692   28.2588 C.ar    1  UNL1        0.0438
     44 C         -25.1764    1.1473   28.9126 C.3     1  UNL1        0.2638
     45 C         -22.2827    1.7031   26.0482 C.ar    1  UNL1        0.2493
@<TRIPOS>BOND
     1     1    35    1
     2     2     7    1
     3     2     1    1
     4     3     2    2
     5     4     3    1
     6     4     5    2
     7     5     6    1
     8     6     7    2
     9     8     1    1
    10     8     9    1
    11     8    12    1
    12     9    10    1
    13    10    11    1
    14    12    11    1
    15    13    14    1
    16    13    42    1
    17    14    15    1
    18    15    18    1
    19    16    17    1
    20    16    15    2
    21    18    33    1
    22    19    14    2
    23    20    21    2
    24    20    19    1
    25    21    26    1
    26    22    21    1
    27    23    22    1
    28    24    23    1
    29    24    25    1
    30    26    27    1
    31    26    13    1
    32    28    45   ar
    33    28    42   ar
    34    30    43   ar
    35    30    44    1
    36    31    45    1
    37    33    29    1
    38    33    32    1
    39    36    39    1
    40    36    37    1
    41    39    32    1
    42    40    38    1
    43    40    43   ar
    44    41    34    1
    45    42    30   ar
    46    43    34    1
    47    44    35    1
    48    44    29    1
    49    45    40   ar
