@<TRIPOS>MOLECULE
outputs/IAG933/test6/raw/output_8878_IAG933_linker_design_.xyz
 38 42 0 0 0
SMALL
GASTEIGER

@<TRIPOS>ATOM
      1 C         -24.8550   -1.0120   30.1430 C.3     1  UNL1        0.1133
      2 C         -24.9730   -2.5050   29.7880 C.2     1  UNL1       -0.0050
      3 C         -23.9060   -3.1730   29.1460 C.2     1  UNL1       -0.0029
      4 C         -23.9890   -4.5490   28.8530 C.2     1  UNL1       -0.0003
      5 C         -25.1370   -5.2800   29.2050 C.2     1  UNL1       -0.0000
      6 C         -26.2320   -4.6110   29.7840 C.2     1  UNL1       -0.0003
      7 C         -26.1550   -3.2320   30.0650 C.2     1  UNL1       -0.0029
      8 C         -25.3870   -0.6790   31.5710 C.3     1  UNL1        0.0930
      9 C         -25.1890    0.7730   32.0280 C.3     1  UNL1        0.0206
     10 C         -25.3360    0.6840   33.5440 C.3     1  UNL1        0.0203
     11 C         -24.8290   -0.7150   33.9050 C.3     1  UNL1        0.0888
     12 N         -24.7580   -1.4810   32.6460 N.3     1  UNL1       -0.2177
     13 C         -25.6880    1.6140   26.4610 C.2     1  UNL1        0.1767
     14 C         -26.2500    2.9200   26.3950 C.2     1  UNL1        0.1135
     15 C         -25.6420    4.0930   27.1230 C.2     1  UNL1        0.2698
     16 N         -25.6140    5.2520   26.4490 N.am    1  UNL1       -0.1996
     17 C         -25.0260    6.4790   26.9630 C.3     1  UNL1        0.1388
     18 O         -25.1430    3.9660   28.2430 O.2     1  UNL1       -0.2682
     19 C         -27.4380    3.0910   25.6450 C.2     1  UNL1        0.1102
     20 N         -28.0750    2.0890   25.0030 N.2     1  UNL1       -0.2078
     21 C         -27.5430    0.8490   25.0790 C.2     1  UNL1        0.2568
     22 O         -28.1930   -0.2080   24.4770 O.2     1  UNL1       -0.4557
     23 C         -29.4600    0.0050   23.8660 C.3     1  UNL1        0.2426
     24 C         -30.0650   -1.3770   23.5730 C.3     1  UNL1        0.2292
     25 O         -30.7290   -1.8780   24.7210 O.3     1  UNL1       -0.2162
     26 C         -26.3540    0.5760   25.7770 C.2     1  UNL1        0.2297
     27 F         -25.8600   -0.6810   25.7950 F       1  UNL1       -0.1956
     28 C         -22.3792    1.9752   27.5226 C.3     1  UNL1        0.1172
     29 N         -23.3105    2.5435   25.4291 N.2     1  UNL1        0.1883
     30 N         -24.5000    1.4202   27.0430 N.pl3   1  UNL1       -0.1640
     31 C         -23.1977    0.4281   28.9869 C.3     1  UNL1        0.1967
     32 C         -23.4437    2.0399   26.5570 C.2     1  UNL1        0.3565
     33 C         -21.0805    1.4455   27.3899 C.3     1  UNL1        0.0445
     34 C         -23.0175    1.9235   29.0154 C.3     1  UNL1        0.0608
     35 C         -20.6371    0.4931   28.3969 C.3     1  UNL1        0.1444
     36 C         -24.4736    0.2658   27.9917 C.3     1  UNL1        0.2511
     37 N         -23.5475   -0.3880   30.0377 N.3     1  UNL1       -0.1871
     38 O         -21.8530   -0.1437   29.0051 O.3     1  UNL1       -0.3392
@<TRIPOS>BOND
     1     1    37    1
     2     2     7    1
     3     2     1    1
     4     3     2    2
     5     4     3    1
     6     4     5    2
     7     5     6    1
     8     6     7    2
     9     8     1    1
    10     8     9    1
    11     8    12    1
    12     9    10    1
    13    10    11    1
    14    12    11    1
    15    13    30    1
    16    14    13    1
    17    14    15    1
    18    15    18    2
    19    16    17    1
    20    16    15    1
    21    19    14    2
    22    20    21    2
    23    20    19    1
    24    21    26    1
    25    22    21    1
    26    23    22    1
    27    24    23    1
    28    24    25    1
    29    26    27    1
    30    26    13    2
    31    28    33    1
    32    28    34    1
    33    29    32    2
    34    30    36    1
    35    31    38    1
    36    31    34    1
    37    31    37    1
    38    32    30    1
    39    32    28    1
    40    33    35    1
    41    35    38    1
    42    36    31    1
