@<TRIPOS>MOLECULE
No_888-gen_results/8p0m/2024-11-27-11-27-31/
 13 14 0 0 0
SMALL
GASTEIGER

@<TRIPOS>ATOM
      1 C         -28.0162   -0.8135   28.8779 C.ar    1  UNL1       -0.0000
      2 C         -27.0636   -0.1189   28.6079 C.ar    1  UNL1       -0.0000
      3 C         -25.7647   -0.3897   29.0360 C.ar    1  UNL1       -0.0000
      4 C         -24.5516    0.4058   28.7646 C.ar    1  UNL1       -0.0003
      5 C         -23.2300    0.1178   29.2575 C.ar    1  UNL1       -0.0000
      6 C         -23.0942   -1.1309   29.8730 C.ar    1  UNL1       -0.0000
      7 C         -27.7980   -1.9341   29.8560 C.ar    1  UNL1        0.0000
      8 C         -26.5420   -2.3268   30.2580 C.ar    1  UNL1       -0.0000
      9 C         -25.4514   -1.5516   29.9079 C.ar    1  UNL1       -0.0000
     10 C         -24.1562   -1.9097   30.2809 C.ar    1  UNL1       -0.0000
     11 C         -24.6450    1.6582   27.9464 C.2     1  UNL1       -0.0046
     12 C         -23.7170    1.8151   26.9240 C.2     1  UNL1       -0.0258
     13 C         -23.8494    2.9520   26.0914 C.3     1  UNL1        0.0307
@<TRIPOS>BOND
     1     4    11    1
     2    11    12    2
     3    12    13    1
     4     1     2   ar
     5     2     3   ar
     6     9     8   ar
     7     8     7   ar
     8     7     1   ar
     9     3     4   ar
    10     4     5   ar
    11     5     6   ar
    12     6    10   ar
    13    10     9   ar
    14     9     3   ar
