@<TRIPOS>MOLECULE
outputs/IAG933/test6/raw/output_8881_IAG933_linker_design_.xyz
 40 44 0 0 0
SMALL
GASTEIGER

@<TRIPOS>ATOM
      1 C         -24.8550   -1.0120   30.1430 C.3     1  UNL1        0.1135
      2 C         -24.9730   -2.5050   29.7880 C.2     1  UNL1       -0.0029
      3 C         -23.9060   -3.1730   29.1460 C.2     1  UNL1       -0.0026
      4 C         -23.9890   -4.5490   28.8530 C.2     1  UNL1       -0.0003
      5 C         -25.1370   -5.2800   29.2050 C.2     1  UNL1       -0.0000
      6 C         -26.2320   -4.6110   29.7840 C.2     1  UNL1       -0.0003
      7 C         -26.1550   -3.2320   30.0650 C.2     1  UNL1       -0.0026
      8 C         -25.3870   -0.6790   31.5710 C.3     1  UNL1        0.0951
      9 C         -25.1890    0.7730   32.0280 C.3     1  UNL1        0.0209
     10 C         -25.3360    0.6840   33.5440 C.3     1  UNL1        0.0203
     11 C         -24.8290   -0.7150   33.9050 C.3     1  UNL1        0.0888
     12 N         -24.7580   -1.4810   32.6460 N.3     1  UNL1       -0.2174
     13 C         -25.6880    1.6140   26.4610 C.2     1  UNL1        0.0735
     14 C         -26.2500    2.9200   26.3950 C.2     1  UNL1        0.0795
     15 C         -25.6420    4.0930   27.1230 C.2     1  UNL1        0.2665
     16 N         -25.6140    5.2520   26.4490 N.am    1  UNL1       -0.1997
     17 C         -25.0260    6.4790   26.9630 C.3     1  UNL1        0.1388
     18 O         -25.1430    3.9660   28.2430 O.2     1  UNL1       -0.2683
     19 C         -27.4380    3.0910   25.6450 C.2     1  UNL1        0.1068
     20 N         -28.0750    2.0890   25.0030 N.2     1  UNL1       -0.2081
     21 C         -27.5430    0.8490   25.0790 C.2     1  UNL1        0.2534
     22 O         -28.1930   -0.2080   24.4770 O.2     1  UNL1       -0.4558
     23 C         -29.4600    0.0050   23.8660 C.3     1  UNL1        0.2426
     24 C         -30.0650   -1.3770   23.5730 C.3     1  UNL1        0.2292
     25 O         -30.7290   -1.8780   24.7210 O.3     1  UNL1       -0.2162
     26 C         -26.3540    0.5760   25.7770 C.2     1  UNL1        0.1960
     27 F         -25.8600   -0.6810   25.7950 F       1  UNL1       -0.1991
     28 C         -27.8756    0.2641   29.5118 C.3     1  UNL1        0.1948
     29 C         -26.5200    0.4734   28.9311 C.3     1  UNL1        0.2231
     30 C         -22.0120    1.5184   27.6612 C.2     1  UNL1        0.2319
     31 C         -22.5312    1.9121   26.4191 C.3     1  UNL1        0.3821
     32 C         -24.1634    0.6621   28.2429 C.2     1  UNL1        0.1260
     33 N         -25.1466    0.0005   29.0438 N.pl3   1  UNL1       -0.2756
     34 C         -24.4598    1.2400   27.0415 C.2     1  UNL1        0.1608
     35 O         -22.2705    0.2222   29.5931 O.2     1  UNL1       -0.2828
     36 O         -27.3882   -0.5133   28.4988 O.3     1  UNL1       -0.3310
     37 C         -22.8212    0.7831   28.5434 C.2     1  UNL1        0.2413
     38 F         -20.7155    1.7783   27.9055 F       1  UNL1       -0.1986
     39 F         -22.0553    2.7530   25.5539 F       1  UNL1       -0.1805
     40 O         -23.5834    1.4487   26.0970 O.2     1  UNL1       -0.4429
@<TRIPOS>BOND
     1     1    33    1
     2     2     7    1
     3     2     1    1
     4     3     2    2
     5     4     3    1
     6     4     5    2
     7     5     6    1
     8     6     7    2
     9     8     1    1
    10     8     9    1
    11     8    12    1
    12     9    10    1
    13    10    11    1
    14    12    11    1
    15    13    34    1
    16    14    13    1
    17    14    15    1
    18    15    18    2
    19    16    17    1
    20    16    15    1
    21    19    14    2
    22    20    21    2
    23    20    19    1
    24    21    26    1
    25    22    21    1
    26    23    22    1
    27    24    23    1
    28    24    25    1
    29    26    27    1
    30    26    13    2
    31    29    33    1
    32    29    28    1
    33    30    38    1
    34    30    37    2
    35    31    39    1
    36    31    30    1
    37    32    37    1
    38    32    33    1
    39    34    32    2
    40    36    29    1
    41    36    28    1
    42    37    35    1
    43    40    31    1
    44    40    34    1
