@<TRIPOS>MOLECULE
outputs/IAG933/test6/raw/output_8882_IAG933_linker_design_.xyz
 42 45 0 0 0
SMALL
GASTEIGER

@<TRIPOS>ATOM
      1 C         -24.8550   -1.0120   30.1430 C.3     1  UNL1        0.0440
      2 C         -24.9730   -2.5050   29.7880 C.2     1  UNL1       -0.0208
      3 C         -23.9060   -3.1730   29.1460 C.2     1  UNL1       -0.0042
      4 C         -23.9890   -4.5490   28.8530 C.2     1  UNL1       -0.0003
      5 C         -25.1370   -5.2800   29.2050 C.2     1  UNL1       -0.0000
      6 C         -26.2320   -4.6110   29.7840 C.2     1  UNL1       -0.0003
      7 C         -26.1550   -3.2320   30.0650 C.2     1  UNL1       -0.0042
      8 C         -25.3870   -0.6790   31.5710 C.3     1  UNL1        0.0772
      9 C         -25.1890    0.7730   32.0280 C.3     1  UNL1        0.0192
     10 C         -25.3360    0.6840   33.5440 C.3     1  UNL1        0.0202
     11 C         -24.8290   -0.7150   33.9050 C.3     1  UNL1        0.0887
     12 N         -24.7580   -1.4810   32.6460 N.3     1  UNL1       -0.2191
     13 C         -25.6880    1.6140   26.4610 C.2     1  UNL1        0.0881
     14 C         -26.2500    2.9200   26.3950 C.2     1  UNL1        0.0899
     15 C         -25.6420    4.0930   27.1230 C.2     1  UNL1        0.2676
     16 N         -25.6140    5.2520   26.4490 N.am    1  UNL1       -0.1997
     17 C         -25.0260    6.4790   26.9630 C.3     1  UNL1        0.1388
     18 O         -25.1430    3.9660   28.2430 O.2     1  UNL1       -0.2683
     19 C         -27.4380    3.0910   25.6450 C.2     1  UNL1        0.1080
     20 N         -28.0750    2.0890   25.0030 N.2     1  UNL1       -0.2080
     21 C         -27.5430    0.8490   25.0790 C.2     1  UNL1        0.2546
     22 O         -28.1930   -0.2080   24.4770 O.2     1  UNL1       -0.4558
     23 C         -29.4600    0.0050   23.8660 C.3     1  UNL1        0.2426
     24 C         -30.0650   -1.3770   23.5730 C.3     1  UNL1        0.2292
     25 O         -30.7290   -1.8780   24.7210 O.3     1  UNL1       -0.2162
     26 C         -26.3540    0.5760   25.7770 C.2     1  UNL1        0.2063
     27 F         -25.8600   -0.6810   25.7950 F       1  UNL1       -0.1979
     28 C         -27.0064    0.8084   29.3157 C.2     1  UNL1       -0.0205
     29 C         -29.0569    2.7952   29.4876 C.2     1  UNL1       -0.0000
     30 C         -23.4778    1.4498   25.9683 C.3     1  UNL1        0.2783
     31 N         -24.4315    1.2398   27.1420 N.pl3   1  UNL1       -0.2778
     32 C         -25.9477   -0.3971   29.1786 C.3     1  UNL1        0.0475
     33 C         -21.7634    1.4207   28.0727 C.3     1  UNL1        0.3290
     34 C         -29.2438    1.6215   28.7578 C.2     1  UNL1       -0.0003
     35 C         -28.2298    0.6544   28.6740 C.2     1  UNL1       -0.0042
     36 C         -25.0373    0.3306   28.1846 C.3     1  UNL1        0.0979
     37 C         -26.8558    2.0003   30.0909 C.2     1  UNL1       -0.0042
     38 C         -22.0887   -0.4554   29.6715 C.3     1  UNL1        0.1771
     39 C         -27.8581    2.9478   30.1813 C.2     1  UNL1       -0.0003
     40 O         -21.4715    1.7248   27.0750 O.3     1  UNL1       -0.1849
     41 O         -22.3013    2.3195   26.1937 O.3     1  UNL1       -0.1951
     42 O         -22.6005    0.7121   29.1307 O.3     1  UNL1       -0.3220
@<TRIPOS>BOND
     1     1    32    1
     2     2     7    1
     3     2     1    1
     4     3     2    2
     5     4     3    1
     6     4     5    2
     7     5     6    1
     8     6     7    2
     9     8     1    1
    10     8     9    1
    11     8    12    1
    12     9    10    1
    13    10    11    1
    14    12    11    1
    15    13    31    1
    16    14    13    1
    17    14    15    1
    18    15    18    2
    19    16    17    1
    20    16    15    1
    21    19    14    2
    22    20    21    2
    23    20    19    1
    24    21    26    1
    25    22    21    1
    26    23    22    1
    27    24    23    1
    28    24    25    1
    29    26    27    1
    30    26    13    2
    31    28    37    1
    32    29    39    1
    33    30    41    1
    34    30    31    1
    35    31    36    1
    36    32    36    1
    37    32    28    1
    38    33    42    1
    39    34    29    2
    40    35    34    1
    41    35    28    2
    42    37    39    2
    43    40    33    1
    44    41    40    1
    45    42    38    1
