@<TRIPOS>MOLECULE
outputs/IAG933/test6/raw/output_8884_IAG933_linker_design_.xyz
 44 49 0 0 0
SMALL
GASTEIGER

@<TRIPOS>ATOM
      1 C         -24.8550   -1.0120   30.1430 C.3     1  UNL1        0.1153
      2 C         -24.9730   -2.5050   29.7880 C.2     1  UNL1       -0.0029
      3 C         -23.9060   -3.1730   29.1460 C.2     1  UNL1       -0.0026
      4 C         -23.9890   -4.5490   28.8530 C.2     1  UNL1       -0.0003
      5 C         -25.1370   -5.2800   29.2050 C.2     1  UNL1       -0.0000
      6 C         -26.2320   -4.6110   29.7840 C.2     1  UNL1       -0.0003
      7 C         -26.1550   -3.2320   30.0650 C.2     1  UNL1       -0.0026
      8 C         -25.3870   -0.6790   31.5710 C.3     1  UNL1        0.0952
      9 C         -25.1890    0.7730   32.0280 C.3     1  UNL1        0.0209
     10 C         -25.3360    0.6840   33.5440 C.3     1  UNL1        0.0203
     11 C         -24.8290   -0.7150   33.9050 C.3     1  UNL1        0.0888
     12 N         -24.7580   -1.4810   32.6460 N.3     1  UNL1       -0.2174
     13 C         -25.6880    1.6140   26.4610 C.2     1  UNL1        0.0891
     14 C         -26.2500    2.9200   26.3950 C.2     1  UNL1        0.0900
     15 C         -25.6420    4.0930   27.1230 C.2     1  UNL1        0.2676
     16 N         -25.6140    5.2520   26.4490 N.am    1  UNL1       -0.1997
     17 C         -25.0260    6.4790   26.9630 C.3     1  UNL1        0.1388
     18 O         -25.1430    3.9660   28.2430 O.2     1  UNL1       -0.2683
     19 C         -27.4380    3.0910   25.6450 C.2     1  UNL1        0.1080
     20 N         -28.0750    2.0890   25.0030 N.2     1  UNL1       -0.2080
     21 C         -27.5430    0.8490   25.0790 C.2     1  UNL1        0.2546
     22 O         -28.1930   -0.2080   24.4770 O.2     1  UNL1       -0.4558
     23 C         -29.4600    0.0050   23.8660 C.3     1  UNL1        0.2426
     24 C         -30.0650   -1.3770   23.5730 C.3     1  UNL1        0.2292
     25 O         -30.7290   -1.8780   24.7210 O.3     1  UNL1       -0.2162
     26 C         -26.3540    0.5760   25.7770 C.2     1  UNL1        0.2063
     27 F         -25.8600   -0.6810   25.7950 F       1  UNL1       -0.1979
     28 N         -22.4277    0.3315   28.3635 N.3     1  UNL1       -0.2359
     29 C         -22.7837    2.1985   25.3715 C.3     1  UNL1        0.1934
     30 C         -27.7519    3.5170   30.8842 C.3     1  UNL1        0.1748
     31 C         -23.4480    0.2450   28.6889 C.3     1  UNL1        0.1157
     32 N         -25.6678    0.0781   29.2094 N.am    1  UNL1       -0.2581
     33 O         -27.0361    2.6499   29.9345 O.3     1  UNL1       -0.3417
     34 C         -23.3153    1.3865   26.4528 C.3     1  UNL1        0.2125
     35 N         -20.8491    1.6627   27.5896 N.3     1  UNL1       -0.1105
     36 C         -24.8762    0.7534   28.5724 C.3     1  UNL1        0.1706
     37 O         -27.8197   -0.6317   28.9025 O.2     1  UNL1       -0.2721
     38 C         -21.1494   -0.1958   28.8729 C.3     1  UNL1        0.1853
     39 C         -22.1573    1.1952   27.5097 C.3     1  UNL1        0.1976
     40 N         -20.2577    0.7906   28.4917 N.3     1  UNL1       -0.1118
     41 C         -27.8809    1.5971   29.5821 C.3     1  UNL1        0.2272
     42 C         -27.0831    0.3007   29.2153 C.2     1  UNL1        0.2572
     43 N         -24.5497    1.3125   27.2623 N.pl3   1  UNL1       -0.2670
     44 O         -23.1723    0.8818   25.1513 O.3     1  UNL1       -0.3320
@<TRIPOS>BOND
     1     1    32    1
     2     2     7    1
     3     2     1    1
     4     3     2    2
     5     4     3    1
     6     4     5    2
     7     5     6    1
     8     6     7    2
     9     8     1    1
    10     8     9    1
    11     8    12    1
    12     9    10    1
    13    10    11    1
    14    12    11    1
    15    13    43    1
    16    14    13    1
    17    14    15    1
    18    15    18    2
    19    16    17    1
    20    16    15    1
    21    19    14    2
    22    20    21    2
    23    20    19    1
    24    21    26    1
    25    22    21    1
    26    23    22    1
    27    24    23    1
    28    24    25    1
    29    26    27    1
    30    26    13    2
    31    28    31    1
    32    28    38    1
    33    32    42   am
    34    33    30    1
    35    34    29    1
    36    34    43    1
    37    34    39    1
    38    35    40    1
    39    36    31    1
    40    36    32    1
    41    37    42    2
    42    39    35    1
    43    39    28    1
    44    40    38    1
    45    41    33    1
    46    42    41    1
    47    43    36    1
    48    44    29    1
    49    44    34    1
