@<TRIPOS>MOLECULE
outputs/IAG933/test6/raw/output_8888_IAG933_linker_design_.xyz
 48 52 0 0 0
SMALL
GASTEIGER

@<TRIPOS>ATOM
      1 C         -24.8550   -1.0120   30.1430 C.3     1  UNL1        0.0992
      2 C         -24.9730   -2.5050   29.7880 C.2     1  UNL1       -0.0063
      3 C         -23.9060   -3.1730   29.1460 C.2     1  UNL1       -0.0029
      4 C         -23.9890   -4.5490   28.8530 C.2     1  UNL1       -0.0003
      5 C         -25.1370   -5.2800   29.2050 C.2     1  UNL1       -0.0000
      6 C         -26.2320   -4.6110   29.7840 C.2     1  UNL1       -0.0003
      7 C         -26.1550   -3.2320   30.0650 C.2     1  UNL1       -0.0029
      8 C         -25.3870   -0.6790   31.5710 C.3     1  UNL1        0.0917
      9 C         -25.1890    0.7730   32.0280 C.3     1  UNL1        0.0206
     10 C         -25.3360    0.6840   33.5440 C.3     1  UNL1        0.0203
     11 C         -24.8290   -0.7150   33.9050 C.3     1  UNL1        0.0888
     12 N         -24.7580   -1.4810   32.6460 N.3     1  UNL1       -0.2178
     13 C         -25.6880    1.6140   26.4610 C.2     1  UNL1        0.0898
     14 C         -26.2500    2.9200   26.3950 C.2     1  UNL1        0.0900
     15 C         -25.6420    4.0930   27.1230 C.2     1  UNL1        0.2676
     16 N         -25.6140    5.2520   26.4490 N.am    1  UNL1       -0.1997
     17 C         -25.0260    6.4790   26.9630 C.3     1  UNL1        0.1388
     18 O         -25.1430    3.9660   28.2430 O.2     1  UNL1       -0.2683
     19 C         -27.4380    3.0910   25.6450 C.2     1  UNL1        0.1080
     20 N         -28.0750    2.0890   25.0030 N.2     1  UNL1       -0.2080
     21 C         -27.5430    0.8490   25.0790 C.2     1  UNL1        0.2546
     22 O         -28.1930   -0.2080   24.4770 O.2     1  UNL1       -0.4559
     23 C         -29.4600    0.0050   23.8660 C.3     1  UNL1        0.2391
     24 C         -30.0650   -1.3770   23.5730 C.3     1  UNL1        0.1900
     25 O         -30.7290   -1.8780   24.7210 O.3     1  UNL1       -0.3407
     26 C         -26.3540    0.5760   25.7770 C.2     1  UNL1        0.2064
     27 F         -25.8600   -0.6810   25.7950 F       1  UNL1       -0.1979
     28 C         -23.6387    1.6336   26.1663 C.3     1  UNL1        0.3100
     29 N         -34.2727   -1.7676   26.9269 N.am    1  UNL1       -0.1715
     30 C         -24.8023    0.6262   28.5115 C.3     1  UNL1        0.1733
     31 C         -34.3613   -2.5539   28.2096 C.3     1  UNL1        0.2607
     32 C         -33.0211   -0.7225   29.4294 C.3     1  UNL1        0.1763
     33 C         -32.9744   -1.9094   26.1266 C.2     1  UNL1        0.2733
     34 C         -31.5129   -0.9450   29.6417 C.3     1  UNL1        0.1770
     35 C         -31.9593    0.5683   25.9096 C.3     1  UNL1        0.1838
     36 N         -21.9207    0.9210   28.6584 N.2     1  UNL1       -0.1931
     37 O         -31.6590    1.2301   27.1930 O.3     1  UNL1       -0.3236
     38 N         -24.4801    1.3359   27.3844 N.pl3   1  UNL1       -0.2543
     39 C         -22.5570   -0.0134   29.5584 C.3     1  UNL1        0.2080
     40 F         -20.5038    1.7950   27.4743 F       1  UNL1       -0.1433
     41 O         -32.4088   -3.0275   26.1755 O.2     1  UNL1       -0.2705
     42 O         -33.8683   -1.9192   29.4071 O.3     1  UNL1       -0.3305
     43 C         -31.8216   -0.9435   25.2912 C.3     1  UNL1        0.2224
     44 C         -21.6498    1.3298   27.4277 C.2     1  UNL1        0.3772
     45 O         -30.7443   -0.7321   28.4507 O.3     1  UNL1       -0.3241
     46 C         -30.6726    0.6601   28.0828 C.3     1  UNL1        0.2941
     47 N         -24.0437   -0.0217   29.3688 N.3     1  UNL1       -0.2307
     48 O         -22.3634    2.0541   26.4857 O.2     1  UNL1       -0.4182
@<TRIPOS>BOND
     1     1     2    1
     2     2     7    1
     3     3     2    2
     4     4     3    1
     5     4     5    2
     6     5     6    1
     7     6     7    2
     8     8     1    1
     9     8     9    1
    10     8    12    1
    11     9    10    1
    12    10    11    1
    13    12    11    1
    14    13    38    1
    15    14    13    1
    16    14    15    1
    17    15    18    2
    18    16    17    1
    19    16    15    1
    20    19    14    2
    21    20    21    2
    22    20    19    1
    23    21    26    1
    24    22    21    1
    25    23    22    1
    26    24    23    1
    27    24    25    1
    28    26    27    1
    29    26    13    2
    30    28    48    1
    31    28    38    1
    32    29    31    1
    33    30    47    1
    34    31    42    1
    35    32    34    1
    36    33    41    2
    37    33    29    1
    38    35    37    1
    39    36    39    1
    40    37    46    1
    41    38    30    1
    42    42    32    1
    43    43    25    1
    44    43    35    1
    45    43    33    1
    46    44    40    1
    47    44    36    2
    48    45    34    1
    49    46    45    1
    50    47    39    1
    51    47     1    1
    52    48    44    1
