@<TRIPOS>MOLECULE
outputs/IAG933/test6/raw/output_8889_IAG933_linker_design_.xyz
 45 50 0 0 0
SMALL
GASTEIGER

@<TRIPOS>ATOM
      1 C         -24.8550   -1.0120   30.1430 C.3     1  UNL1        0.0981
      2 C         -24.9730   -2.5050   29.7880 C.2     1  UNL1       -0.0064
      3 C         -23.9060   -3.1730   29.1460 C.2     1  UNL1       -0.0029
      4 C         -23.9890   -4.5490   28.8530 C.2     1  UNL1       -0.0003
      5 C         -25.1370   -5.2800   29.2050 C.2     1  UNL1       -0.0000
      6 C         -26.2320   -4.6110   29.7840 C.2     1  UNL1       -0.0003
      7 C         -26.1550   -3.2320   30.0650 C.2     1  UNL1       -0.0029
      8 C         -25.3870   -0.6790   31.5710 C.3     1  UNL1        0.0916
      9 C         -25.1890    0.7730   32.0280 C.3     1  UNL1        0.0206
     10 C         -25.3360    0.6840   33.5440 C.3     1  UNL1        0.0203
     11 C         -24.8290   -0.7150   33.9050 C.3     1  UNL1        0.0888
     12 N         -24.7580   -1.4810   32.6460 N.3     1  UNL1       -0.2178
     13 C         -25.6880    1.6140   26.4610 C.2     1  UNL1        0.0275
     14 C         -26.2500    2.9200   26.3950 C.2     1  UNL1        0.0731
     15 C         -25.6420    4.0930   27.1230 C.2     1  UNL1        0.2661
     16 N         -25.6140    5.2520   26.4490 N.am    1  UNL1       -0.1997
     17 C         -25.0260    6.4790   26.9630 C.3     1  UNL1        0.1388
     18 O         -25.1430    3.9660   28.2430 O.2     1  UNL1       -0.2683
     19 C         -27.4380    3.0910   25.6450 C.2     1  UNL1        0.1064
     20 N         -28.0750    2.0890   25.0030 N.2     1  UNL1       -0.2081
     21 C         -27.5430    0.8490   25.0790 C.2     1  UNL1        0.2530
     22 O         -28.1930   -0.2080   24.4770 O.2     1  UNL1       -0.4558
     23 C         -29.4600    0.0050   23.8660 C.3     1  UNL1        0.2426
     24 C         -30.0650   -1.3770   23.5730 C.3     1  UNL1        0.2292
     25 O         -30.7290   -1.8780   24.7210 O.3     1  UNL1       -0.2162
     26 C         -26.3540    0.5760   25.7770 C.2     1  UNL1        0.1897
     27 F         -25.8600   -0.6810   25.7950 F       1  UNL1       -0.1996
     28 C         -24.5338    0.1192   28.1027 C.3     1  UNL1        0.0783
     29 C         -26.5440    0.8223   29.1832 C.3     1  UNL1        0.2289
     30 C         -27.7767    3.8098   30.3933 C.3     1  UNL1        0.0722
     31 N         -25.2340    0.2806   29.3266 N.3     1  UNL1       -0.2437
     32 O         -27.3787   -0.2376   28.6322 O.3     1  UNL1       -0.2034
     33 C         -24.3996    1.3104   27.1438 C.3     1  UNL1        0.1385
     34 C         -27.5551    1.4395   30.1931 C.3     1  UNL1        0.1228
     35 O         -23.2145    2.7265   25.5851 O.2     1  UNL1       -0.2497
     36 C         -23.2039    2.0024   26.6237 C.2     1  UNL1        0.3219
     37 O         -21.9888    1.8224   27.1765 O.3     1  UNL1       -0.4520
     38 N         -28.2856    2.6241   29.6648 N.3     1  UNL1       -0.2694
     39 C         -28.8689    4.8207   30.6566 C.3     1  UNL1        0.0174
     40 C         -29.9295    4.8069   29.5630 C.3     1  UNL1        0.0029
     41 C         -29.7045    2.2438   29.5073 C.3     1  UNL1        0.0722
     42 C         -22.2633    1.1293   28.3795 C.3     1  UNL1        0.1703
     43 C         -22.3837    0.2456   29.6748 C.3     1  UNL1        0.0486
     44 C         -23.0649   -0.2794   28.2995 C.3     1  UNL1        0.0593
     45 C         -30.6276    3.4497   29.5360 C.3     1  UNL1        0.0174
@<TRIPOS>BOND
     1     1    31    1
     2     2     7    1
     3     2     1    1
     4     3     2    2
     5     4     3    1
     6     4     5    2
     7     5     6    1
     8     6     7    2
     9     8     1    1
    10     8     9    1
    11     8    12    1
    12     9    10    1
    13    10    11    1
    14    12    11    1
    15    14    13    1
    16    14    15    1
    17    15    18    2
    18    16    17    1
    19    16    15    1
    20    19    14    2
    21    20    21    2
    22    20    19    1
    23    21    26    1
    24    22    21    1
    25    23    22    1
    26    24    23    1
    27    24    25    1
    28    26    27    1
    29    26    13    2
    30    28    44    1
    31    28    31    1
    32    29    32    1
    33    29    31    1
    34    29    34    1
    35    30    39    1
    36    33    13    1
    37    33    28    1
    38    35    36    2
    39    36    33    1
    40    36    37    1
    41    37    42    1
    42    38    34    1
    43    38    30    1
    44    40    39    1
    45    41    45    1
    46    41    38    1
    47    42    43    1
    48    44    42    1
    49    44    43    1
    50    45    40    1
