@<TRIPOS>MOLECULE
outputs/IAG933/test6/raw/output_889_IAG933_linker_design_.xyz
 45 49 0 0 0
SMALL
GASTEIGER

@<TRIPOS>ATOM
      1 C         -24.8550   -1.0120   30.1430 C.3     1  UNL1        0.0565
      2 C         -24.9730   -2.5050   29.7880 C.2     1  UNL1       -0.0195
      3 C         -23.9060   -3.1730   29.1460 C.2     1  UNL1       -0.0042
      4 C         -23.9890   -4.5490   28.8530 C.2     1  UNL1       -0.0003
      5 C         -25.1370   -5.2800   29.2050 C.2     1  UNL1       -0.0000
      6 C         -26.2320   -4.6110   29.7840 C.2     1  UNL1       -0.0003
      7 C         -26.1550   -3.2320   30.0650 C.2     1  UNL1       -0.0042
      8 C         -25.3870   -0.6790   31.5710 C.3     1  UNL1        0.0784
      9 C         -25.1890    0.7730   32.0280 C.3     1  UNL1        0.0192
     10 C         -25.3360    0.6840   33.5440 C.3     1  UNL1        0.0202
     11 C         -24.8290   -0.7150   33.9050 C.3     1  UNL1        0.0887
     12 N         -24.7580   -1.4810   32.6460 N.3     1  UNL1       -0.2191
     13 C         -25.6880    1.6140   26.4610 C.2     1  UNL1        0.0156
     14 C         -26.2500    2.9200   26.3950 C.2     1  UNL1        0.0726
     15 C         -25.6420    4.0930   27.1230 C.2     1  UNL1        0.2661
     16 N         -25.6140    5.2520   26.4490 N.am    1  UNL1       -0.1997
     17 C         -25.0260    6.4790   26.9630 C.3     1  UNL1        0.1388
     18 O         -25.1430    3.9660   28.2430 O.2     1  UNL1       -0.2683
     19 C         -27.4380    3.0910   25.6450 C.2     1  UNL1        0.1064
     20 N         -28.0750    2.0890   25.0030 N.2     1  UNL1       -0.2081
     21 C         -27.5430    0.8490   25.0790 C.2     1  UNL1        0.2530
     22 O         -28.1930   -0.2080   24.4770 O.2     1  UNL1       -0.4558
     23 C         -29.4600    0.0050   23.8660 C.3     1  UNL1        0.2426
     24 C         -30.0650   -1.3770   23.5730 C.3     1  UNL1        0.2292
     25 O         -30.7290   -1.8780   24.7210 O.3     1  UNL1       -0.2162
     26 C         -26.3540    0.5760   25.7770 C.2     1  UNL1        0.1891
     27 F         -25.8600   -0.6810   25.7950 F       1  UNL1       -0.1996
     28 C         -23.3545    5.9854   33.2765 C.3     1  UNL1        0.2200
     29 C         -24.3954   -0.2351   27.7826 C.3     1  UNL1        0.0246
     30 C         -24.6783    3.7969   31.5631 C.3     1  UNL1        0.1271
     31 N         -24.1854    7.1253   33.3999 N.3     1  UNL1       -0.2452
     32 C         -23.0767    1.6759   26.3605 C.3     1  UNL1        0.0062
     33 C         -22.1834    7.6596   32.3299 C.3     1  UNL1        0.1612
     34 C         -24.3967   -0.0786   29.2712 C.3     1  UNL1        0.0798
     35 O         -22.3555    6.2089   32.2977 O.3     1  UNL1       -0.3358
     36 N         -23.3314    1.1155   29.3545 N.pl3   1  UNL1       -0.2926
     37 C         -25.3875    5.0150   30.9674 C.3     1  UNL1        0.0278
     38 C         -25.1982    6.4894   31.1498 C.3     1  UNL1        0.0195
     39 C         -24.4367    1.0591   26.9317 C.3     1  UNL1        0.0266
     40 N         -24.4447    2.8205   30.4866 N.2     1  UNL1       -0.2539
     41 C         -22.0837    1.6358   28.6063 C.3     1  UNL1        0.0922
     42 C         -25.3817    7.1470   32.5281 C.3     1  UNL1        0.0745
     43 C         -23.5350    1.9251   30.5329 C.2     1  UNL1        0.1587
     44 C         -21.8367    1.2918   27.2083 C.3     1  UNL1        0.0218
     45 C         -23.3631    8.3259   33.1317 C.3     1  UNL1        0.1065
@<TRIPOS>BOND
     1     1     2    1
     2     2     7    1
     3     3     2    2
     4     4     3    1
     5     4     5    2
     6     5     6    1
     7     6     7    2
     8     8     1    1
     9     8     9    1
    10     8    12    1
    11     9    10    1
    12    10    11    1
    13    12    11    1
    14    14    13    1
    15    14    15    1
    16    15    18    2
    17    16    17    1
    18    16    15    1
    19    19    14    2
    20    20    21    2
    21    20    19    1
    22    21    26    1
    23    22    21    1
    24    23    22    1
    25    24    23    1
    26    24    25    1
    27    26    27    1
    28    26    13    2
    29    28    31    1
    30    29    34    1
    31    32    39    1
    32    32    44    1
    33    33    45    1
    34    34    36    1
    35    34     1    1
    36    35    33    1
    37    35    28    1
    38    36    43    1
    39    37    38    1
    40    37    30    1
    41    38    42    1
    42    39    13    1
    43    39    29    1
    44    40    43    2
    45    40    30    1
    46    41    36    1
    47    42    31    1
    48    44    41    1
    49    45    31    1
