@<TRIPOS>MOLECULE
outputs/IAG933/test6/raw/output_8892_IAG933_linker_design_.xyz
 44 48 0 0 0
SMALL
GASTEIGER

@<TRIPOS>ATOM
      1 C         -24.8550   -1.0120   30.1430 C.3     1  UNL1        0.1110
      2 C         -24.9730   -2.5050   29.7880 C.2     1  UNL1       -0.0030
      3 C         -23.9060   -3.1730   29.1460 C.2     1  UNL1       -0.0026
      4 C         -23.9890   -4.5490   28.8530 C.2     1  UNL1       -0.0003
      5 C         -25.1370   -5.2800   29.2050 C.2     1  UNL1       -0.0000
      6 C         -26.2320   -4.6110   29.7840 C.2     1  UNL1       -0.0003
      7 C         -26.1550   -3.2320   30.0650 C.2     1  UNL1       -0.0026
      8 C         -25.3870   -0.6790   31.5710 C.3     1  UNL1        0.0950
      9 C         -25.1890    0.7730   32.0280 C.3     1  UNL1        0.0209
     10 C         -25.3360    0.6840   33.5440 C.3     1  UNL1        0.0203
     11 C         -24.8290   -0.7150   33.9050 C.3     1  UNL1        0.0888
     12 N         -24.7580   -1.4810   32.6460 N.3     1  UNL1       -0.2174
     13 C         -25.6880    1.6140   26.4610 C.3     1  UNL1        0.1053
     14 C         -26.2500    2.9200   26.3950 C.2     1  UNL1        0.0601
     15 C         -25.6420    4.0930   27.1230 C.2     1  UNL1        0.2628
     16 N         -25.6140    5.2520   26.4490 N.am    1  UNL1       -0.2000
     17 C         -25.0260    6.4790   26.9630 C.3     1  UNL1        0.1388
     18 O         -25.1430    3.9660   28.2430 O.2     1  UNL1       -0.2686
     19 C         -27.4380    3.0910   25.6450 C.2     1  UNL1        0.1025
     20 N         -28.0750    2.0890   25.0030 N.2     1  UNL1       -0.2118
     21 C         -27.5430    0.8490   25.0790 C.2     1  UNL1        0.2345
     22 O         -28.1930   -0.2080   24.4770 O.2     1  UNL1       -0.4585
     23 C         -29.4600    0.0050   23.8660 C.3     1  UNL1        0.2423
     24 C         -30.0650   -1.3770   23.5730 C.3     1  UNL1        0.2292
     25 O         -30.7290   -1.8780   24.7210 O.3     1  UNL1       -0.2162
     26 C         -26.3540    0.5760   25.7770 C.3     1  UNL1        0.2452
     27 F         -25.8600   -0.6810   25.7950 F       1  UNL1       -0.2265
     28 O         -22.5233   -0.3420   29.7692 O.3     1  UNL1       -0.2176
     29 C         -22.9514    1.6640   26.7849 C.3     1  UNL1        0.1487
     30 C         -27.4810    1.0429   29.5772 C.3     1  UNL1        0.0357
     31 C         -28.8561   -0.7359   29.1550 C.3     1  UNL1        0.0177
     32 C         -22.4818    0.5129   28.7339 C.3     1  UNL1        0.1839
     33 C         -23.5751    1.0775   27.7754 C.2     1  UNL1        0.0208
     34 C         -28.7562    0.5737   29.3447 C.3     1  UNL1        0.0593
     35 C         -31.2275    0.8054   29.9510 C.3     1  UNL1        0.0896
     36 S         -21.3197    1.8913   27.0897 S.3     1  UNL1       -0.1176
     37 N         -30.0479    1.3243   29.2271 N.3     1  UNL1       -0.2716
     38 CL        -23.3245    2.1442   25.1547 Cl      1  UNL1       -0.0984
     39 C         -21.2054    0.7551   28.2694 C.3     1  UNL1        0.0962
     40 C         -26.7602    0.0228   29.0154 C.3     1  UNL1        0.0742
     41 C         -25.0600    1.0138   27.8453 C.2     1  UNL1        0.0285
     42 C         -30.3619    2.3213   28.1878 C.3     1  UNL1        0.0896
     43 N         -25.3575   -0.1908   29.0216 N.pl3   1  UNL1       -0.3090
     44 C         -27.6827   -0.9655   28.5496 C.3     1  UNL1        0.0212
@<TRIPOS>BOND
     1     1    43    1
     2     2     7    1
     3     2     1    1
     4     3     2    2
     5     4     3    1
     6     4     5    2
     7     5     6    1
     8     6     7    2
     9     8     1    1
    10     8     9    1
    11     8    12    1
    12     9    10    1
    13    10    11    1
    14    12    11    1
    15    13    41    1
    16    14    13    1
    17    14    15    1
    18    15    18    2
    19    16    17    1
    20    16    15    1
    21    19    14    2
    22    20    21    2
    23    20    19    1
    24    21    26    1
    25    22    21    1
    26    23    22    1
    27    24    23    1
    28    24    25    1
    29    26    27    1
    30    26    13    1
    31    29    38    1
    32    29    36    1
    33    29    33    1
    34    31    34    1
    35    32    28    1
    36    33    41    2
    37    33    32    1
    38    34    37    1
    39    34    30    1
    40    36    39    1
    41    37    35    1
    42    39    32    1
    43    40    43    1
    44    40    30    1
    45    41    43    1
    46    42    37    1
    47    44    40    1
    48    44    31    1
