@<TRIPOS>MOLECULE
outputs/IAG933/test6/raw/output_8894_IAG933_linker_design_.xyz
 43 48 0 0 0
SMALL
GASTEIGER

@<TRIPOS>ATOM
      1 C         -24.8550   -1.0120   30.1430 C.3     1  UNL1        0.0982
      2 C         -24.9730   -2.5050   29.7880 C.2     1  UNL1       -0.0064
      3 C         -23.9060   -3.1730   29.1460 C.2     1  UNL1       -0.0029
      4 C         -23.9890   -4.5490   28.8530 C.2     1  UNL1       -0.0003
      5 C         -25.1370   -5.2800   29.2050 C.2     1  UNL1       -0.0000
      6 C         -26.2320   -4.6110   29.7840 C.2     1  UNL1       -0.0003
      7 C         -26.1550   -3.2320   30.0650 C.2     1  UNL1       -0.0029
      8 C         -25.3870   -0.6790   31.5710 C.3     1  UNL1        0.0916
      9 C         -25.1890    0.7730   32.0280 C.3     1  UNL1        0.0206
     10 C         -25.3360    0.6840   33.5440 C.3     1  UNL1        0.0203
     11 C         -24.8290   -0.7150   33.9050 C.3     1  UNL1        0.0888
     12 N         -24.7580   -1.4810   32.6460 N.3     1  UNL1       -0.2178
     13 C         -25.6880    1.6140   26.4610 C.3     1  UNL1        0.0895
     14 C         -26.2500    2.9200   26.3950 C.2     1  UNL1        0.0586
     15 C         -25.6420    4.0930   27.1230 C.2     1  UNL1        0.2627
     16 N         -25.6140    5.2520   26.4490 N.am    1  UNL1       -0.2000
     17 C         -25.0260    6.4790   26.9630 C.3     1  UNL1        0.1388
     18 O         -25.1430    3.9660   28.2430 O.2     1  UNL1       -0.2686
     19 C         -27.4380    3.0910   25.6450 C.2     1  UNL1        0.1025
     20 N         -28.0750    2.0890   25.0030 N.2     1  UNL1       -0.2118
     21 C         -27.5430    0.8490   25.0790 C.2     1  UNL1        0.2344
     22 O         -28.1930   -0.2080   24.4770 O.2     1  UNL1       -0.4585
     23 C         -29.4600    0.0050   23.8660 C.3     1  UNL1        0.2423
     24 C         -30.0650   -1.3770   23.5730 C.3     1  UNL1        0.2292
     25 O         -30.7290   -1.8780   24.7210 O.3     1  UNL1       -0.2162
     26 C         -26.3540    0.5760   25.7770 C.3     1  UNL1        0.2437
     27 F         -25.8600   -0.6810   25.7950 F       1  UNL1       -0.2265
     28 CA        -25.1153    0.7775   28.4574 C.3     1  UNL1        0.1123
     29 C         -24.1658    1.0340   27.7058 C.3     1  UNL1        0.0684
     30 C         -23.9515    1.4855   26.5173 C.2     1  UNL1       -0.0203
     31 C         -21.9954    1.7418   23.8739 C.3     1  UNL1        0.2583
     32 C         -21.6490    1.6519   27.5845 C.3     1  UNL1        0.2205
     33 O         -21.0702    1.4283   25.0656 O.3     1  UNL1       -0.3270
     34 O         -27.4819    0.4301   28.6044 O.3     1  UNL1       -0.2034
     35 C         -26.3523    0.5233   28.4285 C.3     1  UNL1        0.2280
     36 C         -21.2500   -0.6969   29.3747 C.3     1  UNL1        0.1741
     37 N         -25.4156    0.0701   29.1823 N.3     1  UNL1       -0.2405
     38 F         -20.3517    1.4234   28.0617 F       1  UNL1       -0.2316
     39 N         -23.0432    2.0454   24.3867 N.pl3   1  UNL1       -0.2095
     40 C         -23.0146    1.6820   25.6809 C.2     1  UNL1        0.0681
     41 O         -22.5936   -0.1264   29.2817 O.3     1  UNL1       -0.3503
     42 C         -21.8039    1.5295   26.1696 C.3     1  UNL1        0.1883
     43 C         -22.7772    1.1523   28.5129 C.3     1  UNL1        0.1557
@<TRIPOS>BOND
     1     1     2    1
     2     2     7    1
     3     3     2    2
     4     4     3    1
     5     4     5    2
     6     5     6    1
     7     6     7    2
     8     8     1    1
     9     8     9    1
    10     8    12    1
    11     9    10    1
    12    10    11    1
    13    12    11    1
    14    13    30    1
    15    14    13    1
    16    14    15    1
    17    15    18    2
    18    16    17    1
    19    16    15    1
    20    19    14    2
    21    20    21    2
    22    20    19    1
    23    21    26    1
    24    22    21    1
    25    23    22    1
    26    24    23    1
    27    24    25    1
    28    26    27    1
    29    26    13    1
    30    28    37    1
    31    29    30    1
    32    29    28    1
    33    29    43    1
    34    31    39    1
    35    31    33    1
    36    32    38    1
    37    32    43    1
    38    35    28    1
    39    35    34    1
    40    35    37    1
    41    37     1    1
    42    39    40    1
    43    40    42    1
    44    40    30    2
    45    41    36    1
    46    42    33    1
    47    42    32    1
    48    43    41    1
