@<TRIPOS>MOLECULE
outputs/IAG933/test6/raw/output_8897_IAG933_linker_design_.xyz
 46 50 0 0 0
SMALL
GASTEIGER

@<TRIPOS>ATOM
      1 C         -24.8550   -1.0120   30.1430 C.3     1  UNL1        0.0438
      2 C         -24.9730   -2.5050   29.7880 C.2     1  UNL1       -0.0208
      3 C         -23.9060   -3.1730   29.1460 C.2     1  UNL1       -0.0042
      4 C         -23.9890   -4.5490   28.8530 C.2     1  UNL1       -0.0003
      5 C         -25.1370   -5.2800   29.2050 C.2     1  UNL1       -0.0000
      6 C         -26.2320   -4.6110   29.7840 C.2     1  UNL1       -0.0003
      7 C         -26.1550   -3.2320   30.0650 C.2     1  UNL1       -0.0042
      8 C         -25.3870   -0.6790   31.5710 C.3     1  UNL1        0.0787
      9 C         -25.1890    0.7730   32.0280 C.3     1  UNL1        0.0400
     10 C         -25.3360    0.6840   33.5440 C.3     1  UNL1        0.0218
     11 C         -24.8290   -0.7150   33.9050 C.3     1  UNL1        0.0888
     12 N         -24.7580   -1.4810   32.6460 N.3     1  UNL1       -0.2191
     13 C         -25.6880    1.6140   26.4610 C.3     1  UNL1        0.1016
     14 C         -26.2500    2.9200   26.3950 C.2     1  UNL1        0.0575
     15 C         -25.6420    4.0930   27.1230 C.2     1  UNL1        0.2625
     16 N         -25.6140    5.2520   26.4490 N.am    1  UNL1       -0.2000
     17 C         -25.0260    6.4790   26.9630 C.3     1  UNL1        0.1388
     18 O         -25.1430    3.9660   28.2430 O.2     1  UNL1       -0.2687
     19 C         -27.4380    3.0910   25.6450 C.2     1  UNL1        0.1022
     20 N         -28.0750    2.0890   25.0030 N.2     1  UNL1       -0.2119
     21 C         -27.5430    0.8490   25.0790 C.2     1  UNL1        0.2342
     22 O         -28.1930   -0.2080   24.4770 O.2     1  UNL1       -0.4585
     23 C         -29.4600    0.0050   23.8660 C.3     1  UNL1        0.2423
     24 C         -30.0650   -1.3770   23.5730 C.3     1  UNL1        0.2292
     25 O         -30.7290   -1.8780   24.7210 O.3     1  UNL1       -0.2162
     26 C         -26.3540    0.5760   25.7770 C.3     1  UNL1        0.2427
     27 F         -25.8600   -0.6810   25.7950 F       1  UNL1       -0.2268
     28 C         -22.2819    1.9616   25.4380 C.3     1  UNL1        0.3021
     29 O         -23.2900    1.2412   30.2309 O.2     1  UNL1       -0.3858
     30 C         -24.2463    1.5703   26.4303 C.3     1  UNL1        0.1478
     31 N         -24.3184    2.2566   30.3096 N.3     1  UNL1       -0.0269
     32 C         -20.4982    0.0372   27.9132 C.2     1  UNL1        0.2106
     33 O         -21.6424   -1.3898   29.3486 O.3     1  UNL1       -0.2064
     34 C         -23.2739    1.5745   28.5488 C.2     1  UNL1        0.0359
     35 C         -26.7364    4.0443   32.5549 C.3     1  UNL1        0.0371
     36 C         -22.0151    1.6014   26.6788 C.2     1  UNL1        0.0400
     37 O         -24.4052    3.6244   32.8556 O.3     1  UNL1       -0.2215
     38 O         -19.9627   -1.1291   27.3804 O.2     1  UNL1       -0.2882
     39 C         -20.7281    1.2144   27.0239 C.2     1  UNL1        0.0412
     40 C         -23.2911    1.4684   27.3206 C.2     1  UNL1        0.0090
     41 C         -22.5749    0.7891   29.1527 C.2     1  UNL1        0.1820
     42 C         -25.4890    3.2385   32.2421 C.3     1  UNL1        0.1716
     43 C         -25.3468    2.0768   31.2668 C.3     1  UNL1        0.1472
     44 O         -23.5363    1.7860   25.1031 O.3     1  UNL1       -0.3210
     45 F         -21.3184    2.3380   24.6171 F       1  UNL1       -0.1988
     46 C         -21.6005   -0.1534   28.8936 C.3     1  UNL1        0.2710
@<TRIPOS>BOND
     1     2     7    1
     2     2     1    1
     3     3     2    2
     4     4     3    1
     5     4     5    2
     6     5     6    1
     7     6     7    2
     8     8     1    1
     9     8     9    1
    10     8    12    1
    11     9    43    1
    12     9    10    1
    13    10    11    1
    14    12    11    1
    15    13    14    1
    16    14    15    1
    17    15    18    2
    18    16    17    1
    19    16    15    1
    20    19    14    2
    21    20    21    2
    22    20    19    1
    23    21    26    1
    24    22    21    1
    25    23    22    1
    26    24    23    1
    27    24    25    1
    28    26    27    1
    29    26    13    1
    30    28    45    1
    31    28    36    1
    32    29    31    1
    33    30    44    1
    34    30    13    1
    35    30    40    1
    36    32    46    1
    37    34    41    2
    38    36    39    1
    39    36    40    2
    40    38    32    1
    41    39    32    2
    42    40    34    1
    43    41    29    1
    44    42    35    1
    45    42    37    1
    46    43    31    1
    47    43    42    1
    48    44    28    1
    49    46    41    1
    50    46    33    1
