@<TRIPOS>MOLECULE
outputs/IAG933/test6/raw/output_8899_IAG933_linker_design_.xyz
 45 49 0 0 0
SMALL
GASTEIGER

@<TRIPOS>ATOM
      1 C         -24.8550   -1.0120   30.1430 C.3     1  UNL1        0.1168
      2 C         -24.9730   -2.5050   29.7880 C.2     1  UNL1       -0.0028
      3 C         -23.9060   -3.1730   29.1460 C.2     1  UNL1       -0.0026
      4 C         -23.9890   -4.5490   28.8530 C.2     1  UNL1       -0.0003
      5 C         -25.1370   -5.2800   29.2050 C.2     1  UNL1       -0.0000
      6 C         -26.2320   -4.6110   29.7840 C.2     1  UNL1       -0.0003
      7 C         -26.1550   -3.2320   30.0650 C.2     1  UNL1       -0.0026
      8 C         -25.3870   -0.6790   31.5710 C.3     1  UNL1        0.0952
      9 C         -25.1890    0.7730   32.0280 C.3     1  UNL1        0.0209
     10 C         -25.3360    0.6840   33.5440 C.3     1  UNL1        0.0203
     11 C         -24.8290   -0.7150   33.9050 C.3     1  UNL1        0.0888
     12 N         -24.7580   -1.4810   32.6460 N.3     1  UNL1       -0.2174
     13 C         -25.6880    1.6140   26.4610 C.2     1  UNL1        0.0874
     14 C         -26.2500    2.9200   26.3950 C.2     1  UNL1        0.0899
     15 C         -25.6420    4.0930   27.1230 C.2     1  UNL1        0.2676
     16 N         -25.6140    5.2520   26.4490 N.am    1  UNL1       -0.1997
     17 C         -25.0260    6.4790   26.9630 C.3     1  UNL1        0.1388
     18 O         -25.1430    3.9660   28.2430 O.2     1  UNL1       -0.2683
     19 C         -27.4380    3.0910   25.6450 C.2     1  UNL1        0.1080
     20 N         -28.0750    2.0890   25.0030 N.2     1  UNL1       -0.2080
     21 C         -27.5430    0.8490   25.0790 C.2     1  UNL1        0.2546
     22 O         -28.1930   -0.2080   24.4770 O.2     1  UNL1       -0.4558
     23 C         -29.4600    0.0050   23.8660 C.3     1  UNL1        0.2426
     24 C         -30.0650   -1.3770   23.5730 C.3     1  UNL1        0.2292
     25 O         -30.7290   -1.8780   24.7210 O.3     1  UNL1       -0.2162
     26 C         -26.3540    0.5760   25.7770 C.2     1  UNL1        0.2063
     27 F         -25.8600   -0.6810   25.7950 F       1  UNL1       -0.1979
     28 C         -21.9755    0.9536   28.5797 C.3     1  UNL1        0.0053
     29 N         -25.3663    0.0063   29.1787 N.am    1  UNL1       -0.2442
     30 C         -23.3005    1.9192   26.5524 C.3     1  UNL1        0.0923
     31 C         -29.7885   -0.1546   30.4918 C.2     1  UNL1        0.0513
     32 C         -24.2841    0.5498   28.3054 C.3     1  UNL1        0.1537
     33 C         -29.9663   -0.8483   28.1949 C.2     1  UNL1        0.0185
     34 N         -33.2080   -1.6671   29.9600 N.pl3   1  UNL1       -0.1280
     35 C         -22.0001    1.8372   27.3289 C.3     1  UNL1        0.0216
     36 C         -31.0948   -0.6575   30.8113 C.2     1  UNL1        0.0261
     37 C         -26.6866    0.3835   29.1683 C.2     1  UNL1        0.3288
     38 O         -26.9567    1.5889   29.3658 O.2     1  UNL1       -0.2503
     39 C         -23.0739   -0.1272   28.4292 C.3     1  UNL1        0.0409
     40 C         -31.3169   -1.1896   28.4581 C.2     1  UNL1        0.0194
     41 N         -24.4790    1.5390   27.2926 N.pl3   1  UNL1       -0.2913
     42 C         -31.8792   -1.1655   29.7621 C.2     1  UNL1        0.0897
     43 N         -27.6978   -0.5818   29.0876 N.am    1  UNL1       -0.1617
     44 C         -29.1107   -0.4824   29.2612 C.2     1  UNL1        0.0812
     45 BR        -28.9642    1.0766   31.7085 Br      1  UNL1       -0.0476
@<TRIPOS>BOND
     1     1    29    1
     2     2     7    1
     3     2     1    1
     4     3     2    2
     5     4     3    1
     6     4     5    2
     7     5     6    1
     8     6     7    2
     9     8     1    1
    10     8     9    1
    11     8    12    1
    12     9    10    1
    13    10    11    1
    14    12    11    1
    15    13    41    1
    16    14    13    1
    17    14    15    1
    18    15    18    2
    19    16    17    1
    20    16    15    1
    21    19    14    2
    22    20    21    2
    23    20    19    1
    24    21    26    1
    25    22    21    1
    26    23    22    1
    27    24    23    1
    28    24    25    1
    29    26    27    1
    30    26    13    2
    31    30    41    1
    32    30    35    1
    33    31    36    1
    34    31    45    1
    35    32    39    1
    36    32    29    1
    37    33    40    2
    38    33    44    1
    39    35    28    1
    40    37    29   am
    41    37    38    2
    42    39    28    1
    43    40    42    1
    44    41    32    1
    45    42    34    1
    46    42    36    2
    47    43    37    1
    48    43    44    1
    49    44    31    2
