@<TRIPOS>MOLECULE
No_890-gen_results/8p0m/2024-11-27-11-27-31/
 24 26 0 0 0
SMALL
GASTEIGER

@<TRIPOS>ATOM
      1 C         -28.0162   -0.8135   28.8779 C.ar    1  UNL1       -0.0011
      2 C         -27.0636   -0.1190   28.6079 C.ar    1  UNL1       -0.0223
      3 C         -27.0010    0.6913   27.4910 C.ar    1  UNL1       -0.0011
      4 C         -28.1420    0.8282   26.7994 C.ar    1  UNL1        0.0372
      5 C         -29.2898   -0.4871   28.3661 C.ar    1  UNL1        0.0372
      6 C         -29.2758    0.2610   27.2450 C.ar    1  UNL1        0.1454
      7 O         -30.4290    0.4812   26.5483 O.3     1  UNL1       -0.4508
      8 C         -25.6598   -0.3713   29.3040 C.3     1  UNL1        0.0226
      9 C         -25.1098    0.5910   29.9974 C.3     1  UNL1        0.0260
     10 C         -23.9082    1.2235   29.7338 C.3     1  UNL1        0.0047
     11 C         -23.0716    0.7606   28.6928 C.3     1  UNL1        0.0003
     12 C         -21.8740    1.3952   28.3586 C.3     1  UNL1        0.0000
     13 C         -24.5260   -0.7315   28.2855 C.3     1  UNL1        0.0044
     14 C         -23.5066   -0.3326   27.9782 C.3     1  UNL1        0.0003
     15 C         -25.7456   -1.5709   30.3021 C.3     1  UNL1        0.0047
     16 C         -25.9081    1.2286   31.1626 C.ar    1  UNL1       -0.0222
     17 C         -25.8643    0.6257   32.3105 C.ar    1  UNL1       -0.0043
     18 C         -26.1898    2.6396   31.0548 C.ar    1  UNL1       -0.0043
     19 C         -27.0425    3.1788   31.9910 C.ar    1  UNL1       -0.0003
     20 C         -26.6156    1.2582   33.4217 C.ar    1  UNL1       -0.0003
     21 C         -27.0927    2.5662   33.2740 C.ar    1  UNL1       -0.0000
     22 C         -31.5135    0.8902   27.1070 C.2     1  UNL1        0.1750
     23 C         -32.5038    0.3594   26.9363 C.2     1  UNL1        0.0148
     24 C         -33.7879    0.6713   27.5582 C.3     1  UNL1        0.0341
@<TRIPOS>BOND
     1     6     7    1
     2     2     8    1
     3     8     9    1
     4    10    11    1
     5    11    12    1
     6     8    13    1
     7    11    14    1
     8     8    15    1
     9     9    16    1
    10     7    22    1
    11    22    23    2
    12    23    24    1
    13     9    10    1
    14    14    13    1
    15    16    17   ar
    16    17    20   ar
    17    20    21   ar
    18    21    19   ar
    19    19    18   ar
    20    18    16   ar
    21     1     2   ar
    22     2     3   ar
    23     3     4   ar
    24     4     6   ar
    25     6     5   ar
    26     5     1   ar
