@<TRIPOS>MOLECULE
outputs/IAG933/test6/raw/output_8912_IAG933_linker_design_.xyz
 44 48 0 0 0
SMALL
GASTEIGER

@<TRIPOS>ATOM
      1 C         -24.8550   -1.0120   30.1430 C.3     1  UNL1        0.0424
      2 C         -24.9730   -2.5050   29.7880 C.2     1  UNL1       -0.0208
      3 C         -23.9060   -3.1730   29.1460 C.2     1  UNL1       -0.0042
      4 C         -23.9890   -4.5490   28.8530 C.2     1  UNL1       -0.0003
      5 C         -25.1370   -5.2800   29.2050 C.2     1  UNL1       -0.0000
      6 C         -26.2320   -4.6110   29.7840 C.2     1  UNL1       -0.0003
      7 C         -26.1550   -3.2320   30.0650 C.2     1  UNL1       -0.0042
      8 C         -25.3870   -0.6790   31.5710 C.3     1  UNL1        0.0771
      9 C         -25.1890    0.7730   32.0280 C.3     1  UNL1        0.0192
     10 C         -25.3360    0.6840   33.5440 C.3     1  UNL1        0.0202
     11 C         -24.8290   -0.7150   33.9050 C.3     1  UNL1        0.0887
     12 N         -24.7580   -1.4810   32.6460 N.3     1  UNL1       -0.2191
     13 C         -25.6880    1.6140   26.4610 C.2     1  UNL1        0.0379
     14 C         -26.2500    2.9200   26.3950 C.2     1  UNL1        0.0765
     15 C         -25.6420    4.0930   27.1230 C.2     1  UNL1        0.2664
     16 N         -25.6140    5.2520   26.4490 N.am    1  UNL1       -0.1997
     17 C         -25.0260    6.4790   26.9630 C.3     1  UNL1        0.1388
     18 O         -25.1430    3.9660   28.2430 O.2     1  UNL1       -0.2683
     19 C         -27.4380    3.0910   25.6450 C.2     1  UNL1        0.1067
     20 N         -28.0750    2.0890   25.0030 N.2     1  UNL1       -0.2081
     21 C         -27.5430    0.8490   25.0790 C.2     1  UNL1        0.2533
     22 O         -28.1930   -0.2080   24.4770 O.2     1  UNL1       -0.4558
     23 C         -29.4600    0.0050   23.8660 C.3     1  UNL1        0.2426
     24 C         -30.0650   -1.3770   23.5730 C.3     1  UNL1        0.2292
     25 O         -30.7290   -1.8780   24.7210 O.3     1  UNL1       -0.2162
     26 C         -26.3540    0.5760   25.7770 C.2     1  UNL1        0.1930
     27 F         -25.8600   -0.6810   25.7950 F       1  UNL1       -0.1992
     28 C         -29.7991    1.3870   29.9182 C.3     1  UNL1        0.0935
     29 C         -26.6990   -0.6369   28.4939 C.3     1  UNL1        0.0138
     30 C         -21.8381    0.8210   28.1589 C.2     1  UNL1        0.0293
     31 C         -28.8733   -0.0401   28.1477 C.3     1  UNL1        0.0108
     32 C         -28.0402   -0.4407   29.1163 C.3     1  UNL1        0.0771
     33 C         -24.2476    0.5073   28.3185 C.2     1  UNL1       -0.0219
     34 C         -23.2894    1.6887   26.3398 C.2     1  UNL1        0.0294
     35 C         -24.4054    1.2510   27.0860 C.2     1  UNL1        0.0008
     36 C         -29.1856    1.1341   32.2873 C.3     1  UNL1        0.1148
     37 C         -22.9479    0.2709   28.8182 C.2     1  UNL1       -0.0020
     38 C         -28.7512   -0.5689   30.4203 C.2     1  UNL1        0.2252
     39 C         -22.0530    1.5013   26.9413 C.2     1  UNL1        0.1401
     40 N         -29.2386    0.6184   30.8898 N.am    1  UNL1       -0.2778
     41 C         -25.3701   -0.0398   29.1109 C.3     1  UNL1        0.0282
     42 C         -29.7624    0.9731   28.5688 C.3     1  UNL1        0.0220
     43 O         -29.1005   -1.7281   30.8904 O.2     1  UNL1       -0.2749
     44 F         -21.0912    2.0098   26.2990 F       1  UNL1       -0.2042
@<TRIPOS>BOND
     1     1    41    1
     2     2     7    1
     3     2     1    1
     4     3     2    2
     5     4     3    1
     6     4     5    2
     7     5     6    1
     8     6     7    2
     9     8     1    1
    10     8     9    1
    11     8    12    1
    12     9    10    1
    13    10    11    1
    14    12    11    1
    15    13    35    1
    16    14    13    1
    17    14    15    1
    18    15    18    2
    19    16    17    1
    20    16    15    1
    21    19    14    2
    22    20    21    2
    23    20    19    1
    24    21    26    1
    25    22    21    1
    26    23    22    1
    27    24    23    1
    28    24    25    1
    29    26    27    1
    30    26    13    2
    31    28    40    1
    32    30    37    1
    33    31    42    1
    34    31    32    1
    35    32    29    1
    36    32    38    1
    37    33    37    2
    38    33    41    1
    39    34    39    1
    40    34    35    2
    41    35    33    1
    42    38    40   am
    43    38    43    2
    44    39    30    2
    45    40    36    1
    46    41    29    1
    47    42    28    1
    48    44    39    1
