@<TRIPOS>MOLECULE
outputs/IAG933/test6/raw/output_8913_IAG933_linker_design_.xyz
 41 44 0 0 0
SMALL
GASTEIGER

@<TRIPOS>ATOM
      1 C         -24.8550   -1.0120   30.1430 C.3     1  UNL1        0.1152
      2 C         -24.9730   -2.5050   29.7880 C.2     1  UNL1       -0.0125
      3 C         -23.9060   -3.1730   29.1460 C.2     1  UNL1       -0.0038
      4 C         -23.9890   -4.5490   28.8530 C.2     1  UNL1       -0.0003
      5 C         -25.1370   -5.2800   29.2050 C.2     1  UNL1       -0.0000
      6 C         -26.2320   -4.6110   29.7840 C.2     1  UNL1       -0.0003
      7 C         -26.1550   -3.2320   30.0650 C.2     1  UNL1       -0.0038
      8 C         -25.3870   -0.6790   31.5710 C.3     1  UNL1        0.0855
      9 C         -25.1890    0.7730   32.0280 C.3     1  UNL1        0.0197
     10 C         -25.3360    0.6840   33.5440 C.3     1  UNL1        0.0203
     11 C         -24.8290   -0.7150   33.9050 C.3     1  UNL1        0.0887
     12 N         -24.7580   -1.4810   32.6460 N.3     1  UNL1       -0.2186
     13 C         -25.6880    1.6140   26.4610 C.2     1  UNL1        0.0415
     14 C         -26.2500    2.9200   26.3950 C.2     1  UNL1        0.0767
     15 C         -25.6420    4.0930   27.1230 C.2     1  UNL1        0.2664
     16 N         -25.6140    5.2520   26.4490 N.am    1  UNL1       -0.1997
     17 C         -25.0260    6.4790   26.9630 C.3     1  UNL1        0.1388
     18 O         -25.1430    3.9660   28.2430 O.2     1  UNL1       -0.2683
     19 C         -27.4380    3.0910   25.6450 C.2     1  UNL1        0.1067
     20 N         -28.0750    2.0890   25.0030 N.2     1  UNL1       -0.2081
     21 C         -27.5430    0.8490   25.0790 C.2     1  UNL1        0.2533
     22 O         -28.1930   -0.2080   24.4770 O.2     1  UNL1       -0.4558
     23 C         -29.4600    0.0050   23.8660 C.3     1  UNL1        0.2426
     24 C         -30.0650   -1.3770   23.5730 C.3     1  UNL1        0.2292
     25 O         -30.7290   -1.8780   24.7210 O.3     1  UNL1       -0.2162
     26 C         -26.3540    0.5760   25.7770 C.2     1  UNL1        0.1932
     27 F         -25.8600   -0.6810   25.7950 F       1  UNL1       -0.1992
     28 C         -22.4375    1.6823   28.6829 C.2     1  UNL1        0.0150
     29 C         -23.8800    1.5688   28.4178 C.2     1  UNL1        0.0560
     30 C         -25.3821    5.0828   31.8388 C.2     1  UNL1        0.2092
     31 C         -24.9413    3.6608   31.9740 C.3     1  UNL1        0.0941
     32 C         -24.2583    1.4670   26.9898 C.2     1  UNL1        0.0437
     33 C         -25.5469    0.0448   29.2963 C.2     1  UNL1        0.2343
     34 C         -24.6560    2.8772   30.7351 C.3     1  UNL1        0.1064
     35 C         -23.1419    1.2468   26.0310 C.2     1  UNL1        0.1413
     36 N         -24.8699    1.5233   29.4975 N.am    1  UNL1       -0.2578
     37 O         -26.2000   -0.1833   28.4550 O.2     1  UNL1       -0.2741
     38 C         -21.4676    1.6165   27.7156 C.2     1  UNL1        0.0036
     39 F         -23.4081    0.8629   24.7561 F       1  UNL1       -0.2041
     40 C         -21.7908    1.3942   26.3858 C.2     1  UNL1        0.0297
     41 O         -24.6937    5.8924   31.1355 O.2     1  UNL1       -0.2882
@<TRIPOS>BOND
     1     1    33    1
     2     2     7    1
     3     2     1    1
     4     3     2    2
     5     4     3    1
     6     4     5    2
     7     5     6    1
     8     6     7    2
     9     8     1    1
    10     8     9    1
    11     8    12    1
    12     9    10    1
    13    10    11    1
    14    12    11    1
    15    13    32    1
    16    14    13    1
    17    14    15    1
    18    15    18    2
    19    16    17    1
    20    16    15    1
    21    19    14    2
    22    20    21    2
    23    20    19    1
    24    21    26    1
    25    22    21    1
    26    23    22    1
    27    24    23    1
    28    24    25    1
    29    26    27    1
    30    26    13    2
    31    29    28    1
    32    29    36    1
    33    30    31    1
    34    32    29    2
    35    33    36   am
    36    34    31    1
    37    35    40    2
    38    35    32    1
    39    36    34    1
    40    37    33    2
    41    38    28    2
    42    39    35    1
    43    40    38    1
    44    41    30    2
