@<TRIPOS>MOLECULE
outputs/IAG933/test6/raw/output_8914_IAG933_linker_design_.xyz
 45 50 0 0 0
SMALL
GASTEIGER

@<TRIPOS>ATOM
      1 C         -24.8550   -1.0120   30.1430 C.3     1  UNL1        0.0636
      2 C         -24.9730   -2.5050   29.7880 C.2     1  UNL1       -0.0170
      3 C         -23.9060   -3.1730   29.1460 C.2     1  UNL1       -0.0039
      4 C         -23.9890   -4.5490   28.8530 C.2     1  UNL1       -0.0003
      5 C         -25.1370   -5.2800   29.2050 C.2     1  UNL1       -0.0000
      6 C         -26.2320   -4.6110   29.7840 C.2     1  UNL1       -0.0003
      7 C         -26.1550   -3.2320   30.0650 C.2     1  UNL1       -0.0039
      8 C         -25.3870   -0.6790   31.5710 C.3     1  UNL1        0.0809
      9 C         -25.1890    0.7730   32.0280 C.3     1  UNL1        0.0195
     10 C         -25.3360    0.6840   33.5440 C.3     1  UNL1        0.0203
     11 C         -24.8290   -0.7150   33.9050 C.3     1  UNL1        0.0887
     12 N         -24.7580   -1.4810   32.6460 N.3     1  UNL1       -0.2188
     13 C         -25.6880    1.6140   26.4610 C.2     1  UNL1        0.0432
     14 C         -26.2500    2.9200   26.3950 C.2     1  UNL1        0.0767
     15 C         -25.6420    4.0930   27.1230 C.2     1  UNL1        0.2664
     16 N         -25.6140    5.2520   26.4490 N.am    1  UNL1       -0.1997
     17 C         -25.0260    6.4790   26.9630 C.3     1  UNL1        0.1388
     18 O         -25.1430    3.9660   28.2430 O.2     1  UNL1       -0.2683
     19 C         -27.4380    3.0910   25.6450 C.2     1  UNL1        0.1067
     20 N         -28.0750    2.0890   25.0030 N.2     1  UNL1       -0.2081
     21 C         -27.5430    0.8490   25.0790 C.2     1  UNL1        0.2533
     22 O         -28.1930   -0.2080   24.4770 O.2     1  UNL1       -0.4558
     23 C         -29.4600    0.0050   23.8660 C.3     1  UNL1        0.2426
     24 C         -30.0650   -1.3770   23.5730 C.3     1  UNL1        0.2292
     25 O         -30.7290   -1.8780   24.7210 O.3     1  UNL1       -0.2162
     26 C         -26.3540    0.5760   25.7770 C.2     1  UNL1        0.1932
     27 F         -25.8600   -0.6810   25.7950 F       1  UNL1       -0.1992
     28 C         -22.2321    1.0643   27.9496 C.2     1  UNL1        0.1673
     29 C         -27.4813    0.3562   28.9326 C.3     1  UNL1        0.2054
     30 C         -29.3041    4.7974   27.6314 C.3     1  UNL1        0.0721
     31 C         -30.5502    4.6214   29.9163 C.3     1  UNL1        0.0735
     32 C         -29.3453    3.2504   27.7043 C.3     1  UNL1        0.0175
     33 N         -30.3847    5.4999   28.5728 N.3     1  UNL1       -0.2715
     34 C         -24.5806    1.3696   27.3154 C.2     1  UNL1        0.0659
     35 C         -24.9745    0.8077   28.5588 C.2     1  UNL1        0.1371
     36 C         -24.1097   -0.0208   29.2551 C.2     1  UNL1        0.0193
     37 O         -26.2122    1.1804   29.1180 O.2     1  UNL1       -0.4757
     38 F         -22.7680    2.2909   25.9329 F       1  UNL1       -0.2017
     39 C         -28.6750    1.2262   29.4997 C.3     1  UNL1        0.0474
     40 C         -23.1765    1.5962   27.0339 C.2     1  UNL1        0.1703
     41 F         -20.9453    1.5183   27.7928 F       1  UNL1       -0.2018
     42 C         -29.4125    3.6790   30.2624 C.3     1  UNL1        0.0175
     43 C         -22.6599    0.1309   28.9675 C.2     1  UNL1        0.0310
     44 C         -28.6494    2.6830   28.9429 C.3     1  UNL1        0.0065
     45 C         -31.5245    4.9168   28.9142 C.3     1  UNL1        0.0882
@<TRIPOS>BOND
     1     1    36    1
     2     2     7    1
     3     2     1    1
     4     3     2    2
     5     4     3    1
     6     4     5    2
     7     5     6    1
     8     6     7    2
     9     8     1    1
    10     8     9    1
    11     8    12    1
    12     9    10    1
    13    10    11    1
    14    12    11    1
    15    13    34    1
    16    14    13    1
    17    14    15    1
    18    15    18    2
    19    16    17    1
    20    16    15    1
    21    19    14    2
    22    20    21    2
    23    20    19    1
    24    21    26    1
    25    22    21    1
    26    23    22    1
    27    24    23    1
    28    24    25    1
    29    26    27    1
    30    26    13    2
    31    28    43    1
    32    29    37    1
    33    29    39    1
    34    30    32    1
    35    31    45    1
    36    31    42    1
    37    32    44    1
    38    33    30    1
    39    33    45    1
    40    33    31    1
    41    34    35    2
    42    35    37    1
    43    35    36    1
    44    38    40    1
    45    40    34    1
    46    40    28    2
    47    41    28    1
    48    43    36    2
    49    44    39    1
    50    44    42    1
