@<TRIPOS>MOLECULE
outputs/IAG933/test6/raw/output_8915_IAG933_linker_design_.xyz
 46 51 0 0 0
SMALL
GASTEIGER

@<TRIPOS>ATOM
      1 C         -24.8550   -1.0120   30.1430 C.3     1  UNL1        0.1004
      2 C         -24.9730   -2.5050   29.7880 C.2     1  UNL1       -0.0063
      3 C         -23.9060   -3.1730   29.1460 C.2     1  UNL1       -0.0029
      4 C         -23.9890   -4.5490   28.8530 C.2     1  UNL1       -0.0003
      5 C         -25.1370   -5.2800   29.2050 C.2     1  UNL1       -0.0000
      6 C         -26.2320   -4.6110   29.7840 C.2     1  UNL1       -0.0003
      7 C         -26.1550   -3.2320   30.0650 C.2     1  UNL1       -0.0029
      8 C         -25.3870   -0.6790   31.5710 C.3     1  UNL1        0.0917
      9 C         -25.1890    0.7730   32.0280 C.3     1  UNL1        0.0206
     10 C         -25.3360    0.6840   33.5440 C.3     1  UNL1        0.0203
     11 C         -24.8290   -0.7150   33.9050 C.3     1  UNL1        0.0888
     12 N         -24.7580   -1.4810   32.6460 N.3     1  UNL1       -0.2178
     13 C         -25.6880    1.6140   26.4610 C.3     1  UNL1        0.0954
     14 C         -26.2500    2.9200   26.3950 C.2     1  UNL1        0.0590
     15 C         -25.6420    4.0930   27.1230 C.2     1  UNL1        0.2628
     16 N         -25.6140    5.2520   26.4490 N.am    1  UNL1       -0.2000
     17 C         -25.0260    6.4790   26.9630 C.3     1  UNL1        0.1388
     18 O         -25.1430    3.9660   28.2430 O.2     1  UNL1       -0.2686
     19 C         -27.4380    3.0910   25.6450 C.2     1  UNL1        0.1025
     20 N         -28.0750    2.0890   25.0030 N.2     1  UNL1       -0.2118
     21 C         -27.5430    0.8490   25.0790 C.2     1  UNL1        0.2344
     22 O         -28.1930   -0.2080   24.4770 O.2     1  UNL1       -0.4585
     23 C         -29.4600    0.0050   23.8660 C.3     1  UNL1        0.2423
     24 C         -30.0650   -1.3770   23.5730 C.3     1  UNL1        0.2292
     25 O         -30.7290   -1.8780   24.7210 O.3     1  UNL1       -0.2162
     26 C         -26.3540    0.5760   25.7770 C.3     1  UNL1        0.2441
     27 F         -25.8600   -0.6810   25.7950 F       1  UNL1       -0.2265
     28 C         -22.0631    1.6927   26.9909 C.2     1  UNL1        0.2874
     29 C         -25.5822    0.6628   28.7046 C.3     1  UNL1        0.2218
     30 C         -30.1424    3.2271   30.5260 C.2     1  UNL1        0.0001
     31 N         -26.6312    1.2766   29.0115 N.am    1  UNL1       -0.2364
     32 C         -23.2664    0.5538   28.8243 C.3     1  UNL1        0.2517
     33 F         -20.9093    1.7482   27.6892 F       1  UNL1       -0.1631
     34 C         -23.4874    1.9546   25.3831 C.2     1  UNL1        0.1782
     35 C         -28.9719    1.2566   29.7258 C.2     1  UNL1        0.0150
     36 N         -24.3610    0.1274   29.3602 N.3     1  UNL1       -0.2161
     37 C         -24.2009    1.5895   26.4537 C.2     1  UNL1        0.0278
     38 O         -22.1301    2.0238   25.6958 O.2     1  UNL1       -0.4265
     39 C         -30.1310    1.8558   30.2721 C.2     1  UNL1        0.0013
     40 C         -27.8357    3.3397   29.8034 C.2     1  UNL1        0.0150
     41 C         -23.2583    1.2918   27.5153 C.2     1  UNL1        0.0888
     42 O         -27.2763   -0.7337   28.4447 O.2     1  UNL1       -0.2711
     43 C         -26.5776    0.2470   28.6758 C.2     1  UNL1        0.2652
     44 C         -28.9888    3.9565   30.2836 C.2     1  UNL1        0.0013
     45 C         -27.7671    1.9816   29.5027 C.2     1  UNL1        0.0555
     46 F         -22.1402    0.4075   29.4522 F       1  UNL1       -0.2138
@<TRIPOS>BOND
     1     1    36    1
     2     2     7    1
     3     2     1    1
     4     3     2    2
     5     4     3    1
     6     4     5    2
     7     5     6    1
     8     6     7    2
     9     8     1    1
    10     8     9    1
    11     8    12    1
    12     9    10    1
    13    10    11    1
    14    12    11    1
    15    13    37    1
    16    14    13    1
    17    14    15    1
    18    15    18    2
    19    16    17    1
    20    16    15    1
    21    19    14    2
    22    20    21    2
    23    20    19    1
    24    21    26    1
    25    22    21    1
    26    23    22    1
    27    24    23    1
    28    24    25    1
    29    26    27    1
    30    26    13    1
    31    28    41    2
    32    28    33    1
    33    29    31    1
    34    29    36    1
    35    31    45    1
    36    32    36    1
    37    32    46    1
    38    34    38    1
    39    34    37    2
    40    35    39    1
    41    37    41    1
    42    38    28    1
    43    39    30    2
    44    40    44    2
    45    41    32    1
    46    42    43    2
    47    43    29    1
    48    43    31   am
    49    44    30    1
    50    45    35    2
    51    45    40    1
