@<TRIPOS>MOLECULE
outputs/IAG933/test6/raw/output_8917_IAG933_linker_design_.xyz
 45 48 0 0 0
SMALL
GASTEIGER

@<TRIPOS>ATOM
      1 C         -24.8550   -1.0120   30.1430 C.3     1  UNL1        0.0414
      2 C         -24.9730   -2.5050   29.7880 C.2     1  UNL1       -0.0210
      3 C         -23.9060   -3.1730   29.1460 C.2     1  UNL1       -0.0042
      4 C         -23.9890   -4.5490   28.8530 C.2     1  UNL1       -0.0003
      5 C         -25.1370   -5.2800   29.2050 C.2     1  UNL1       -0.0000
      6 C         -26.2320   -4.6110   29.7840 C.2     1  UNL1       -0.0003
      7 C         -26.1550   -3.2320   30.0650 C.2     1  UNL1       -0.0042
      8 C         -25.3870   -0.6790   31.5710 C.3     1  UNL1        0.0769
      9 C         -25.1890    0.7730   32.0280 C.3     1  UNL1        0.0192
     10 C         -25.3360    0.6840   33.5440 C.3     1  UNL1        0.0202
     11 C         -24.8290   -0.7150   33.9050 C.3     1  UNL1        0.0887
     12 N         -24.7580   -1.4810   32.6460 N.3     1  UNL1       -0.2191
     13 C         -25.6880    1.6140   26.4610 C.2     1  UNL1        0.1129
     14 C         -26.2500    2.9200   26.3950 C.2     1  UNL1        0.0919
     15 C         -25.6420    4.0930   27.1230 C.2     1  UNL1        0.2677
     16 N         -25.6140    5.2520   26.4490 N.am    1  UNL1       -0.1997
     17 C         -25.0260    6.4790   26.9630 C.3     1  UNL1        0.1388
     18 O         -25.1430    3.9660   28.2430 O.2     1  UNL1       -0.2683
     19 C         -27.4380    3.0910   25.6450 C.2     1  UNL1        0.1080
     20 N         -28.0750    2.0890   25.0030 N.2     1  UNL1       -0.2080
     21 C         -27.5430    0.8490   25.0790 C.2     1  UNL1        0.2546
     22 O         -28.1930   -0.2080   24.4770 O.2     1  UNL1       -0.4558
     23 C         -29.4600    0.0050   23.8660 C.3     1  UNL1        0.2426
     24 C         -30.0650   -1.3770   23.5730 C.3     1  UNL1        0.2292
     25 O         -30.7290   -1.8780   24.7210 O.3     1  UNL1       -0.2162
     26 C         -26.3540    0.5760   25.7770 C.2     1  UNL1        0.2083
     27 F         -25.8600   -0.6810   25.7950 F       1  UNL1       -0.1978
     28 C         -25.1388    4.2722   32.8113 C.2     1  UNL1       -0.0318
     29 C         -27.4530    3.1444   32.2078 C.3     1  UNL1        0.0370
     30 C         -27.4359    4.3473   32.8830 C.3     1  UNL1        0.1655
     31 C         -25.1907    3.4121   31.6920 C.2     1  UNL1       -0.0482
     32 N         -22.5310   -0.0404   29.7620 N.3     1  UNL1       -0.1139
     33 C         -23.9281    2.9703   31.0125 C.3     1  UNL1        0.0248
     34 C         -23.3784    0.8393   29.1058 C.3     1  UNL1        0.1395
     35 O         -23.2894    2.2094   25.9750 O.2     1  UNL1       -0.2504
     36 C         -23.6601    1.9280   30.1381 C.3     1  UNL1        0.0409
     37 C         -28.3973    1.9763   32.5991 C.3     1  UNL1        0.0032
     38 C         -26.4791    3.0193   31.2794 C.3     1  UNL1        0.0244
     39 C         -23.6305    1.5272   26.9421 C.2     1  UNL1        0.3285
     40 C         -26.2747    4.7975   33.3968 C.3     1  UNL1        0.0606
     41 N         -24.7400    1.2429   27.2685 N.am    1  UNL1       -0.1595
     42 F         -28.5620    5.0188   32.7955 F       1  UNL1       -0.2369
     43 N         -22.7017    1.4066   27.9580 N.am    1  UNL1       -0.2492
     44 C         -24.6081    0.0127   28.9167 C.3     1  UNL1        0.0423
     45 C         -21.2375    1.5951   27.4757 C.3     1  UNL1        0.1178
@<TRIPOS>BOND
     1     1    44    1
     2     2     7    1
     3     2     1    1
     4     3     2    2
     5     4     3    1
     6     4     5    2
     7     5     6    1
     8     6     7    2
     9     8     1    1
    10     8     9    1
    11     8    12    1
    12     9    10    1
    13    10    11    1
    14    12    11    1
    15    13    41    1
    16    14    13    1
    17    14    15    1
    18    15    18    2
    19    16    17    1
    20    16    15    1
    21    19    14    2
    22    20    21    2
    23    20    19    1
    24    21    26    1
    25    22    21    1
    26    23    22    1
    27    24    23    1
    28    24    25    1
    29    26    27    1
    30    26    13    2
    31    28    40    1
    32    29    37    1
    33    29    30    1
    34    30    42    1
    35    30    40    1
    36    31    28    2
    37    33    31    1
    38    34    32    1
    39    34    36    1
    40    35    39    2
    41    36    33    1
    42    38    31    1
    43    38    29    1
    44    39    41    1
    45    39    43   am
    46    43    34    1
    47    44    34    1
    48    45    43    1
