@<TRIPOS>MOLECULE
No_892-gen_results/8p0m/2024-11-27-11-27-31/
 14 15 0 0 0
SMALL
GASTEIGER

@<TRIPOS>ATOM
      1 C         -28.0162   -0.8135   28.8779 C.ar    1  UNL1        0.0002
      2 C         -27.0636   -0.1190   28.6079 C.ar    1  UNL1        0.0064
      3 C         -26.9716    0.7139   27.5060 C.ar    1  UNL1        0.0806
      4 C         -25.8205    1.4909   27.1160 C.ar    1  UNL1        0.0180
      5 C         -24.6562    1.4242   27.9180 C.ar    1  UNL1        0.0579
      6 C         -24.6847    0.5901   29.0659 C.ar    1  UNL1        0.0114
      7 C         -25.8099   -0.1266   29.3338 C.ar    1  UNL1        0.0010
      8 C         -28.0445   -1.5734   30.1690 C.ar    1  UNL1        0.0000
      9 C         -26.8172   -1.7595   30.8704 C.ar    1  UNL1        0.0000
     10 C         -25.7477   -0.9917   30.5376 C.ar    1  UNL1        0.0000
     11 CL        -23.2729    2.3671   27.5304 Cl      1  UNL1       -0.0822
     12 C         -28.0850    0.8161   26.5112 C.2     1  UNL1        0.3878
     13 O         -27.9487    0.8749   25.3436 O.co2   1  UNL1       -0.2406
     14 O         -29.2584    0.7525   27.0126 O.co2   1  UNL1       -0.2406
@<TRIPOS>BOND
     1     5    11    1
     2     3    12    1
     3    12    13   ar
     4    12    14   ar
     5     2     3   ar
     6     3     4   ar
     7     4     5   ar
     8     5     6   ar
     9     6     7   ar
    10     1     2   ar
    11     2     7   ar
    12     7    10   ar
    13    10     9   ar
    14     9     8   ar
    15     8     1   ar
