@<TRIPOS>MOLECULE
outputs/IAG933/test6/raw/output_8920_IAG933_linker_design_.xyz
 44 48 0 0 0
SMALL
GASTEIGER

@<TRIPOS>ATOM
      1 C         -24.8550   -1.0120   30.1430 C.3     1  UNL1        0.1195
      2 C         -24.9730   -2.5050   29.7880 C.2     1  UNL1       -0.0024
      3 C         -23.9060   -3.1730   29.1460 C.2     1  UNL1       -0.0026
      4 C         -23.9890   -4.5490   28.8530 C.2     1  UNL1       -0.0003
      5 C         -25.1370   -5.2800   29.2050 C.2     1  UNL1       -0.0000
      6 C         -26.2320   -4.6110   29.7840 C.2     1  UNL1       -0.0003
      7 C         -26.1550   -3.2320   30.0650 C.2     1  UNL1       -0.0026
      8 C         -25.3870   -0.6790   31.5710 C.3     1  UNL1        0.0957
      9 C         -25.1890    0.7730   32.0280 C.3     1  UNL1        0.0209
     10 C         -25.3360    0.6840   33.5440 C.3     1  UNL1        0.0203
     11 C         -24.8290   -0.7150   33.9050 C.3     1  UNL1        0.0888
     12 N         -24.7580   -1.4810   32.6460 N.3     1  UNL1       -0.2174
     13 C         -25.6880    1.6140   26.4610 C.2     1  UNL1        0.0446
     14 C         -26.2500    2.9200   26.3950 C.2     1  UNL1        0.0749
     15 C         -25.6420    4.0930   27.1230 C.2     1  UNL1        0.2662
     16 N         -25.6140    5.2520   26.4490 N.am    1  UNL1       -0.1997
     17 C         -25.0260    6.4790   26.9630 C.3     1  UNL1        0.1388
     18 O         -25.1430    3.9660   28.2430 O.2     1  UNL1       -0.2683
     19 C         -27.4380    3.0910   25.6450 C.2     1  UNL1        0.1065
     20 N         -28.0750    2.0890   25.0030 N.2     1  UNL1       -0.2081
     21 C         -27.5430    0.8490   25.0790 C.2     1  UNL1        0.2530
     22 O         -28.1930   -0.2080   24.4770 O.2     1  UNL1       -0.4558
     23 C         -29.4600    0.0050   23.8660 C.3     1  UNL1        0.2426
     24 C         -30.0650   -1.3770   23.5730 C.3     1  UNL1        0.2292
     25 O         -30.7290   -1.8780   24.7210 O.3     1  UNL1       -0.2162
     26 C         -26.3540    0.5760   25.7770 C.2     1  UNL1        0.1914
     27 F         -25.8600   -0.6810   25.7950 F       1  UNL1       -0.1995
     28 N         -25.1486   -0.1073   29.0754 N.pl3   1  UNL1       -0.2598
     29 C         -24.2288    0.6800   28.3247 C.3     1  UNL1        0.1344
     30 C         -31.1856   -1.8508   28.6911 C.2     1  UNL1        0.0034
     31 C         -22.0653    1.9769   26.8869 C.3     1  UNL1        0.1685
     32 C         -32.4587   -1.5005   29.0703 C.2     1  UNL1        0.0343
     33 C         -30.2704   -0.8313   28.6122 C.2     1  UNL1       -0.0086
     34 C         -23.1008    1.2976   29.0833 C.2     1  UNL1       -0.0054
     35 C         -28.9910   -1.2471   29.0341 C.3     1  UNL1        0.1039
     36 C         -32.0623    0.8124   28.4563 C.2     1  UNL1        0.0002
     37 C         -30.6951    0.4930   28.3272 C.2     1  UNL1       -0.0033
     38 C         -24.3425    1.4666   27.0919 C.3     1  UNL1        0.1631
     39 C         -32.9352   -0.2013   28.8701 C.2     1  UNL1        0.0067
     40 BR        -33.5496   -2.8307   29.7895 Br      1  UNL1       -0.0490
     41 O         -23.2659    2.0547   26.2240 O.3     1  UNL1       -0.3450
     42 C         -22.0082    1.7903   28.2723 C.2     1  UNL1        0.0028
     43 C         -26.6524   -0.2180   28.9773 C.1     1  UNL1        0.0012
     44 C         -27.7982   -0.6733   29.0036 C.1     1  UNL1       -0.0665
@<TRIPOS>BOND
     1     1    28    1
     2     2     7    1
     3     2     1    1
     4     3     2    2
     5     4     3    1
     6     4     5    2
     7     5     6    1
     8     6     7    2
     9     8     1    1
    10     8     9    1
    11     8    12    1
    12     9    10    1
    13    10    11    1
    14    12    11    1
    15    14    13    1
    16    14    15    1
    17    15    18    2
    18    16    17    1
    19    16    15    1
    20    19    14    2
    21    20    21    2
    22    20    19    1
    23    21    26    1
    24    22    21    1
    25    23    22    1
    26    24    23    1
    27    24    25    1
    28    26    27    1
    29    26    13    2
    30    29    28    1
    31    29    34    1
    32    30    32    1
    33    31    42    1
    34    32    40    1
    35    33    30    2
    36    33    35    1
    37    36    39    1
    38    37    36    2
    39    37    33    1
    40    38    13    1
    41    38    29    1
    42    39    32    2
    43    41    31    1
    44    41    38    1
    45    42    34    2
    46    43    44    3
    47    43    28    1
    48    44    35    1
