@<TRIPOS>MOLECULE
outputs/IAG933/test6/raw/output_8922_IAG933_linker_design_.xyz
 40 43 0 0 0
SMALL
GASTEIGER

@<TRIPOS>ATOM
      1 C         -24.8550   -1.0120   30.1430 C.3     1  UNL1        0.0968
      2 C         -24.9730   -2.5050   29.7880 C.2     1  UNL1       -0.0064
      3 C         -23.9060   -3.1730   29.1460 C.2     1  UNL1       -0.0029
      4 C         -23.9890   -4.5490   28.8530 C.2     1  UNL1       -0.0003
      5 C         -25.1370   -5.2800   29.2050 C.2     1  UNL1       -0.0000
      6 C         -26.2320   -4.6110   29.7840 C.2     1  UNL1       -0.0003
      7 C         -26.1550   -3.2320   30.0650 C.2     1  UNL1       -0.0029
      8 C         -25.3870   -0.6790   31.5710 C.3     1  UNL1        0.0916
      9 C         -25.1890    0.7730   32.0280 C.3     1  UNL1        0.0206
     10 C         -25.3360    0.6840   33.5440 C.3     1  UNL1        0.0203
     11 C         -24.8290   -0.7150   33.9050 C.3     1  UNL1        0.0888
     12 N         -24.7580   -1.4810   32.6460 N.3     1  UNL1       -0.2178
     13 C         -25.6880    1.6140   26.4610 C.2     1  UNL1        0.0353
     14 C         -26.2500    2.9200   26.3950 C.2     1  UNL1        0.0763
     15 C         -25.6420    4.0930   27.1230 C.2     1  UNL1        0.2664
     16 N         -25.6140    5.2520   26.4490 N.am    1  UNL1       -0.1997
     17 C         -25.0260    6.4790   26.9630 C.3     1  UNL1        0.1388
     18 O         -25.1430    3.9660   28.2430 O.2     1  UNL1       -0.2683
     19 C         -27.4380    3.0910   25.6450 C.2     1  UNL1        0.1067
     20 N         -28.0750    2.0890   25.0030 N.2     1  UNL1       -0.2081
     21 C         -27.5430    0.8490   25.0790 C.2     1  UNL1        0.2533
     22 O         -28.1930   -0.2080   24.4770 O.2     1  UNL1       -0.4558
     23 C         -29.4600    0.0050   23.8660 C.3     1  UNL1        0.2426
     24 C         -30.0650   -1.3770   23.5730 C.3     1  UNL1        0.2292
     25 O         -30.7290   -1.8780   24.7210 O.3     1  UNL1       -0.2162
     26 C         -26.3540    0.5760   25.7770 C.2     1  UNL1        0.1928
     27 F         -25.8600   -0.6810   25.7950 F       1  UNL1       -0.1992
     28 N         -27.7683   -0.7895   28.4538 N.am    1  UNL1       -0.2036
     29 O         -28.1594    0.3309   30.5238 O.2     1  UNL1       -0.2733
     30 C         -26.5800   -0.5057   28.2383 C.3     1  UNL1        0.1355
     31 C         -28.5338   -0.2872   29.5057 C.2     1  UNL1        0.2419
     32 C         -22.5386    2.0377   26.8664 C.2     1  UNL1        0.3306
     33 N         -24.3043   -0.1574   29.0708 N.3     1  UNL1       -0.2614
     34 O         -22.7743    2.5109   25.7979 O.2     1  UNL1       -0.2544
     35 F         -21.4612    2.3276   27.5470 F       1  UNL1       -0.1589
     36 C         -25.3197   -0.0697   28.0833 C.3     1  UNL1        0.1025
     37 C         -29.9817   -0.6143   29.3151 C.3     1  UNL1        0.0964
     38 C         -24.6314    1.0284   27.3020 C.2     1  UNL1       -0.0008
     39 C         -23.1263    0.3665   28.7113 C.3     1  UNL1        0.1050
     40 C         -23.3673    1.1844   27.5727 C.2     1  UNL1        0.0590
@<TRIPOS>BOND
     1     1     2    1
     2     2     7    1
     3     3     2    2
     4     4     3    1
     5     4     5    2
     6     5     6    1
     7     6     7    2
     8     8     1    1
     9     8     9    1
    10     8    12    1
    11     9    10    1
    12    10    11    1
    13    12    11    1
    14    13    38    1
    15    14    13    1
    16    14    15    1
    17    15    18    2
    18    16    17    1
    19    16    15    1
    20    19    14    2
    21    20    21    2
    22    20    19    1
    23    21    26    1
    24    22    21    1
    25    23    22    1
    26    24    23    1
    27    24    25    1
    28    26    27    1
    29    26    13    2
    30    28    31    1
    31    30    28    1
    32    31    29    2
    33    32    35    1
    34    32    40    1
    35    33     1    1
    36    34    32    2
    37    36    30    1
    38    36    33    1
    39    37    31    1
    40    38    40    2
    41    38    36    1
    42    39    33    1
    43    40    39    1
