@<TRIPOS>MOLECULE
outputs/IAG933/test6/raw/output_8924_IAG933_linker_design_.xyz
 41 45 0 0 0
SMALL
GASTEIGER

@<TRIPOS>ATOM
      1 C         -24.8550   -1.0120   30.1430 C.3     1  UNL1        0.1734
      2 C         -24.9730   -2.5050   29.7880 C.2     1  UNL1        0.0011
      3 C         -23.9060   -3.1730   29.1460 C.2     1  UNL1       -0.0026
      4 C         -23.9890   -4.5490   28.8530 C.2     1  UNL1       -0.0003
      5 C         -25.1370   -5.2800   29.2050 C.2     1  UNL1       -0.0000
      6 C         -26.2320   -4.6110   29.7840 C.2     1  UNL1       -0.0003
      7 C         -26.1550   -3.2320   30.0650 C.2     1  UNL1       -0.0026
      8 C         -25.3870   -0.6790   31.5710 C.3     1  UNL1        0.0993
      9 C         -25.1890    0.7730   32.0280 C.3     1  UNL1        0.0210
     10 C         -25.3360    0.6840   33.5440 C.3     1  UNL1        0.0203
     11 C         -24.8290   -0.7150   33.9050 C.3     1  UNL1        0.0888
     12 N         -24.7580   -1.4810   32.6460 N.3     1  UNL1       -0.2174
     13 C         -25.6880    1.6140   26.4610 C.2     1  UNL1        0.1033
     14 C         -26.2500    2.9200   26.3950 C.2     1  UNL1        0.0927
     15 C         -25.6420    4.0930   27.1230 C.2     1  UNL1        0.2678
     16 N         -25.6140    5.2520   26.4490 N.am    1  UNL1       -0.1997
     17 C         -25.0260    6.4790   26.9630 C.3     1  UNL1        0.1388
     18 O         -25.1430    3.9660   28.2430 O.2     1  UNL1       -0.2683
     19 C         -27.4380    3.0910   25.6450 C.2     1  UNL1        0.1082
     20 N         -28.0750    2.0890   25.0030 N.2     1  UNL1       -0.2080
     21 C         -27.5430    0.8490   25.0790 C.2     1  UNL1        0.2548
     22 O         -28.1930   -0.2080   24.4770 O.2     1  UNL1       -0.4558
     23 C         -29.4600    0.0050   23.8660 C.3     1  UNL1        0.2426
     24 C         -30.0650   -1.3770   23.5730 C.3     1  UNL1        0.2292
     25 O         -30.7290   -1.8780   24.7210 O.3     1  UNL1       -0.2162
     26 C         -26.3540    0.5760   25.7770 C.2     1  UNL1        0.2090
     27 F         -25.8600   -0.6810   25.7950 F       1  UNL1       -0.1977
     28 O         -26.1915    1.1631   29.7040 O.2     1  UNL1       -0.1669
     29 C         -23.2941    1.3208   26.4055 C.ar    1  UNL1        0.1412
     30 C         -23.0104    1.6802   25.0518 C.2     1  UNL1        0.4033
     31 C         -20.9626    1.3044   27.5236 C.3     1  UNL1        0.0282
     32 O         -23.6394    1.1185   24.0982 O.co2   1  UNL1       -0.2389
     33 S         -25.5666    0.0960   28.9952 S.O2    1  UNL1        0.0270
     34 C         -22.9431    0.3985   28.3736 C.ar    1  UNL1        0.0093
     35 O         -26.4964   -0.7721   28.3820 O.2     1  UNL1       -0.1669
     36 C         -22.3766    1.1068   27.3314 C.ar    1  UNL1       -0.0008
     37 N         -24.4613    1.1507   26.9987 N.ar    1  UNL1       -0.2846
     38 C         -20.6171    0.5821   28.5677 C.3     1  UNL1        0.0095
     39 C         -21.7768   -0.2013   29.2295 C.3     1  UNL1        0.0293
     40 O         -22.0695    2.5317   24.9259 O.co2   1  UNL1       -0.2389
     41 C         -24.3221    0.4991   28.1625 C.ar    1  UNL1        0.1678
@<TRIPOS>BOND
     1     1    33    1
     2     2     7    1
     3     2     1    1
     4     3     2    2
     5     4     3    1
     6     4     5    2
     7     5     6    1
     8     6     7    2
     9     8     1    1
    10     8     9    1
    11     8    12    1
    12     9    10    1
    13    10    11    1
    14    12    11    1
    15    13    37    1
    16    14    13    1
    17    14    15    1
    18    15    18    2
    19    16    17    1
    20    16    15    1
    21    19    14    2
    22    20    21    2
    23    20    19    1
    24    21    26    1
    25    22    21    1
    26    23    22    1
    27    24    23    1
    28    24    25    1
    29    26    27    1
    30    26    13    2
    31    29    37   ar
    32    29    36   ar
    33    30    29    1
    34    31    38    1
    35    32    30   ar
    36    33    28    2
    37    34    39    1
    38    35    33    2
    39    36    31    1
    40    36    34   ar
    41    37    41   ar
    42    38    39    1
    43    40    30   ar
    44    41    34   ar
    45    41    33    1
