@<TRIPOS>MOLECULE
outputs/IAG933/test6/raw/output_8925_IAG933_linker_design_.xyz
 42 46 0 0 0
SMALL
GASTEIGER

@<TRIPOS>ATOM
      1 C         -24.8550   -1.0120   30.1430 C.3     1  UNL1        0.0438
      2 C         -24.9730   -2.5050   29.7880 C.2     1  UNL1       -0.0208
      3 C         -23.9060   -3.1730   29.1460 C.2     1  UNL1       -0.0042
      4 C         -23.9890   -4.5490   28.8530 C.2     1  UNL1       -0.0003
      5 C         -25.1370   -5.2800   29.2050 C.2     1  UNL1       -0.0000
      6 C         -26.2320   -4.6110   29.7840 C.2     1  UNL1       -0.0003
      7 C         -26.1550   -3.2320   30.0650 C.2     1  UNL1       -0.0042
      8 C         -25.3870   -0.6790   31.5710 C.3     1  UNL1        0.0791
      9 C         -25.1890    0.7730   32.0280 C.3     1  UNL1        0.0419
     10 C         -25.3360    0.6840   33.5440 C.3     1  UNL1        0.0223
     11 C         -24.8290   -0.7150   33.9050 C.3     1  UNL1        0.0888
     12 N         -24.7580   -1.4810   32.6460 N.3     1  UNL1       -0.2191
     13 C         -25.6880    1.6140   26.4610 C.3     1  UNL1        0.0936
     14 C         -26.2500    2.9200   26.3950 C.2     1  UNL1        0.0589
     15 C         -25.6420    4.0930   27.1230 C.2     1  UNL1        0.2628
     16 N         -25.6140    5.2520   26.4490 N.am    1  UNL1       -0.2000
     17 C         -25.0260    6.4790   26.9630 C.3     1  UNL1        0.1388
     18 O         -25.1430    3.9660   28.2430 O.2     1  UNL1       -0.2686
     19 C         -27.4380    3.0910   25.6450 C.2     1  UNL1        0.1025
     20 N         -28.0750    2.0890   25.0030 N.2     1  UNL1       -0.2118
     21 C         -27.5430    0.8490   25.0790 C.2     1  UNL1        0.2344
     22 O         -28.1930   -0.2080   24.4770 O.2     1  UNL1       -0.4585
     23 C         -29.4600    0.0050   23.8660 C.3     1  UNL1        0.2423
     24 C         -30.0650   -1.3770   23.5730 C.3     1  UNL1        0.2292
     25 O         -30.7290   -1.8780   24.7210 O.3     1  UNL1       -0.2162
     26 C         -26.3540    0.5760   25.7770 C.3     1  UNL1        0.2440
     27 F         -25.8600   -0.6810   25.7950 F       1  UNL1       -0.2265
     28 C         -25.9761    4.1305   33.8601 C.2     1  UNL1        0.0111
     29 CL        -28.2813    5.3630   34.4021 Cl      1  UNL1       -0.0822
     30 C         -24.2735    1.6161   26.9422 C.2     1  UNL1       -0.0002
     31 C         -22.0009    1.8866   26.0247 C.2     1  UNL1       -0.0002
     32 N         -24.4128    1.6228   29.6810 N.pl3   1  UNL1       -0.2352
     33 C         -27.2726    4.8359   31.9500 C.2     1  UNL1        0.0111
     34 C         -23.3880    1.8280   25.8515 C.2     1  UNL1       -0.0026
     35 C         -23.6704    1.5587   28.3622 C.2     1  UNL1        0.0620
     36 C         -26.5144    4.0000   31.1114 C.2     1  UNL1       -0.0018
     37 C         -25.1290    1.8056   31.0581 C.3     1  UNL1        0.1159
     38 C         -27.0817    4.7493   33.3355 C.2     1  UNL1        0.0577
     39 C         -22.2567    1.4319   28.4328 C.2     1  UNL1        0.0158
     40 C         -21.4432    1.6416   27.2794 C.2     1  UNL1        0.0013
     41 C         -25.6039    3.1122   31.7160 C.2     1  UNL1       -0.0026
     42 C         -25.2026    3.3400   33.0258 C.2     1  UNL1       -0.0018
@<TRIPOS>BOND
     1     2     7    1
     2     2     1    1
     3     3     2    2
     4     4     3    1
     5     4     5    2
     6     5     6    1
     7     6     7    2
     8     8     1    1
     9     8     9    1
    10     8    12    1
    11     9    37    1
    12     9    10    1
    13    10    11    1
    14    12    11    1
    15    13    30    1
    16    14    13    1
    17    14    15    1
    18    15    18    2
    19    16    17    1
    20    16    15    1
    21    19    14    2
    22    20    21    2
    23    20    19    1
    24    21    26    1
    25    22    21    1
    26    23    22    1
    27    24    23    1
    28    24    25    1
    29    26    27    1
    30    26    13    1
    31    30    35    1
    32    31    40    2
    33    33    38    2
    34    34    31    1
    35    34    30    2
    36    35    39    2
    37    35    32    1
    38    36    41    2
    39    36    33    1
    40    37    32    1
    41    37    41    1
    42    38    28    1
    43    38    29    1
    44    40    39    1
    45    41    42    1
    46    42    28    2
