@<TRIPOS>MOLECULE
No_893-gen_results/8p0m/2024-11-27-11-27-31/
 22 24 0 0 0
SMALL
GASTEIGER

@<TRIPOS>ATOM
      1 C         -28.0162   -0.8135   28.8779 C.ar    1  UNL1       -0.0039
      2 C         -28.4690   -0.7850   29.8287 C.ar    1  UNL1       -0.0003
      3 C         -28.1960    0.3478   28.0550 C.ar    1  UNL1       -0.0178
      4 C         -29.0191    1.3501   28.3782 C.ar    1  UNL1       -0.0039
      5 C         -29.4107    0.1803   30.3782 C.ar    1  UNL1       -0.0000
      6 C         -29.6059    1.2495   29.6193 C.ar    1  UNL1       -0.0003
      7 C         -27.4597    0.3802   26.7091 C.3     1  UNL1        0.0526
      8 C         -26.4659    1.4084   26.5648 C.ar    1  UNL1       -0.0181
      9 C         -25.2424    1.0667   26.0698 C.ar    1  UNL1       -0.0082
     10 C         -24.1161    1.3938   26.4793 C.ar    1  UNL1       -0.0225
     11 C         -22.8021    0.9680   26.2312 C.3     1  UNL1        0.0267
     12 C         -24.1693    2.5711   27.5773 C.ar    1  UNL1       -0.0043
     13 C         -25.3685    3.1443   27.9019 C.ar    1  UNL1       -0.0006
     14 C         -26.5855    2.4763   27.5876 C.ar    1  UNL1       -0.0040
     15 C         -21.8574    1.0622   27.3693 C.3     1  UNL1        0.0094
     16 C         -21.8253    0.2909   28.5380 C.3     1  UNL1        0.0267
     17 C         -22.9496    0.1744   29.3466 C.ar    1  UNL1       -0.0222
     18 C         -23.1607    0.8157   30.2185 C.ar    1  UNL1       -0.0043
     19 C         -24.3581    0.6783   31.1805 C.ar    1  UNL1       -0.0003
     20 C         -25.0444   -0.4824   30.9456 C.ar    1  UNL1       -0.0000
     21 C         -24.7594   -1.3423   29.9367 C.ar    1  UNL1       -0.0003
     22 C         -23.6313   -1.0857   29.1362 C.ar    1  UNL1       -0.0043
@<TRIPOS>BOND
     1     3     7    1
     2     7     8    1
     3    10    11    1
     4    11    15    1
     5    15    16    1
     6    16    17    1
     7    17    18   ar
     8    18    19   ar
     9    19    20   ar
    10    20    21   ar
    11    21    22   ar
    12    22    17   ar
    13     8     9   ar
    14     9    10   ar
    15    10    12   ar
    16    12    13   ar
    17    13    14   ar
    18    14     8   ar
    19     1     2   ar
    20     2     5   ar
    21     5     6   ar
    22     6     4   ar
    23     4     3   ar
    24     3     1   ar
