@<TRIPOS>MOLECULE
outputs/IAG933/test6/raw/output_8932_IAG933_linker_design_.xyz
 40 44 0 0 0
SMALL
GASTEIGER

@<TRIPOS>ATOM
      1 C         -24.8550   -1.0120   30.1430 C.3     1  UNL1        0.1182
      2 C         -24.9730   -2.5050   29.7880 C.2     1  UNL1       -0.0026
      3 C         -23.9060   -3.1730   29.1460 C.2     1  UNL1       -0.0026
      4 C         -23.9890   -4.5490   28.8530 C.2     1  UNL1       -0.0003
      5 C         -25.1370   -5.2800   29.2050 C.2     1  UNL1       -0.0000
      6 C         -26.2320   -4.6110   29.7840 C.2     1  UNL1       -0.0003
      7 C         -26.1550   -3.2320   30.0650 C.2     1  UNL1       -0.0026
      8 C         -25.3870   -0.6790   31.5710 C.3     1  UNL1        0.0955
      9 C         -25.1890    0.7730   32.0280 C.3     1  UNL1        0.0209
     10 C         -25.3360    0.6840   33.5440 C.3     1  UNL1        0.0203
     11 C         -24.8290   -0.7150   33.9050 C.3     1  UNL1        0.0888
     12 N         -24.7580   -1.4810   32.6460 N.3     1  UNL1       -0.2174
     13 C         -25.6880    1.6140   26.4610 C.2     1  UNL1        0.0392
     14 C         -26.2500    2.9200   26.3950 C.2     1  UNL1        0.0766
     15 C         -25.6420    4.0930   27.1230 C.2     1  UNL1        0.2664
     16 N         -25.6140    5.2520   26.4490 N.am    1  UNL1       -0.1997
     17 C         -25.0260    6.4790   26.9630 C.3     1  UNL1        0.1388
     18 O         -25.1430    3.9660   28.2430 O.2     1  UNL1       -0.2683
     19 C         -27.4380    3.0910   25.6450 C.2     1  UNL1        0.1067
     20 N         -28.0750    2.0890   25.0030 N.2     1  UNL1       -0.2081
     21 C         -27.5430    0.8490   25.0790 C.2     1  UNL1        0.2533
     22 O         -28.1930   -0.2080   24.4770 O.2     1  UNL1       -0.4558
     23 C         -29.4600    0.0050   23.8660 C.3     1  UNL1        0.2426
     24 C         -30.0650   -1.3770   23.5730 C.3     1  UNL1        0.2292
     25 O         -30.7290   -1.8780   24.7210 O.3     1  UNL1       -0.2162
     26 C         -26.3540    0.5760   25.7770 C.2     1  UNL1        0.1931
     27 F         -25.8600   -0.6810   25.7950 F       1  UNL1       -0.1992
     28 N         -24.2717   -0.0774   29.2960 N.am    1  UNL1       -0.2506
     29 C         -18.5534    2.5157   27.8456 C.3     1  UNL1        0.2575
     30 C         -23.0294    0.1965   29.3368 C.2     1  UNL1        0.2745
     31 O         -21.0999    1.1723   28.0489 O.2     1  UNL1       -0.4234
     32 C         -25.1143    0.4242   28.4610 C.2     1  UNL1        0.0678
     33 C         -24.6790    1.1428   27.3674 C.2     1  UNL1        0.0188
     34 O         -19.2480    1.8422   26.7472 O.2     1  UNL1       -0.4298
     35 C         -20.6457    1.7599   26.9139 C.2     1  UNL1        0.3935
     36 C         -23.3686    1.3299   27.2026 C.2     1  UNL1        0.0470
     37 O         -22.2565   -0.2550   30.3006 O.2     1  UNL1       -0.2702
     38 C         -22.7525    2.0181   26.0558 C.2     1  UNL1        0.1049
     39 N         -21.4579    2.1756   25.9566 N.2     1  UNL1       -0.1764
     40 C         -22.4662    0.9359   28.2327 C.3     1  UNL1        0.2701
@<TRIPOS>BOND
     1     1     2    1
     2     2     7    1
     3     3     2    2
     4     4     3    1
     5     4     5    2
     6     5     6    1
     7     6     7    2
     8     8     1    1
     9     8     9    1
    10     8    12    1
    11     9    10    1
    12    10    11    1
    13    12    11    1
    14    13    33    1
    15    14    13    1
    16    14    15    1
    17    15    18    2
    18    16    17    1
    19    16    15    1
    20    19    14    2
    21    20    21    2
    22    20    19    1
    23    21    26    1
    24    22    21    1
    25    23    22    1
    26    24    23    1
    27    24    25    1
    28    26    27    1
    29    26    13    2
    30    28    30   am
    31    28     1    1
    32    30    37    2
    33    31    40    1
    34    32    28    1
    35    33    32    2
    36    34    35    1
    37    34    29    1
    38    35    31    1
    39    36    33    1
    40    38    36    2
    41    39    38    1
    42    39    35    2
    43    40    36    1
    44    40    30    1
