@<TRIPOS>MOLECULE
outputs/IAG933/test6/raw/output_8933_IAG933_linker_design_.xyz
 44 48 0 0 0
SMALL
GASTEIGER

@<TRIPOS>ATOM
      1 C         -24.8550   -1.0120   30.1430 C.3     1  UNL1        0.0770
      2 C         -24.9730   -2.5050   29.7880 C.2     1  UNL1       -0.0157
      3 C         -23.9060   -3.1730   29.1460 C.2     1  UNL1       -0.0039
      4 C         -23.9890   -4.5490   28.8530 C.2     1  UNL1       -0.0003
      5 C         -25.1370   -5.2800   29.2050 C.2     1  UNL1       -0.0000
      6 C         -26.2320   -4.6110   29.7840 C.2     1  UNL1       -0.0003
      7 C         -26.1550   -3.2320   30.0650 C.2     1  UNL1       -0.0039
      8 C         -25.3870   -0.6790   31.5710 C.3     1  UNL1        0.0822
      9 C         -25.1890    0.7730   32.0280 C.3     1  UNL1        0.0196
     10 C         -25.3360    0.6840   33.5440 C.3     1  UNL1        0.0203
     11 C         -24.8290   -0.7150   33.9050 C.3     1  UNL1        0.0887
     12 N         -24.7580   -1.4810   32.6460 N.3     1  UNL1       -0.2188
     13 C         -25.6880    1.6140   26.4610 C.2     1  UNL1        0.0965
     14 C         -26.2500    2.9200   26.3950 C.2     1  UNL1        0.0906
     15 C         -25.6420    4.0930   27.1230 C.2     1  UNL1        0.2677
     16 N         -25.6140    5.2520   26.4490 N.am    1  UNL1       -0.1997
     17 C         -25.0260    6.4790   26.9630 C.3     1  UNL1        0.1388
     18 O         -25.1430    3.9660   28.2430 O.2     1  UNL1       -0.2683
     19 C         -27.4380    3.0910   25.6450 C.2     1  UNL1        0.1080
     20 N         -28.0750    2.0890   25.0030 N.2     1  UNL1       -0.2080
     21 C         -27.5430    0.8490   25.0790 C.2     1  UNL1        0.2546
     22 O         -28.1930   -0.2080   24.4770 O.2     1  UNL1       -0.4558
     23 C         -29.4600    0.0050   23.8660 C.3     1  UNL1        0.2426
     24 C         -30.0650   -1.3770   23.5730 C.3     1  UNL1        0.2292
     25 O         -30.7290   -1.8780   24.7210 O.3     1  UNL1       -0.2162
     26 C         -26.3540    0.5760   25.7770 C.2     1  UNL1        0.2069
     27 F         -25.8600   -0.6810   25.7950 F       1  UNL1       -0.1979
     28 C         -21.1017    1.3399   27.7458 C.2     1  UNL1        0.1299
     29 O         -22.9785    2.4534   25.8811 O.2     1  UNL1       -0.2691
     30 C         -25.5563   -0.2799   29.0776 C.2     1  UNL1        0.0676
     31 O         -29.2358   -0.3384   28.9173 O.3     1  UNL1       -0.3364
     32 C         -29.8383   -1.1808   31.0998 C.3     1  UNL1        0.0323
     33 C         -30.1420   -1.2408   29.5850 C.3     1  UNL1        0.1441
     34 C         -29.4606    0.2289   31.5700 C.3     1  UNL1        0.0070
     35 O         -22.5524   -0.3078   29.6529 O.2     1  UNL1       -0.2850
     36 C         -28.2071    0.7261   30.8169 C.3     1  UNL1        0.0525
     37 N         -24.6444    1.2390   27.1945 N.am    1  UNL1       -0.2272
     38 C         -28.0994   -0.0524   29.5138 C.3     1  UNL1        0.2079
     39 N         -26.9424   -0.5383   28.9400 N.pl3   1  UNL1       -0.2132
     40 N         -20.3251    0.4641   28.1601 N.2     1  UNL1       -0.1461
     41 C         -23.3737    1.6055   26.8541 C.2     1  UNL1        0.2614
     42 C         -22.5056    1.1128   27.7663 C.2     1  UNL1        0.1152
     43 C         -23.2512    0.4079   28.6210 C.2     1  UNL1        0.2164
     44 C         -24.6761    0.4599   28.3125 C.2     1  UNL1        0.1086
@<TRIPOS>BOND
     1     1    30    1
     2     2     7    1
     3     2     1    1
     4     3     2    2
     5     4     3    1
     6     4     5    2
     7     5     6    1
     8     6     7    2
     9     8     1    1
    10     8     9    1
    11     8    12    1
    12     9    10    1
    13    10    11    1
    14    12    11    1
    15    13    37    1
    16    14    13    1
    17    14    15    1
    18    15    18    2
    19    16    17    1
    20    16    15    1
    21    19    14    2
    22    20    21    2
    23    20    19    1
    24    21    26    1
    25    22    21    1
    26    23    22    1
    27    24    23    1
    28    24    25    1
    29    26    27    1
    30    26    13    2
    31    28    42    1
    32    28    40    2
    33    29    41    2
    34    31    38    1
    35    31    33    1
    36    32    34    1
    37    33    32    1
    38    36    34    1
    39    37    44    1
    40    38    39    1
    41    38    36    1
    42    39    30    1
    43    41    37   am
    44    41    42    1
    45    42    43    2
    46    43    35    1
    47    44    43    1
    48    44    30    2
