@<TRIPOS>MOLECULE
outputs/IAG933/test6/raw/output_8934_IAG933_linker_design_.xyz
 38 41 0 0 0
SMALL
GASTEIGER

@<TRIPOS>ATOM
      1 C         -24.8550   -1.0120   30.1430 C.3     1  UNL1        0.1004
      2 C         -24.9730   -2.5050   29.7880 C.2     1  UNL1       -0.0138
      3 C         -23.9060   -3.1730   29.1460 C.2     1  UNL1       -0.0038
      4 C         -23.9890   -4.5490   28.8530 C.2     1  UNL1       -0.0003
      5 C         -25.1370   -5.2800   29.2050 C.2     1  UNL1       -0.0000
      6 C         -26.2320   -4.6110   29.7840 C.2     1  UNL1       -0.0003
      7 C         -26.1550   -3.2320   30.0650 C.2     1  UNL1       -0.0038
      8 C         -25.3870   -0.6790   31.5710 C.3     1  UNL1        0.0841
      9 C         -25.1890    0.7730   32.0280 C.3     1  UNL1        0.0196
     10 C         -25.3360    0.6840   33.5440 C.3     1  UNL1        0.0203
     11 C         -24.8290   -0.7150   33.9050 C.3     1  UNL1        0.0887
     12 N         -24.7580   -1.4810   32.6460 N.3     1  UNL1       -0.2187
     13 C         -25.6880    1.6140   26.4610 C.2     1  UNL1        0.0274
     14 C         -26.2500    2.9200   26.3950 C.2     1  UNL1        0.0733
     15 C         -25.6420    4.0930   27.1230 C.2     1  UNL1        0.2661
     16 N         -25.6140    5.2520   26.4490 N.am    1  UNL1       -0.1997
     17 C         -25.0260    6.4790   26.9630 C.3     1  UNL1        0.1388
     18 O         -25.1430    3.9660   28.2430 O.2     1  UNL1       -0.2683
     19 C         -27.4380    3.0910   25.6450 C.2     1  UNL1        0.1064
     20 N         -28.0750    2.0890   25.0030 N.2     1  UNL1       -0.2081
     21 C         -27.5430    0.8490   25.0790 C.2     1  UNL1        0.2530
     22 O         -28.1930   -0.2080   24.4770 O.2     1  UNL1       -0.4558
     23 C         -29.4600    0.0050   23.8660 C.3     1  UNL1        0.2426
     24 C         -30.0650   -1.3770   23.5730 C.3     1  UNL1        0.2292
     25 O         -30.7290   -1.8780   24.7210 O.3     1  UNL1       -0.2162
     26 C         -26.3540    0.5760   25.7770 C.2     1  UNL1        0.1898
     27 F         -25.8600   -0.6810   25.7950 F       1  UNL1       -0.1996
     28 C         -25.4706   -0.2235   29.0351 C.2     1  UNL1        0.1818
     29 C         -23.3623    0.2685   28.8362 C.1     1  UNL1       -0.1019
     30 C         -22.1779   -0.1959   29.1030 C.2     1  UNL1        0.0409
     31 C         -24.5158    1.3865   27.2682 C.3     1  UNL1        0.1147
     32 C         -23.2590    1.9429   26.5949 C.2     1  UNL1        0.1635
     33 C         -21.8895    1.9542   27.0559 C.3     1  UNL1        0.0912
     34 O         -26.5469   -0.2961   28.5795 O.2     1  UNL1       -0.2906
     35 C         -21.0599    0.3168   28.6806 C.2     1  UNL1        0.0041
     36 C         -24.4800    0.5735   28.3610 C.2     1  UNL1        0.0579
     37 C         -20.9461    1.3251   27.7224 C.2     1  UNL1       -0.0177
     38 O         -23.3504    2.4991   25.5393 O.2     1  UNL1       -0.2950
@<TRIPOS>BOND
     1     1    28    1
     2     2     7    1
     3     2     1    1
     4     3     2    2
     5     4     3    1
     6     4     5    2
     7     5     6    1
     8     6     7    2
     9     8     1    1
    10     8     9    1
    11     8    12    1
    12     9    10    1
    13    10    11    1
    14    12    11    1
    15    14    13    1
    16    14    15    1
    17    15    18    2
    18    16    17    1
    19    16    15    1
    20    19    14    2
    21    20    21    2
    22    20    19    1
    23    21    26    1
    24    22    21    1
    25    23    22    1
    26    24    23    1
    27    24    25    1
    28    26    27    1
    29    26    13    2
    30    29    30    2
    31    31    13    1
    32    31    36    1
    33    32    33    1
    34    32    31    1
    35    33    37    1
    36    34    28    2
    37    35    30    1
    38    36    29    2
    39    36    28    1
    40    37    35    2
    41    38    32    2
