@<TRIPOS>MOLECULE
outputs/IAG933/test6/raw/output_8938_IAG933_linker_design_.xyz
 40 43 0 0 0
SMALL
GASTEIGER

@<TRIPOS>ATOM
      1 C         -24.8550   -1.0120   30.1430 C.3     1  UNL1        0.1437
      2 C         -24.9730   -2.5050   29.7880 C.2     1  UNL1       -0.0101
      3 C         -23.9060   -3.1730   29.1460 C.2     1  UNL1       -0.0037
      4 C         -23.9890   -4.5490   28.8530 C.2     1  UNL1       -0.0003
      5 C         -25.1370   -5.2800   29.2050 C.2     1  UNL1       -0.0000
      6 C         -26.2320   -4.6110   29.7840 C.2     1  UNL1       -0.0003
      7 C         -26.1550   -3.2320   30.0650 C.2     1  UNL1       -0.0037
      8 C         -25.3870   -0.6790   31.5710 C.3     1  UNL1        0.0880
      9 C         -25.1890    0.7730   32.0280 C.3     1  UNL1        0.0198
     10 C         -25.3360    0.6840   33.5440 C.3     1  UNL1        0.0203
     11 C         -24.8290   -0.7150   33.9050 C.3     1  UNL1        0.0887
     12 N         -24.7580   -1.4810   32.6460 N.3     1  UNL1       -0.2186
     13 C         -25.6880    1.6140   26.4610 C.2     1  UNL1        0.0321
     14 C         -26.2500    2.9200   26.3950 C.2     1  UNL1        0.0735
     15 C         -25.6420    4.0930   27.1230 C.2     1  UNL1        0.2661
     16 N         -25.6140    5.2520   26.4490 N.am    1  UNL1       -0.1997
     17 C         -25.0260    6.4790   26.9630 C.3     1  UNL1        0.1388
     18 O         -25.1430    3.9660   28.2430 O.2     1  UNL1       -0.2683
     19 C         -27.4380    3.0910   25.6450 C.2     1  UNL1        0.1064
     20 N         -28.0750    2.0890   25.0030 N.2     1  UNL1       -0.2081
     21 C         -27.5430    0.8490   25.0790 C.2     1  UNL1        0.2530
     22 O         -28.1930   -0.2080   24.4770 O.2     1  UNL1       -0.4558
     23 C         -29.4600    0.0050   23.8660 C.3     1  UNL1        0.2426
     24 C         -30.0650   -1.3770   23.5730 C.3     1  UNL1        0.2292
     25 O         -30.7290   -1.8780   24.7210 O.3     1  UNL1       -0.2162
     26 C         -26.3540    0.5760   25.7770 C.2     1  UNL1        0.1900
     27 F         -25.8600   -0.6810   25.7950 F       1  UNL1       -0.1996
     28 C         -24.2922    1.2593   26.8885 C.3     1  UNL1        0.1695
     29 O         -20.5626    1.8876   27.6451 O.2     1  UNL1       -0.2864
     30 C         -21.6665    1.2969   27.6067 C.2     1  UNL1        0.2286
     31 C         -25.7718   -0.5367   29.0082 C.2     1  UNL1        0.3569
     32 N         -23.1397   -0.1487   28.4594 N.2     1  UNL1       -0.0616
     33 C         -24.2598    0.1684   27.7256 C.2     1  UNL1        0.3488
     34 O         -26.9031   -0.0660   29.0805 O.2     1  UNL1       -0.2425
     35 N         -25.1734   -0.6291   27.7385 N.am    1  UNL1        0.0282
     36 O         -22.4607    2.8009   24.7004 O.2     1  UNL1       -0.2313
     37 C         -22.6126    2.3630   25.7107 C.1     1  UNL1        0.1329
     38 C         -20.9248   -0.5514   29.1067 C.3     1  UNL1        0.0664
     39 C         -21.8748    0.1927   28.4044 C.3     1  UNL1        0.2756
     40 C         -22.7544    1.7084   26.7457 C.2     1  UNL1        0.1070
@<TRIPOS>BOND
     1     1    31    1
     2     2     7    1
     3     2     1    1
     4     3     2    2
     5     4     3    1
     6     4     5    2
     7     5     6    1
     8     6     7    2
     9     8     1    1
    10     8     9    1
    11     8    12    1
    12     9    10    1
    13    10    11    1
    14    12    11    1
    15    14    13    1
    16    14    15    1
    17    15    18    2
    18    16    17    1
    19    16    15    1
    20    19    14    2
    21    20    21    2
    22    20    19    1
    23    21    26    1
    24    22    21    1
    25    23    22    1
    26    24    23    1
    27    24    25    1
    28    26    27    1
    29    26    13    2
    30    28    13    1
    31    28    33    1
    32    30    29    2
    33    30    39    1
    34    31    34    2
    35    33    35    1
    36    33    32    2
    37    35    31    1
    38    36    37    2
    39    37    40    2
    40    39    32    1
    41    39    38    1
    42    40    28    1
    43    40    30    1
