@<TRIPOS>MOLECULE
outputs/IAG933/test6/raw/output_8953_IAG933_linker_design_.xyz
 45 49 0 0 0
SMALL
GASTEIGER

@<TRIPOS>ATOM
      1 C         -24.8550   -1.0120   30.1430 C.3     1  UNL1        0.1111
      2 C         -24.9730   -2.5050   29.7880 C.2     1  UNL1       -0.0030
      3 C         -23.9060   -3.1730   29.1460 C.2     1  UNL1       -0.0026
      4 C         -23.9890   -4.5490   28.8530 C.2     1  UNL1       -0.0003
      5 C         -25.1370   -5.2800   29.2050 C.2     1  UNL1       -0.0000
      6 C         -26.2320   -4.6110   29.7840 C.2     1  UNL1       -0.0003
      7 C         -26.1550   -3.2320   30.0650 C.2     1  UNL1       -0.0026
      8 C         -25.3870   -0.6790   31.5710 C.3     1  UNL1        0.0950
      9 C         -25.1890    0.7730   32.0280 C.3     1  UNL1        0.0209
     10 C         -25.3360    0.6840   33.5440 C.3     1  UNL1        0.0203
     11 C         -24.8290   -0.7150   33.9050 C.3     1  UNL1        0.0888
     12 N         -24.7580   -1.4810   32.6460 N.3     1  UNL1       -0.2174
     13 C         -25.6880    1.6140   26.4610 C.2     1  UNL1        0.0399
     14 C         -26.2500    2.9200   26.3950 C.2     1  UNL1        0.0766
     15 C         -25.6420    4.0930   27.1230 C.2     1  UNL1        0.2664
     16 N         -25.6140    5.2520   26.4490 N.am    1  UNL1       -0.1997
     17 C         -25.0260    6.4790   26.9630 C.3     1  UNL1        0.1388
     18 O         -25.1430    3.9660   28.2430 O.2     1  UNL1       -0.2683
     19 C         -27.4380    3.0910   25.6450 C.2     1  UNL1        0.1067
     20 N         -28.0750    2.0890   25.0030 N.2     1  UNL1       -0.2081
     21 C         -27.5430    0.8490   25.0790 C.2     1  UNL1        0.2533
     22 O         -28.1930   -0.2080   24.4770 O.2     1  UNL1       -0.4558
     23 C         -29.4600    0.0050   23.8660 C.3     1  UNL1        0.2426
     24 C         -30.0650   -1.3770   23.5730 C.3     1  UNL1        0.2292
     25 O         -30.7290   -1.8780   24.7210 O.3     1  UNL1       -0.2162
     26 C         -26.3540    0.5760   25.7770 C.2     1  UNL1        0.1931
     27 F         -25.8600   -0.6810   25.7950 F       1  UNL1       -0.1992
     28 C         -28.1320    3.2426   32.9292 C.3     1  UNL1        0.0173
     29 C         -21.9344    1.3755   27.0220 C.2     1  UNL1        0.1835
     30 C         -24.5956    0.4322   28.2731 C.2     1  UNL1        0.0298
     31 C         -24.5094    1.2447   27.0738 C.2     1  UNL1        0.0255
     32 C         -22.2371   -0.0397   29.0563 C.3     1  UNL1        0.2116
     33 C         -23.2029    1.6718   26.5143 C.2     1  UNL1        0.0955
     34 C         -29.3016    2.6258   32.1235 C.3     1  UNL1        0.0576
     35 O         -21.4534    0.6397   28.1639 O.2     1  UNL1       -0.4711
     36 C         -26.9644   -0.1738   28.7888 C.3     1  UNL1        0.0922
     37 C         -28.1553   -0.1682   29.7943 C.3     1  UNL1        0.0387
     38 C         -30.8942    0.6638   32.4627 C.3     1  UNL1        0.0187
     39 C         -30.7698    2.2032   32.5831 C.3     1  UNL1        0.0174
     40 C         -23.2484    0.1585   28.6863 C.3     1  UNL1        0.0884
     41 N         -25.5272   -0.1662   29.0127 N.pl3   1  UNL1       -0.3072
     42 C         -29.4487    0.1341   32.3403 C.3     1  UNL1        0.0721
     43 N         -28.7153    1.2641   31.7173 N.3     1  UNL1       -0.2739
     44 C         -28.3010    1.2897   30.3160 C.3     1  UNL1        0.0738
     45 CL        -23.0458    2.5795   24.9410 Cl      1  UNL1       -0.0789
@<TRIPOS>BOND
     1     1    41    1
     2     2     7    1
     3     2     1    1
     4     3     2    2
     5     4     3    1
     6     4     5    2
     7     5     6    1
     8     6     7    2
     9     8     1    1
    10     8     9    1
    11     8    12    1
    12     9    10    1
    13    10    11    1
    14    12    11    1
    15    13    31    1
    16    14    13    1
    17    14    15    1
    18    15    18    2
    19    16    17    1
    20    16    15    1
    21    19    14    2
    22    20    21    2
    23    20    19    1
    24    21    26    1
    25    22    21    1
    26    23    22    1
    27    24    23    1
    28    24    25    1
    29    26    27    1
    30    26    13    2
    31    29    35    1
    32    30    40    1
    33    30    41    1
    34    31    30    2
    35    33    29    2
    36    33    31    1
    37    34    39    1
    38    34    28    1
    39    35    32    1
    40    36    41    1
    41    36    37    1
    42    37    44    1
    43    38    39    1
    44    40    32    1
    45    42    38    1
    46    43    34    1
    47    43    42    1
    48    44    43    1
    49    45    33    1
