@<TRIPOS>MOLECULE
outputs/IAG933/test6/raw/output_8964_IAG933_linker_design_.xyz
 40 43 0 0 0
SMALL
GASTEIGER

@<TRIPOS>ATOM
      1 C         -24.8550   -1.0120   30.1430 C.3     1  UNL1        0.0597
      2 C         -24.9730   -2.5050   29.7880 C.2     1  UNL1       -0.0196
      3 C         -23.9060   -3.1730   29.1460 C.2     1  UNL1       -0.0042
      4 C         -23.9890   -4.5490   28.8530 C.2     1  UNL1       -0.0003
      5 C         -25.1370   -5.2800   29.2050 C.2     1  UNL1       -0.0000
      6 C         -26.2320   -4.6110   29.7840 C.2     1  UNL1       -0.0003
      7 C         -26.1550   -3.2320   30.0650 C.2     1  UNL1       -0.0042
      8 C         -25.3870   -0.6790   31.5710 C.3     1  UNL1        0.0783
      9 C         -25.1890    0.7730   32.0280 C.3     1  UNL1        0.0192
     10 C         -25.3360    0.6840   33.5440 C.3     1  UNL1        0.0202
     11 C         -24.8290   -0.7150   33.9050 C.3     1  UNL1        0.0887
     12 N         -24.7580   -1.4810   32.6460 N.3     1  UNL1       -0.2191
     13 C         -25.6880    1.6140   26.4610 C.2     1  UNL1        0.1077
     14 C         -26.2500    2.9200   26.3950 C.2     1  UNL1        0.0916
     15 C         -25.6420    4.0930   27.1230 C.2     1  UNL1        0.2677
     16 N         -25.6140    5.2520   26.4490 N.am    1  UNL1       -0.1997
     17 C         -25.0260    6.4790   26.9630 C.3     1  UNL1        0.1388
     18 O         -25.1430    3.9660   28.2430 O.2     1  UNL1       -0.2683
     19 C         -27.4380    3.0910   25.6450 C.2     1  UNL1        0.1080
     20 N         -28.0750    2.0890   25.0030 N.2     1  UNL1       -0.2080
     21 C         -27.5430    0.8490   25.0790 C.2     1  UNL1        0.2546
     22 O         -28.1930   -0.2080   24.4770 O.2     1  UNL1       -0.4558
     23 C         -29.4600    0.0050   23.8660 C.3     1  UNL1        0.2426
     24 C         -30.0650   -1.3770   23.5730 C.3     1  UNL1        0.2292
     25 O         -30.7290   -1.8780   24.7210 O.3     1  UNL1       -0.2162
     26 C         -26.3540    0.5760   25.7770 C.2     1  UNL1        0.2080
     27 F         -25.8600   -0.6810   25.7950 F       1  UNL1       -0.1979
     28 C         -22.5498    2.1094   25.7828 C.3     1  UNL1        0.3559
     29 N         -24.6325    1.3269   27.3314 N.pl3   1  UNL1       -0.1944
     30 O         -20.0446    1.3970   28.1774 O.2     1  UNL1       -0.2829
     31 C         -21.1374    0.9205   27.8964 C.2     1  UNL1        0.2401
     32 N         -22.3592   -0.2079   30.1684 N.2     1  UNL1       -0.1050
     33 N         -24.8523    0.8197   28.5045 N.3     1  UNL1       -0.0392
     34 F         -23.1358    2.2589   24.7085 F       1  UNL1       -0.1918
     35 C         -22.4618    0.9490   27.9267 C.2     1  UNL1        0.1152
     36 O         -24.0080    1.1852   29.3175 O.2     1  UNL1       -0.3628
     37 C         -22.8903    0.5112   29.1972 C.2     1  UNL1        0.2727
     38 F         -21.3167    2.2900   25.8073 F       1  UNL1       -0.1918
     39 C         -25.7156   -0.1692   29.1247 C.3     1  UNL1        0.1417
     40 C         -23.2647    1.4524   26.9703 C.2     1  UNL1        0.1214
@<TRIPOS>BOND
     1     1    39    1
     2     2     7    1
     3     2     1    1
     4     3     2    2
     5     4     3    1
     6     4     5    2
     7     5     6    1
     8     6     7    2
     9     8     1    1
    10     8     9    1
    11     8    12    1
    12     9    10    1
    13    10    11    1
    14    12    11    1
    15    13    29    1
    16    14    13    1
    17    14    15    1
    18    15    18    2
    19    16    17    1
    20    16    15    1
    21    19    14    2
    22    20    21    2
    23    20    19    1
    24    21    26    1
    25    22    21    1
    26    23    22    1
    27    24    23    1
    28    24    25    1
    29    26    27    1
    30    26    13    2
    31    28    38    1
    32    28    40    1
    33    29    33    1
    34    31    35    1
    35    31    30    2
    36    33    39    1
    37    33    36    1
    38    34    28    1
    39    35    37    1
    40    37    36    1
    41    37    32    2
    42    40    29    1
    43    40    35    2
