@<TRIPOS>MOLECULE
outputs/IAG933/test6/raw/output_897_IAG933_linker_design_.xyz
 46 50 0 0 0
SMALL
GASTEIGER

@<TRIPOS>ATOM
      1 C         -24.8550   -1.0120   30.1430 C.3     1  UNL1        0.1259
      2 C         -24.9730   -2.5050   29.7880 C.2     1  UNL1       -0.0041
      3 C         -23.9060   -3.1730   29.1460 C.2     1  UNL1       -0.0029
      4 C         -23.9890   -4.5490   28.8530 C.2     1  UNL1       -0.0003
      5 C         -25.1370   -5.2800   29.2050 C.2     1  UNL1       -0.0000
      6 C         -26.2320   -4.6110   29.7840 C.2     1  UNL1       -0.0003
      7 C         -26.1550   -3.2320   30.0650 C.2     1  UNL1       -0.0029
      8 C         -25.3870   -0.6790   31.5710 C.3     1  UNL1        0.0940
      9 C         -25.1890    0.7730   32.0280 C.3     1  UNL1        0.0207
     10 C         -25.3360    0.6840   33.5440 C.3     1  UNL1        0.0203
     11 C         -24.8290   -0.7150   33.9050 C.3     1  UNL1        0.0888
     12 N         -24.7580   -1.4810   32.6460 N.3     1  UNL1       -0.2177
     13 C         -25.6880    1.6140   26.4610 C.3     1  UNL1        0.0885
     14 C         -26.2500    2.9200   26.3950 C.2     1  UNL1        0.0569
     15 C         -25.6420    4.0930   27.1230 C.2     1  UNL1        0.2267
     16 N         -25.6140    5.2520   26.4490 N.2     1  UNL1       -0.2355
     17 C         -25.0260    6.4790   26.9630 C.3     1  UNL1        0.1550
     18 O         -25.1430    3.9660   28.2430 O.3     1  UNL1       -0.4036
     19 C         -27.4380    3.0910   25.6450 C.2     1  UNL1        0.1025
     20 N         -28.0750    2.0890   25.0030 N.2     1  UNL1       -0.2118
     21 C         -27.5430    0.8490   25.0790 C.2     1  UNL1        0.2344
     22 O         -28.1930   -0.2080   24.4770 O.2     1  UNL1       -0.4585
     23 C         -29.4600    0.0050   23.8660 C.3     1  UNL1        0.2423
     24 C         -30.0650   -1.3770   23.5730 C.3     1  UNL1        0.2292
     25 O         -30.7290   -1.8780   24.7210 O.3     1  UNL1       -0.2162
     26 C         -26.3540    0.5760   25.7770 C.3     1  UNL1        0.2437
     27 F         -25.8600   -0.6810   25.7950 F       1  UNL1       -0.2265
     28 O         -21.1265    0.5808   28.8948 O.2     1  UNL1       -0.2895
     29 C         -29.3219    5.6238   28.9921 C.2     1  UNL1        0.0422
     30 C         -24.4856    1.4938   26.8701 C.2     1  UNL1       -0.0352
     31 O         -22.7047   -0.4114   30.8303 O.3     1  UNL1       -0.1170
     32 C         -29.6231    6.0232   30.3202 C.2     1  UNL1        0.1958
     33 C         -23.5472    2.1093   26.0754 C.3     1  UNL1        0.0482
     34 C         -22.1953    2.1817   26.3395 C.2     1  UNL1       -0.0188
     35 C         -22.0579    0.8546   28.3997 C.2     1  UNL1        0.1937
     36 C         -25.7203    4.3163   29.5888 C.2     1  UNL1        0.3469
     37 O         -25.0006    3.9441   30.4632 O.2     1  UNL1       -0.2444
     38 C         -28.0289    5.1111   28.7089 C.2     1  UNL1        0.0097
     39 C         -28.7078    5.7228   31.3318 C.2     1  UNL1        0.0422
     40 C         -24.3672    0.8024   28.0448 C.2     1  UNL1       -0.0081
     41 C         -21.5391    1.6169   27.4099 C.2     1  UNL1        0.0350
     42 C         -27.4869    5.1401   31.0802 C.2     1  UNL1        0.0097
     43 C         -23.3453    0.4219   28.7951 C.3     1  UNL1        0.1700
     44 O         -30.7232    6.7582   30.6661 O.2     1  UNL1       -0.2866
     45 C         -27.0779    4.8931   29.7587 C.2     1  UNL1        0.0763
     46 N         -23.6026   -0.3624   29.8635 N.3     1  UNL1       -0.1188
@<TRIPOS>BOND
     1     1    46    1
     2     2     7    1
     3     2     1    1
     4     3     2    2
     5     4     3    1
     6     4     5    2
     7     5     6    1
     8     6     7    2
     9     8     1    1
    10     8     9    1
    11     8    12    1
    12     9    10    1
    13    10    11    1
    14    12    11    1
    15    13    30    1
    16    14    13    1
    17    14    15    1
    18    15    18    1
    19    16    17    1
    20    16    15    2
    21    18    36    1
    22    19    14    2
    23    20    21    2
    24    20    19    1
    25    21    26    1
    26    22    21    1
    27    23    22    1
    28    24    23    1
    29    24    25    1
    30    26    27    1
    31    26    13    1
    32    29    32    1
    33    30    40    2
    34    32    44    1
    35    32    39    2
    36    33    34    1
    37    33    30    1
    38    34    41    2
    39    35    43    1
    40    35    28    2
    41    36    45    1
    42    36    37    2
    43    38    29    2
    44    38    45    1
    45    40    43    1
    46    41    35    1
    47    42    39    1
    48    43    46    1
    49    45    42    2
    50    46    31    1
