@<TRIPOS>MOLECULE
outputs/IAG933/test6/raw/output_8970_IAG933_linker_design_.xyz
 46 50 0 0 0
SMALL
GASTEIGER

@<TRIPOS>ATOM
      1 C         -24.8550   -1.0120   30.1430 C.3     1  UNL1        0.0963
      2 C         -24.9730   -2.5050   29.7880 C.2     1  UNL1       -0.0064
      3 C         -23.9060   -3.1730   29.1460 C.2     1  UNL1       -0.0029
      4 C         -23.9890   -4.5490   28.8530 C.2     1  UNL1       -0.0003
      5 C         -25.1370   -5.2800   29.2050 C.2     1  UNL1       -0.0000
      6 C         -26.2320   -4.6110   29.7840 C.2     1  UNL1       -0.0003
      7 C         -26.1550   -3.2320   30.0650 C.2     1  UNL1       -0.0029
      8 C         -25.3870   -0.6790   31.5710 C.3     1  UNL1        0.0916
      9 C         -25.1890    0.7730   32.0280 C.3     1  UNL1        0.0206
     10 C         -25.3360    0.6840   33.5440 C.3     1  UNL1        0.0203
     11 C         -24.8290   -0.7150   33.9050 C.3     1  UNL1        0.0888
     12 N         -24.7580   -1.4810   32.6460 N.3     1  UNL1       -0.2178
     13 C         -25.6880    1.6140   26.4610 C.2     1  UNL1        0.0169
     14 C         -26.2500    2.9200   26.3950 C.2     1  UNL1        0.0726
     15 C         -25.6420    4.0930   27.1230 C.2     1  UNL1        0.2661
     16 N         -25.6140    5.2520   26.4490 N.am    1  UNL1       -0.1997
     17 C         -25.0260    6.4790   26.9630 C.3     1  UNL1        0.1388
     18 O         -25.1430    3.9660   28.2430 O.2     1  UNL1       -0.2683
     19 C         -27.4380    3.0910   25.6450 C.2     1  UNL1        0.1064
     20 N         -28.0750    2.0890   25.0030 N.2     1  UNL1       -0.2081
     21 C         -27.5430    0.8490   25.0790 C.2     1  UNL1        0.2530
     22 O         -28.1930   -0.2080   24.4770 O.2     1  UNL1       -0.4558
     23 C         -29.4600    0.0050   23.8660 C.3     1  UNL1        0.2426
     24 C         -30.0650   -1.3770   23.5730 C.3     1  UNL1        0.2292
     25 O         -30.7290   -1.8780   24.7210 O.3     1  UNL1       -0.2162
     26 C         -26.3540    0.5760   25.7770 C.2     1  UNL1        0.1891
     27 F         -25.8600   -0.6810   25.7950 F       1  UNL1       -0.1996
     28 C         -28.5222    1.7745   33.0497 C.3     1  UNL1        0.0756
     29 C         -22.3293    1.0604   28.6356 C.3     1  UNL1        0.0173
     30 C         -24.6131    1.3017   27.1488 C.3     1  UNL1        0.0400
     31 C         -27.6708    2.4382   35.1117 C.3     1  UNL1        0.0015
     32 C         -28.4841    1.3234   34.4686 C.3     1  UNL1        0.0175
     33 C         -24.9577    1.1954   28.7684 C.3     1  UNL1        0.0693
     34 C         -27.7320    3.6957   34.2803 C.3     1  UNL1        0.0015
     35 O         -27.8806   -0.1082   29.0707 O.2     1  UNL1       -0.2920
     36 C         -23.2414    1.7623   26.4272 C.3     1  UNL1        0.0058
     37 C         -27.4816    0.8698   29.5793 C.2     1  UNL1        0.1947
     38 C         -28.9257    1.1995   30.8275 C.3     1  UNL1        0.2370
     39 C         -22.1277    1.8128   27.4458 C.3     1  UNL1        0.0018
     40 C         -26.1456    1.6947   29.6331 C.3     1  UNL1        0.0848
     41 C         -28.2266    3.2157   32.9155 C.3     1  UNL1        0.0175
     42 N         -28.3188    0.9337   32.0080 N.3     1  UNL1       -0.1880
     43 C         -22.8764   -0.1151   28.9641 C.3     1  UNL1        0.0723
     44 O         -29.2246    2.4891   30.2743 O.3     1  UNL1       -0.2000
     45 N         -24.2954   -0.0649   29.1567 N.3     1  UNL1       -0.2698
     46 C         -30.2931    0.7308   31.0848 C.3     1  UNL1        0.0593
@<TRIPOS>BOND
     1     1     2    1
     2     2     7    1
     3     3     2    2
     4     4     3    1
     5     4     5    2
     6     5     6    1
     7     6     7    2
     8     8     1    1
     9     8     9    1
    10     8    12    1
    11     9    10    1
    12    10    11    1
    13    12    11    1
    14    14    13    1
    15    14    15    1
    16    15    18    2
    17    16    17    1
    18    16    15    1
    19    19    14    2
    20    20    21    2
    21    20    19    1
    22    21    26    1
    23    22    21    1
    24    23    22    1
    25    24    23    1
    26    24    25    1
    27    26    27    1
    28    26    13    2
    29    28    32    1
    30    29    43    1
    31    30    13    1
    32    30    33    1
    33    32    31    1
    34    33    45    1
    35    33    40    1
    36    34    31    1
    37    35    37    2
    38    36    30    1
    39    36    39    1
    40    37    40    1
    41    37    38    1
    42    38    46    1
    43    38    42    1
    44    39    29    1
    45    41    28    1
    46    41    34    1
    47    42    28    1
    48    43    45    1
    49    44    38    1
    50    45     1    1
