@<TRIPOS>MOLECULE
outputs/IAG933/test6/raw/output_8972_IAG933_linker_design_.xyz
 44 49 0 0 0
SMALL
GASTEIGER

@<TRIPOS>ATOM
      1 C         -24.8550   -1.0120   30.1430 C.3     1  UNL1        0.1553
      2 C         -24.9730   -2.5050   29.7880 C.2     1  UNL1        0.0060
      3 C         -23.9060   -3.1730   29.1460 C.2     1  UNL1       -0.0019
      4 C         -23.9890   -4.5490   28.8530 C.2     1  UNL1       -0.0002
      5 C         -25.1370   -5.2800   29.2050 C.2     1  UNL1       -0.0000
      6 C         -26.2320   -4.6110   29.7840 C.2     1  UNL1       -0.0002
      7 C         -26.1550   -3.2320   30.0650 C.2     1  UNL1       -0.0019
      8 C         -25.3870   -0.6790   31.5710 C.3     1  UNL1        0.1065
      9 C         -25.1890    0.7730   32.0280 C.3     1  UNL1        0.0488
     10 C         -25.3360    0.6840   33.5440 C.3     1  UNL1        0.0228
     11 C         -24.8290   -0.7150   33.9050 C.3     1  UNL1        0.0889
     12 N         -24.7580   -1.4810   32.6460 N.3     1  UNL1       -0.2166
     13 C         -25.6880    1.6140   26.4610 C.2     1  UNL1        0.0940
     14 C         -26.2500    2.9200   26.3950 C.2     1  UNL1        0.0903
     15 C         -25.6420    4.0930   27.1230 C.2     1  UNL1        0.2676
     16 N         -25.6140    5.2520   26.4490 N.am    1  UNL1       -0.1997
     17 C         -25.0260    6.4790   26.9630 C.3     1  UNL1        0.1388
     18 O         -25.1430    3.9660   28.2430 O.2     1  UNL1       -0.2683
     19 C         -27.4380    3.0910   25.6450 C.2     1  UNL1        0.1080
     20 N         -28.0750    2.0890   25.0030 N.2     1  UNL1       -0.2080
     21 C         -27.5430    0.8490   25.0790 C.2     1  UNL1        0.2546
     22 O         -28.1930   -0.2080   24.4770 O.2     1  UNL1       -0.4558
     23 C         -29.4600    0.0050   23.8660 C.3     1  UNL1        0.2426
     24 C         -30.0650   -1.3770   23.5730 C.3     1  UNL1        0.2292
     25 O         -30.7290   -1.8780   24.7210 O.3     1  UNL1       -0.2162
     26 C         -26.3540    0.5760   25.7770 C.2     1  UNL1        0.2067
     27 F         -25.8600   -0.6810   25.7950 F       1  UNL1       -0.1979
     28 C         -24.0653    0.3370   27.9142 C.3     1  UNL1        0.2295
     29 N         -24.8915    4.2237   31.9594 N.3     1  UNL1       -0.2664
     30 C         -23.2612    1.8418   26.9223 C.2     1  UNL1        0.2665
     31 C         -25.3996    6.7453   32.0716 C.3     1  UNL1        0.1595
     32 C         -23.2183    0.9921   29.1487 C.3     1  UNL1        0.2034
     33 O         -25.0388   -0.3801   28.8559 O.3     1  UNL1       -0.3318
     34 O         -22.7874    2.5322   25.9719 O.2     1  UNL1       -0.2714
     35 C         -25.0978    3.0134   31.4347 C.3     1  UNL1        0.1021
     36 O         -24.1678    1.8581   29.7550 O.3     1  UNL1       -0.3496
     37 N         -24.4393    1.3343   27.0251 N.am    1  UNL1       -0.2291
     38 C         -25.7451    5.4048   31.4311 C.3     1  UNL1        0.1047
     39 O         -25.1715    6.6417   33.4712 O.3     1  UNL1       -0.3508
     40 C         -24.8817    1.8095   31.0758 C.3     1  UNL1        0.1327
     41 C         -22.3625    1.5983   28.0624 C.3     1  UNL1        0.2678
     42 C         -24.6007    5.4644   34.0114 C.3     1  UNL1        0.1595
     43 F         -20.8842    1.7250   27.7834 F       1  UNL1       -0.2245
     44 C         -23.8666    4.6513   32.9322 C.3     1  UNL1        0.1047
@<TRIPOS>BOND
     1     1     2    1
     2     1     8    1
     3     2     7    1
     4     3     2    2
     5     4     3    1
     6     4     5    2
     7     5     6    1
     8     6     7    2
     9     8     9    1
    10     8    12    1
    11     9    10    1
    12    10    11    1
    13    12    11    1
    14    13    37    1
    15    14    13    1
    16    14    15    1
    17    15    18    2
    18    16    17    1
    19    16    15    1
    20    19    14    2
    21    20    21    2
    22    20    19    1
    23    21    26    1
    24    22    21    1
    25    23    22    1
    26    24    23    1
    27    24    25    1
    28    26    27    1
    29    26    13    2
    30    28    33    1
    31    28    32    1
    32    29    44    1
    33    30    37   am
    34    30    41    1
    35    31    39    1
    36    32    36    1
    37    33     1    1
    38    34    30    2
    39    35    29    1
    40    36    40    1
    41    37    28    1
    42    38    29    1
    43    38    31    1
    44    39    42    1
    45    40    35    1
    46    40     9    1
    47    41    43    1
    48    41    32    1
    49    44    42    1
