@<TRIPOS>MOLECULE
outputs/IAG933/test6/raw/output_8976_IAG933_linker_design_.xyz
 44 49 0 0 0
SMALL
GASTEIGER

@<TRIPOS>ATOM
      1 C         -24.8550   -1.0120   30.1430 C.3     1  UNL1        0.0428
      2 C         -24.9730   -2.5050   29.7880 C.2     1  UNL1       -0.0210
      3 C         -23.9060   -3.1730   29.1460 C.2     1  UNL1       -0.0042
      4 C         -23.9890   -4.5490   28.8530 C.2     1  UNL1       -0.0003
      5 C         -25.1370   -5.2800   29.2050 C.2     1  UNL1       -0.0000
      6 C         -26.2320   -4.6110   29.7840 C.2     1  UNL1       -0.0003
      7 C         -26.1550   -3.2320   30.0650 C.2     1  UNL1       -0.0042
      8 C         -25.3870   -0.6790   31.5710 C.3     1  UNL1        0.0793
      9 C         -25.1890    0.7730   32.0280 C.3     1  UNL1        0.0471
     10 C         -25.3360    0.6840   33.5440 C.3     1  UNL1        0.0227
     11 C         -24.8290   -0.7150   33.9050 C.3     1  UNL1        0.0888
     12 N         -24.7580   -1.4810   32.6460 N.3     1  UNL1       -0.2190
     13 C         -25.6880    1.6140   26.4610 C.3     1  UNL1        0.1153
     14 C         -26.2500    2.9200   26.3950 C.2     1  UNL1        0.0606
     15 C         -25.6420    4.0930   27.1230 C.2     1  UNL1        0.2628
     16 N         -25.6140    5.2520   26.4490 N.am    1  UNL1       -0.2000
     17 C         -25.0260    6.4790   26.9630 C.3     1  UNL1        0.1388
     18 O         -25.1430    3.9660   28.2430 O.2     1  UNL1       -0.2686
     19 C         -27.4380    3.0910   25.6450 C.2     1  UNL1        0.1025
     20 N         -28.0750    2.0890   25.0030 N.2     1  UNL1       -0.2118
     21 C         -27.5430    0.8490   25.0790 C.2     1  UNL1        0.2345
     22 O         -28.1930   -0.2080   24.4770 O.2     1  UNL1       -0.4585
     23 C         -29.4600    0.0050   23.8660 C.3     1  UNL1        0.2423
     24 C         -30.0650   -1.3770   23.5730 C.3     1  UNL1        0.2292
     25 O         -30.7290   -1.8780   24.7210 O.3     1  UNL1       -0.2162
     26 C         -26.3540    0.5760   25.7770 C.3     1  UNL1        0.2457
     27 F         -25.8600   -0.6810   25.7950 F       1  UNL1       -0.2265
     28 C         -22.1943    1.7543   27.2817 C.ar    1  UNL1        0.2598
     29 C         -27.0240    4.3837   33.3468 C.3     1  UNL1        0.1623
     30 C         -24.1205    1.3910   31.0323 C.3     1  UNL1        0.1412
     31 C         -26.4916    3.4396   31.2487 C.3     1  UNL1        0.2449
     32 C         -22.3448    0.5602   29.3853 C.3     1  UNL1        0.1327
     33 O         -22.9961    2.5486   25.1837 O.3     1  UNL1       -0.2811
     34 N         -25.4376    3.1485   32.1913 N.3     1  UNL1       -0.1355
     35 O         -27.4077    4.2135   31.9708 O.3     1  UNL1       -0.3343
     36 O         -24.1845    3.0116   31.5670 O.3     1  UNL1       -0.2825
     37 C         -25.5310    4.2065   33.1882 C.3     1  UNL1        0.1164
     38 F         -20.8296    1.7497   27.4259 F       1  UNL1       -0.1800
     39 N         -24.1260    1.0417   28.0489 N.ar    1  UNL1       -0.1680
     40 C         -24.9316    5.4841   32.6132 C.3     1  UNL1        0.0226
     41 N         -22.8500    1.1896   28.3288 N.ar    1  UNL1       -0.2236
     42 C         -23.1762    2.0252   26.3417 C.ar    1  UNL1        0.2563
     43 C         -23.7334    0.1071   30.0847 C.3     1  UNL1        0.0591
     44 C         -24.4199    1.5353   26.9144 C.ar    1  UNL1        0.1283
@<TRIPOS>BOND
     1     1     2    1
     2     1     8    1
     3     2     7    1
     4     3     2    2
     5     4     3    1
     6     4     5    2
     7     5     6    1
     8     6     7    2
     9     8     9    1
    10     8    12    1
    11     9    10    1
    12    10    11    1
    13    12    11    1
    14    13    44    1
    15    14    13    1
    16    14    15    1
    17    15    18    2
    18    16    17    1
    19    16    15    1
    20    19    14    2
    21    20    21    2
    22    20    19    1
    23    21    26    1
    24    22    21    1
    25    23    22    1
    26    24    23    1
    27    24    25    1
    28    26    27    1
    29    26    13    1
    30    28    38    1
    31    28    41   ar
    32    30    36    1
    33    30     9    1
    34    31    35    1
    35    31    34    1
    36    33    42    1
    37    34    37    1
    38    35    29    1
    39    36    34    1
    40    37    40    1
    41    37    29    1
    42    39    41   ar
    43    41    32    1
    44    42    44   ar
    45    42    28   ar
    46    43    32    1
    47    43     1    1
    48    43    30    1
    49    44    39   ar
