@<TRIPOS>MOLECULE
outputs/IAG933/test6/raw/output_8978_IAG933_linker_design_.xyz
 43 46 0 0 0
SMALL
GASTEIGER

@<TRIPOS>ATOM
      1 C         -24.8550   -1.0120   30.1430 C.3     1  UNL1        0.1114
      2 C         -24.9730   -2.5050   29.7880 C.2     1  UNL1       -0.0030
      3 C         -23.9060   -3.1730   29.1460 C.2     1  UNL1       -0.0026
      4 C         -23.9890   -4.5490   28.8530 C.2     1  UNL1       -0.0003
      5 C         -25.1370   -5.2800   29.2050 C.2     1  UNL1       -0.0000
      6 C         -26.2320   -4.6110   29.7840 C.2     1  UNL1       -0.0003
      7 C         -26.1550   -3.2320   30.0650 C.2     1  UNL1       -0.0026
      8 C         -25.3870   -0.6790   31.5710 C.3     1  UNL1        0.0950
      9 C         -25.1890    0.7730   32.0280 C.3     1  UNL1        0.0209
     10 C         -25.3360    0.6840   33.5440 C.3     1  UNL1        0.0203
     11 C         -24.8290   -0.7150   33.9050 C.3     1  UNL1        0.0888
     12 N         -24.7580   -1.4810   32.6460 N.3     1  UNL1       -0.2174
     13 C         -25.6880    1.6140   26.4610 C.2     1  UNL1        0.0424
     14 C         -26.2500    2.9200   26.3950 C.2     1  UNL1        0.0767
     15 C         -25.6420    4.0930   27.1230 C.2     1  UNL1        0.2664
     16 N         -25.6140    5.2520   26.4490 N.am    1  UNL1       -0.1997
     17 C         -25.0260    6.4790   26.9630 C.3     1  UNL1        0.1388
     18 O         -25.1430    3.9660   28.2430 O.2     1  UNL1       -0.2683
     19 C         -27.4380    3.0910   25.6450 C.2     1  UNL1        0.1067
     20 N         -28.0750    2.0890   25.0030 N.2     1  UNL1       -0.2081
     21 C         -27.5430    0.8490   25.0790 C.2     1  UNL1        0.2533
     22 O         -28.1930   -0.2080   24.4770 O.2     1  UNL1       -0.4558
     23 C         -29.4600    0.0050   23.8660 C.3     1  UNL1        0.2426
     24 C         -30.0650   -1.3770   23.5730 C.3     1  UNL1        0.2292
     25 O         -30.7290   -1.8780   24.7210 O.3     1  UNL1       -0.2162
     26 C         -26.3540    0.5760   25.7770 C.2     1  UNL1        0.1932
     27 F         -25.8600   -0.6810   25.7950 F       1  UNL1       -0.1992
     28 N         -25.3402   -0.2226   28.9222 N.pl3   1  UNL1       -0.3016
     29 O         -23.2220    2.4420   25.3178 O.2     1  UNL1       -0.2865
     30 C         -24.3519    1.2907   27.1202 C.2     1  UNL1        0.0548
     31 C         -27.4493    4.7886   33.0563 C.3     1  UNL1        0.0025
     32 C         -27.1113    4.7911   31.5642 C.3     1  UNL1        0.0274
     33 C         -26.7762    1.8613   29.4320 C.3     1  UNL1        0.1635
     34 C         -21.8446    1.1125   28.4903 C.2     1  UNL1        0.0045
     35 C         -27.8729    3.5637   30.8483 C.3     1  UNL1        0.1421
     36 C         -23.1681    1.8569   26.5313 C.2     1  UNL1        0.1969
     37 C         -22.9865    0.4106   28.9858 C.2     1  UNL1        0.0147
     38 O         -26.9661    2.4327   30.7398 O.3     1  UNL1       -0.3520
     39 C         -27.6150    6.0774   30.8927 C.3     1  UNL1        0.0025
     40 C         -21.9326    1.7983   27.2401 C.2     1  UNL1        0.0421
     41 C         -24.2537    0.4667   28.3026 C.2     1  UNL1        0.0513
     42 C         -25.5647    4.8418   31.5450 C.3     1  UNL1        0.0025
     43 C         -26.6820    0.3747   29.1672 C.3     1  UNL1        0.1232
@<TRIPOS>BOND
     1     1    28    1
     2     2     7    1
     3     2     1    1
     4     3     2    2
     5     4     3    1
     6     4     5    2
     7     5     6    1
     8     6     7    2
     9     8     1    1
    10     8     9    1
    11     8    12    1
    12     9    10    1
    13    10    11    1
    14    12    11    1
    15    13    30    1
    16    14    13    1
    17    14    15    1
    18    15    18    2
    19    16    17    1
    20    16    15    1
    21    19    14    2
    22    20    21    2
    23    20    19    1
    24    21    26    1
    25    22    21    1
    26    23    22    1
    27    24    23    1
    28    24    25    1
    29    26    27    1
    30    26    13    2
    31    28    43    1
    32    29    36    1
    33    30    41    1
    34    32    31    1
    35    33    38    1
    36    34    37    1
    37    35    32    1
    38    36    30    2
    39    36    40    1
    40    38    35    1
    41    39    32    1
    42    40    34    2
    43    41    28    1
    44    41    37    2
    45    42    32    1
    46    43    33    1
