@<TRIPOS>MOLECULE
outputs/IAG933/test6/raw/output_8980_IAG933_linker_design_.xyz
 40 44 0 0 0
SMALL
GASTEIGER

@<TRIPOS>ATOM
      1 C         -24.8550   -1.0120   30.1430 C.3     1  UNL1        0.0432
      2 C         -24.9730   -2.5050   29.7880 C.2     1  UNL1       -0.0210
      3 C         -23.9060   -3.1730   29.1460 C.2     1  UNL1       -0.0042
      4 C         -23.9890   -4.5490   28.8530 C.2     1  UNL1       -0.0003
      5 C         -25.1370   -5.2800   29.2050 C.2     1  UNL1       -0.0000
      6 C         -26.2320   -4.6110   29.7840 C.2     1  UNL1       -0.0003
      7 C         -26.1550   -3.2320   30.0650 C.2     1  UNL1       -0.0042
      8 C         -25.3870   -0.6790   31.5710 C.3     1  UNL1        0.0770
      9 C         -25.1890    0.7730   32.0280 C.3     1  UNL1        0.0192
     10 C         -25.3360    0.6840   33.5440 C.3     1  UNL1        0.0202
     11 C         -24.8290   -0.7150   33.9050 C.3     1  UNL1        0.0887
     12 N         -24.7580   -1.4810   32.6460 N.3     1  UNL1       -0.2191
     13 C         -25.6880    1.6140   26.4610 C.2     1  UNL1        0.0192
     14 C         -26.2500    2.9200   26.3950 C.2     1  UNL1        0.0727
     15 C         -25.6420    4.0930   27.1230 C.2     1  UNL1        0.2661
     16 N         -25.6140    5.2520   26.4490 N.am    1  UNL1       -0.1997
     17 C         -25.0260    6.4790   26.9630 C.3     1  UNL1        0.1388
     18 O         -25.1430    3.9660   28.2430 O.2     1  UNL1       -0.2683
     19 C         -27.4380    3.0910   25.6450 C.2     1  UNL1        0.1064
     20 N         -28.0750    2.0890   25.0030 N.2     1  UNL1       -0.2081
     21 C         -27.5430    0.8490   25.0790 C.2     1  UNL1        0.2530
     22 O         -28.1930   -0.2080   24.4770 O.2     1  UNL1       -0.4558
     23 C         -29.4600    0.0050   23.8660 C.3     1  UNL1        0.2426
     24 C         -30.0650   -1.3770   23.5730 C.3     1  UNL1        0.2292
     25 O         -30.7290   -1.8780   24.7210 O.3     1  UNL1       -0.2162
     26 C         -26.3540    0.5760   25.7770 C.2     1  UNL1        0.1892
     27 F         -25.8600   -0.6810   25.7950 F       1  UNL1       -0.1996
     28 CL        -22.8884    1.7051   24.8223 Cl      1  UNL1       -0.1117
     29 C         -26.2818   -0.2059   28.6724 C.3     1  UNL1        0.1848
     30 C         -22.1673    1.7813   27.3028 C.3     1  UNL1        0.1762
     31 C         -24.3761    1.3941   27.0802 C.3     1  UNL1        0.0707
     32 O         -23.5426    2.0049   29.7109 O.3     1  UNL1       -0.2252
     33 C         -23.4103   -0.0068   28.7222 C.3     1  UNL1        0.0337
     34 C         -24.1303    1.2934   28.4887 C.3     1  UNL1        0.1343
     35 F         -21.9828    3.1090   27.2435 F       1  UNL1       -0.2360
     36 O         -27.2408   -0.0986   28.4397 O.3     1  UNL1       -0.2203
     37 C         -21.1440    0.9828   28.1103 C.3     1  UNL1        0.0367
     38 C         -24.7272   -0.3177   28.6929 C.3     1  UNL1        0.0641
     39 C         -23.1164    1.1430   26.4311 C.3     1  UNL1        0.1188
     40 C         -21.9069    0.0955   29.2174 C.3     1  UNL1        0.0055
@<TRIPOS>BOND
     1     1     2    1
     2     2     7    1
     3     3     2    2
     4     4     3    1
     5     4     5    2
     6     5     6    1
     7     6     7    2
     8     8     1    1
     9     8     9    1
    10     8    12    1
    11     9    10    1
    12    10    11    1
    13    12    11    1
    14    14    13    1
    15    14    15    1
    16    15    18    2
    17    16    17    1
    18    16    15    1
    19    19    14    2
    20    20    21    2
    21    20    19    1
    22    21    26    1
    23    22    21    1
    24    23    22    1
    25    24    23    1
    26    24    25    1
    27    26    27    1
    28    26    13    2
    29    30    35    1
    30    30    37    1
    31    31    13    1
    32    31    34    1
    33    33    40    1
    34    34    38    1
    35    34    33    1
    36    34    32    1
    37    36    29    1
    38    37    40    1
    39    38    29    1
    40    38    33    1
    41    38     1    1
    42    39    28    1
    43    39    31    1
    44    39    30    1
