@<TRIPOS>MOLECULE
outputs/IAG933/test6/raw/output_8981_IAG933_linker_design_.xyz
 45 49 0 0 0
SMALL
GASTEIGER

@<TRIPOS>ATOM
      1 C         -24.8550   -1.0120   30.1430 C.3     1  UNL1        0.1138
      2 C         -24.9730   -2.5050   29.7880 C.2     1  UNL1       -0.0029
      3 C         -23.9060   -3.1730   29.1460 C.2     1  UNL1       -0.0026
      4 C         -23.9890   -4.5490   28.8530 C.2     1  UNL1       -0.0003
      5 C         -25.1370   -5.2800   29.2050 C.2     1  UNL1       -0.0000
      6 C         -26.2320   -4.6110   29.7840 C.2     1  UNL1       -0.0003
      7 C         -26.1550   -3.2320   30.0650 C.2     1  UNL1       -0.0026
      8 C         -25.3870   -0.6790   31.5710 C.3     1  UNL1        0.0967
      9 C         -25.1890    0.7730   32.0280 C.3     1  UNL1        0.0377
     10 C         -25.3360    0.6840   33.5440 C.3     1  UNL1        0.0219
     11 C         -24.8290   -0.7150   33.9050 C.3     1  UNL1        0.0888
     12 N         -24.7580   -1.4810   32.6460 N.3     1  UNL1       -0.2174
     13 C         -25.6880    1.6140   26.4610 C.2     1  UNL1        0.1114
     14 C         -26.2500    2.9200   26.3950 C.2     1  UNL1        0.0919
     15 C         -25.6420    4.0930   27.1230 C.2     1  UNL1        0.2677
     16 N         -25.6140    5.2520   26.4490 N.am    1  UNL1       -0.1997
     17 C         -25.0260    6.4790   26.9630 C.3     1  UNL1        0.1388
     18 O         -25.1430    3.9660   28.2430 O.2     1  UNL1       -0.2683
     19 C         -27.4380    3.0910   25.6450 C.2     1  UNL1        0.1080
     20 N         -28.0750    2.0890   25.0030 N.2     1  UNL1       -0.2080
     21 C         -27.5430    0.8490   25.0790 C.2     1  UNL1        0.2546
     22 O         -28.1930   -0.2080   24.4770 O.2     1  UNL1       -0.4558
     23 C         -29.4600    0.0050   23.8660 C.3     1  UNL1        0.2426
     24 C         -30.0650   -1.3770   23.5730 C.3     1  UNL1        0.2292
     25 O         -30.7290   -1.8780   24.7210 O.3     1  UNL1       -0.2162
     26 C         -26.3540    0.5760   25.7770 C.2     1  UNL1        0.2083
     27 F         -25.8600   -0.6810   25.7950 F       1  UNL1       -0.1978
     28 C         -22.4339    1.4614   28.1260 C.3     1  UNL1        0.3133
     29 O         -22.3204   -0.7632   29.0202 O.2     1  UNL1       -0.2714
     30 C         -25.9152    4.4276   32.5380 C.2     1  UNL1        0.0168
     31 C         -27.1173    4.7421   33.1893 C.2     1  UNL1       -0.0011
     32 F         -21.0590    1.3305   27.7730 F       1  UNL1       -0.2172
     33 C         -22.8748    0.2188   28.9772 C.2     1  UNL1        0.2678
     34 O         -24.0520    5.6736   31.8125 O.2     1  UNL1       -0.2869
     35 C         -24.8428    5.3330   32.7669 C.2     1  UNL1        0.1917
     36 C         -25.7495    3.3216   31.6131 C.3     1  UNL1        0.0313
     37 O         -23.0539    2.0857   25.7519 O.2     1  UNL1       -0.2695
     38 C         -25.9002    6.0999   34.7266 C.2     1  UNL1        0.0033
     39 C         -27.0918    5.6195   34.2506 C.2     1  UNL1       -0.0001
     40 C         -24.1917    1.1800   30.9851 C.3     1  UNL1        0.0775
     41 C         -24.3442    2.8269   31.0400 C.3     1  UNL1        0.0246
     42 C         -24.7622    6.0655   33.9570 C.2     1  UNL1        0.0417
     43 C         -23.4089    1.4490   27.0112 C.2     1  UNL1        0.2876
     44 N         -24.6801    1.3336   27.3188 N.am    1  UNL1       -0.1738
     45 N         -24.0361    0.1581   29.9187 N.am    1  UNL1       -0.2750
@<TRIPOS>BOND
     1     1     2    1
     2     1     8    1
     3     2     7    1
     4     3     2    2
     5     4     3    1
     6     4     5    2
     7     5     6    1
     8     6     7    2
     9     8     9    1
    10     8    12    1
    11     9    10    1
    12    10    11    1
    13    12    11    1
    14    13    44    1
    15    14    13    1
    16    14    15    1
    17    15    18    2
    18    16    17    1
    19    16    15    1
    20    19    14    2
    21    20    21    2
    22    20    19    1
    23    21    26    1
    24    22    21    1
    25    23    22    1
    26    24    23    1
    27    24    25    1
    28    26    27    1
    29    26    13    2
    30    28    32    1
    31    28    33    1
    32    30    35    2
    33    30    31    1
    34    31    39    2
    35    33    29    2
    36    33    45   am
    37    34    35    1
    38    35    42    1
    39    36    30    1
    40    37    43    2
    41    39    38    1
    42    40    41    1
    43    40     9    1
    44    41    36    1
    45    42    38    2
    46    43    44    1
    47    43    28    1
    48    45     1    1
    49    45    40    1
