@<TRIPOS>MOLECULE
outputs/IAG933/test6/raw/output_8985_IAG933_linker_design_.xyz
 45 48 0 0 0
SMALL
GASTEIGER

@<TRIPOS>ATOM
      1 C         -24.8550   -1.0120   30.1430 C.3     1  UNL1        0.1114
      2 C         -24.9730   -2.5050   29.7880 C.2     1  UNL1       -0.0051
      3 C         -23.9060   -3.1730   29.1460 C.2     1  UNL1       -0.0029
      4 C         -23.9890   -4.5490   28.8530 C.2     1  UNL1       -0.0003
      5 C         -25.1370   -5.2800   29.2050 C.2     1  UNL1       -0.0000
      6 C         -26.2320   -4.6110   29.7840 C.2     1  UNL1       -0.0003
      7 C         -26.1550   -3.2320   30.0650 C.2     1  UNL1       -0.0029
      8 C         -25.3870   -0.6790   31.5710 C.3     1  UNL1        0.0929
      9 C         -25.1890    0.7730   32.0280 C.3     1  UNL1        0.0206
     10 C         -25.3360    0.6840   33.5440 C.3     1  UNL1        0.0203
     11 C         -24.8290   -0.7150   33.9050 C.3     1  UNL1        0.0888
     12 N         -24.7580   -1.4810   32.6460 N.3     1  UNL1       -0.2177
     13 C         -25.6880    1.6140   26.4610 C.2     1  UNL1        0.0407
     14 C         -26.2500    2.9200   26.3950 C.2     1  UNL1        0.0744
     15 C         -25.6420    4.0930   27.1230 C.2     1  UNL1        0.2218
     16 N         -25.6140    5.2520   26.4490 N.2     1  UNL1       -0.2357
     17 C         -25.0260    6.4790   26.9630 C.3     1  UNL1        0.1550
     18 O         -25.1430    3.9660   28.2430 O.2     1  UNL1       -0.4634
     19 C         -27.4380    3.0910   25.6450 C.2     1  UNL1        0.1068
     20 N         -28.0750    2.0890   25.0030 N.2     1  UNL1       -0.2081
     21 C         -27.5430    0.8490   25.0790 C.2     1  UNL1        0.2533
     22 O         -28.1930   -0.2080   24.4770 O.2     1  UNL1       -0.4558
     23 C         -29.4600    0.0050   23.8660 C.3     1  UNL1        0.2426
     24 C         -30.0650   -1.3770   23.5730 C.3     1  UNL1        0.2292
     25 O         -30.7290   -1.8780   24.7210 O.3     1  UNL1       -0.2162
     26 C         -26.3540    0.5760   25.7770 C.2     1  UNL1        0.1931
     27 F         -25.8600   -0.6810   25.7950 F       1  UNL1       -0.1992
     28 C         -27.8783    5.9578   30.4849 C.2     1  UNL1        0.0596
     29 CA        -23.0025    0.9209   29.1738 C.3     1  UNL1        0.1761
     30 C         -24.7614    2.3980   29.9557 C.3     1  UNL1        0.0464
     31 O         -27.8187    2.6167   29.2768 O.2     1  UNL1       -0.2741
     32 C         -25.3488    3.6647   29.4099 C.3     1  UNL1        0.1799
     33 C         -29.8229    4.6413   29.5636 C.3     1  UNL1        0.1337
     34 C         -29.8972    4.7748   28.0769 C.3     1  UNL1        0.2039
     35 C         -26.5970    5.6782   30.5763 C.2     1  UNL1       -0.0173
     36 C         -22.1200    1.3360   27.8822 C.2     1  UNL1        0.3803
     37 C         -26.3998    4.4352   30.0561 C.3     1  UNL1        0.1364
     38 O         -22.7140    1.9461   26.9913 O.co2   1  UNL1       -0.2441
     39 C         -25.5495    6.6427   31.2568 C.3     1  UNL1        0.0283
     40 O         -28.8660    5.3718   27.2995 O.3     1  UNL1       -0.2185
     41 OXT       -20.9556    1.0875   27.8666 O.co2   1  UNL1       -0.2441
     42 C         -24.4473    1.5477   29.2113 C.3     1  UNL1        0.0327
     43 N         -28.4055    4.8259   30.0191 N.am    1  UNL1       -0.2550
     44 C         -27.6268    3.8327   29.8026 C.2     1  UNL1        0.2363
     45 N         -23.4531   -0.4240   29.7710 N.3     1  UNL1       -0.2039
@<TRIPOS>BOND
     1     1    45    1
     2     2     7    1
     3     2     1    1
     4     3     2    2
     5     4     3    1
     6     4     5    2
     7     5     6    1
     8     6     7    2
     9     8     1    1
    10     8     9    1
    11     8    12    1
    12     9    10    1
    13    10    11    1
    14    12    11    1
    15    14    13    1
    16    14    15    1
    17    15    18    1
    18    16    17    1
    19    16    15    2
    20    18    32    1
    21    19    14    2
    22    20    21    2
    23    20    19    1
    24    21    26    1
    25    22    21    1
    26    23    22    1
    27    24    23    1
    28    24    25    1
    29    26    27    1
    30    26    13    2
    31    28    35    2
    32    29    42    1
    33    29    45    1
    34    31    44    2
    35    32    30    1
    36    33    43    1
    37    34    33    1
    38    35    39    1
    39    36    29    1
    40    37    32    1
    41    37    35    1
    42    38    36   ar
    43    40    34    1
    44    41    36   ar
    45    42    30    1
    46    43    28    1
    47    44    43   am
    48    44    37    1
