@<TRIPOS>MOLECULE
outputs/IAG933/test6/raw/output_8987_IAG933_linker_design_.xyz
 49 53 0 0 0
SMALL
GASTEIGER

@<TRIPOS>ATOM
      1 C         -24.8550   -1.0120   30.1430 C.3     1  UNL1        0.1306
      2 C         -24.9730   -2.5050   29.7880 C.2     1  UNL1       -0.0013
      3 C         -23.9060   -3.1730   29.1460 C.2     1  UNL1       -0.0026
      4 C         -23.9890   -4.5490   28.8530 C.2     1  UNL1       -0.0003
      5 C         -25.1370   -5.2800   29.2050 C.2     1  UNL1       -0.0000
      6 C         -26.2320   -4.6110   29.7840 C.2     1  UNL1       -0.0003
      7 C         -26.1550   -3.2320   30.0650 C.2     1  UNL1       -0.0026
      8 C         -25.3870   -0.6790   31.5710 C.3     1  UNL1        0.0968
      9 C         -25.1890    0.7730   32.0280 C.3     1  UNL1        0.0210
     10 C         -25.3360    0.6840   33.5440 C.3     1  UNL1        0.0203
     11 C         -24.8290   -0.7150   33.9050 C.3     1  UNL1        0.0888
     12 N         -24.7580   -1.4810   32.6460 N.3     1  UNL1       -0.2174
     13 C         -25.6880    1.6140   26.4610 C.2     1  UNL1        0.0395
     14 C         -26.2500    2.9200   26.3950 C.2     1  UNL1        0.0748
     15 C         -25.6420    4.0930   27.1230 C.2     1  UNL1        0.2269
     16 N         -25.6140    5.2520   26.4490 N.2     1  UNL1       -0.2353
     17 C         -25.0260    6.4790   26.9630 C.3     1  UNL1        0.1550
     18 O         -25.1430    3.9660   28.2430 O.2     1  UNL1       -0.4358
     19 C         -27.4380    3.0910   25.6450 C.2     1  UNL1        0.1068
     20 N         -28.0750    2.0890   25.0030 N.2     1  UNL1       -0.2081
     21 C         -27.5430    0.8490   25.0790 C.2     1  UNL1        0.2533
     22 O         -28.1930   -0.2080   24.4770 O.2     1  UNL1       -0.4558
     23 C         -29.4600    0.0050   23.8660 C.3     1  UNL1        0.2426
     24 C         -30.0650   -1.3770   23.5730 C.3     1  UNL1        0.2292
     25 O         -30.7290   -1.8780   24.7210 O.3     1  UNL1       -0.2162
     26 C         -26.3540    0.5760   25.7770 C.2     1  UNL1        0.1931
     27 F         -25.8600   -0.6810   25.7950 F       1  UNL1       -0.1992
     28 N         -29.4137    4.4120   28.1971 N.pl3   1  UNL1        0.2050
     29 C         -21.6241    1.2353   27.7573 C.2     1  UNL1        0.0434
     30 C         -24.5930    6.6188   34.1389 C.3     1  UNL1        0.0564
     31 C         -26.3617    4.0763   29.5838 C.2     1  UNL1        0.1663
     32 C         -28.7466    3.4374   28.6476 C.2     1  UNL1        0.4833
     33 C         -23.9429    0.6513   28.2375 C.2     1  UNL1        0.1045
     34 C         -25.7893    5.6930   33.8158 C.3     1  UNL1        0.2061
     35 N         -24.8622   -0.0122   29.0681 N.pl3   1  UNL1       -0.2303
     36 C         -27.3090    6.0265   34.0391 C.3     1  UNL1        0.0564
     37 N         -25.4377    4.9512   32.6293 N.3     1  UNL1       -0.0628
     38 O         -24.2332    4.7336   31.9724 O.3     1  UNL1        0.0195
     39 C         -27.7151    3.6963   29.6011 C.2     1  UNL1        0.1787
     40 C         -21.9562    1.9124   26.5691 C.2     1  UNL1        0.0034
     41 C         -22.5999    0.6004   28.5354 C.2     1  UNL1        0.2104
     42 C         -25.7025    4.4925   30.5640 C.2     1  UNL1        0.1322
     43 O         -22.2692   -0.1160   29.6343 O.2     1  UNL1       -0.2852
     44 C         -28.1634    3.5274   30.8671 C.2     1  UNL1        0.2470
     45 C         -23.2873    2.0241   26.1722 C.2     1  UNL1        0.0016
     46 N         -28.9770    2.1445   28.3470 N.pl3   1  UNL1        0.2050
     47 N         -27.5893    4.1199   31.8962 N.2     1  UNL1       -0.0312
     48 C         -24.3235    1.4104   26.9777 C.2     1  UNL1        0.0205
     49 C         -26.2686    4.5093   31.7687 C.2     1  UNL1        0.3662
@<TRIPOS>BOND
     1     1    35    1
     2     2     7    1
     3     2     1    1
     4     3     2    2
     5     4     3    1
     6     4     5    2
     7     5     6    1
     8     6     7    2
     9     8     1    1
    10     8     9    1
    11     8    12    1
    12     9    10    1
    13    10    11    1
    14    12    11    1
    15    13    48    1
    16    14    13    1
    17    14    15    1
    18    15    18    1
    19    16    17    1
    20    16    15    2
    21    18    31    1
    22    19    14    2
    23    20    21    2
    24    20    19    1
    25    21    26    1
    26    22    21    1
    27    23    22    1
    28    24    23    1
    29    24    25    1
    30    26    27    1
    31    26    13    2
    32    28    32    2
    33    29    41    1
    34    31    39    2
    35    31    42    1
    36    32    39    1
    37    33    41    2
    38    33    35    1
    39    34    36    1
    40    34    30    1
    41    37    34    1
    42    38    37    1
    43    39    44    1
    44    40    29    2
    45    41    43    1
    46    42    49    2
    47    44    47    2
    48    45    40    1
    49    45    48    2
    50    46    32    1
    51    48    33    1
    52    49    47    1
    53    49    37    1
