@<TRIPOS>MOLECULE
outputs/IAG933/test6/raw/output_8989_IAG933_linker_design_.xyz
 45 48 0 0 0
SMALL
GASTEIGER

@<TRIPOS>ATOM
      1 C         -24.8550   -1.0120   30.1430 C.3     1  UNL1        0.0690
      2 C         -24.9730   -2.5050   29.7880 C.2     1  UNL1       -0.0187
      3 C         -23.9060   -3.1730   29.1460 C.2     1  UNL1       -0.0042
      4 C         -23.9890   -4.5490   28.8530 C.2     1  UNL1       -0.0003
      5 C         -25.1370   -5.2800   29.2050 C.2     1  UNL1       -0.0000
      6 C         -26.2320   -4.6110   29.7840 C.2     1  UNL1       -0.0003
      7 C         -26.1550   -3.2320   30.0650 C.2     1  UNL1       -0.0042
      8 C         -25.3870   -0.6790   31.5710 C.3     1  UNL1        0.0793
      9 C         -25.1890    0.7730   32.0280 C.3     1  UNL1        0.0193
     10 C         -25.3360    0.6840   33.5440 C.3     1  UNL1        0.0202
     11 C         -24.8290   -0.7150   33.9050 C.3     1  UNL1        0.0887
     12 N         -24.7580   -1.4810   32.6460 N.3     1  UNL1       -0.2190
     13 C         -25.6880    1.6140   26.4610 C.3     1  UNL1        0.0736
     14 C         -26.2500    2.9200   26.3950 C.2     1  UNL1        0.0549
     15 C         -25.6420    4.0930   27.1230 C.2     1  UNL1        0.2624
     16 N         -25.6140    5.2520   26.4490 N.am    1  UNL1       -0.2000
     17 C         -25.0260    6.4790   26.9630 C.3     1  UNL1        0.1388
     18 O         -25.1430    3.9660   28.2430 O.2     1  UNL1       -0.2687
     19 C         -27.4380    3.0910   25.6450 C.2     1  UNL1        0.1021
     20 N         -28.0750    2.0890   25.0030 N.2     1  UNL1       -0.2119
     21 C         -27.5430    0.8490   25.0790 C.2     1  UNL1        0.2341
     22 O         -28.1930   -0.2080   24.4770 O.2     1  UNL1       -0.4585
     23 C         -29.4600    0.0050   23.8660 C.3     1  UNL1        0.2423
     24 C         -30.0650   -1.3770   23.5730 C.3     1  UNL1        0.2292
     25 O         -30.7290   -1.8780   24.7210 O.3     1  UNL1       -0.2162
     26 C         -26.3540    0.5760   25.7770 C.3     1  UNL1        0.2401
     27 F         -25.8600   -0.6810   25.7950 F       1  UNL1       -0.2269
     28 O         -21.0981    1.7006   27.8821 O.co2   1  UNL1       -0.2428
     29 C         -28.1071    2.2495   29.3994 C.2     1  UNL1       -0.0045
     30 C         -26.8125    6.2721   30.4579 C.3     1  UNL1        0.0308
     31 C         -28.3634    4.6574   29.2041 C.2     1  UNL1        0.0066
     32 C         -26.8202    2.5273   29.7757 C.2     1  UNL1       -0.0203
     33 O         -27.2653   -0.5421   28.9485 O.3     1  UNL1       -0.2224
     34 C         -25.6088    1.3422   28.9284 C.3     1  UNL1        0.0565
     35 C         -24.6774    1.1539   27.5600 C.3     1  UNL1        0.0556
     36 C         -25.8750   -0.2078   29.3151 C.3     1  UNL1        0.1613
     37 C         -28.9360    3.3656   29.1361 C.2     1  UNL1       -0.0024
     38 C         -26.4772    3.7710   30.3711 C.2     1  UNL1       -0.0087
     39 C         -22.1240    1.4420   27.1266 C.2     1  UNL1        0.3946
     40 C         -27.2485    4.8888   30.0355 C.2     1  UNL1       -0.0237
     41 O         -22.5897    0.3764   29.2648 O.3     1  UNL1       -0.2109
     42 C         -28.8853    5.7054   28.1780 C.3     1  UNL1        0.2083
     43 O         -22.2466    1.6230   25.8652 O.co2   1  UNL1       -0.2428
     44 C         -23.2567    0.7546   27.9817 C.3     1  UNL1        0.2547
     45 O         -29.6210    6.7098   28.8593 O.3     1  UNL1       -0.2152
@<TRIPOS>BOND
     1     1    36    1
     2     2     7    1
     3     2     1    1
     4     3     2    2
     5     4     3    1
     6     4     5    2
     7     5     6    1
     8     6     7    2
     9     8     1    1
    10     8     9    1
    11     8    12    1
    12     9    10    1
    13    10    11    1
    14    12    11    1
    15    13    35    1
    16    14    13    1
    17    14    15    1
    18    15    18    2
    19    16    17    1
    20    16    15    1
    21    19    14    2
    22    20    21    2
    23    20    19    1
    24    21    26    1
    25    22    21    1
    26    23    22    1
    27    24    23    1
    28    24    25    1
    29    26    27    1
    30    26    13    1
    31    29    32    1
    32    31    40    2
    33    32    38    2
    34    34    35    1
    35    34    36    1
    36    34    32    1
    37    35    44    1
    38    36    33    1
    39    37    31    1
    40    37    29    2
    41    39    28   ar
    42    39    44    1
    43    40    38    1
    44    40    30    1
    45    42    45    1
    46    42    31    1
    47    43    39   ar
    48    44    41    1
