@<TRIPOS>MOLECULE
outputs/IAG933/test6/raw/output_8991_IAG933_linker_design_.xyz
 44 48 0 0 0
SMALL
GASTEIGER

@<TRIPOS>ATOM
      1 C         -24.8550   -1.0120   30.1430 C.3     1  UNL1        0.1114
      2 C         -24.9730   -2.5050   29.7880 C.2     1  UNL1       -0.0030
      3 C         -23.9060   -3.1730   29.1460 C.2     1  UNL1       -0.0026
      4 C         -23.9890   -4.5490   28.8530 C.2     1  UNL1       -0.0003
      5 C         -25.1370   -5.2800   29.2050 C.2     1  UNL1       -0.0000
      6 C         -26.2320   -4.6110   29.7840 C.2     1  UNL1       -0.0003
      7 C         -26.1550   -3.2320   30.0650 C.2     1  UNL1       -0.0026
      8 C         -25.3870   -0.6790   31.5710 C.3     1  UNL1        0.0950
      9 C         -25.1890    0.7730   32.0280 C.3     1  UNL1        0.0209
     10 C         -25.3360    0.6840   33.5440 C.3     1  UNL1        0.0203
     11 C         -24.8290   -0.7150   33.9050 C.3     1  UNL1        0.0888
     12 N         -24.7580   -1.4810   32.6460 N.3     1  UNL1       -0.2174
     13 C         -25.6880    1.6140   26.4610 C.2     1  UNL1        0.0392
     14 C         -26.2500    2.9200   26.3950 C.2     1  UNL1        0.0766
     15 C         -25.6420    4.0930   27.1230 C.2     1  UNL1        0.2664
     16 N         -25.6140    5.2520   26.4490 N.am    1  UNL1       -0.1997
     17 C         -25.0260    6.4790   26.9630 C.3     1  UNL1        0.1388
     18 O         -25.1430    3.9660   28.2430 O.2     1  UNL1       -0.2683
     19 C         -27.4380    3.0910   25.6450 C.2     1  UNL1        0.1067
     20 N         -28.0750    2.0890   25.0030 N.2     1  UNL1       -0.2081
     21 C         -27.5430    0.8490   25.0790 C.2     1  UNL1        0.2533
     22 O         -28.1930   -0.2080   24.4770 O.2     1  UNL1       -0.4558
     23 C         -29.4600    0.0050   23.8660 C.3     1  UNL1        0.2426
     24 C         -30.0650   -1.3770   23.5730 C.3     1  UNL1        0.2292
     25 O         -30.7290   -1.8780   24.7210 O.3     1  UNL1       -0.2162
     26 C         -26.3540    0.5760   25.7770 C.2     1  UNL1        0.1931
     27 F         -25.8600   -0.6810   25.7950 F       1  UNL1       -0.1992
     28 C         -26.7101    0.8129   28.9385 C.3     1  UNL1        0.1562
     29 F         -19.9516    1.2884   28.0146 F       1  UNL1       -0.2312
     30 N         -25.4263    0.0328   29.1996 N.pl3   1  UNL1       -0.2997
     31 C         -24.3937    0.4444   28.3518 C.2     1  UNL1        0.0457
     32 C         -27.9151   -0.0066   28.5950 C.2     1  UNL1        0.1710
     33 C         -24.4840    1.3002   27.1536 C.2     1  UNL1        0.0193
     34 C         -21.0703   -0.5925   28.8788 C.3     1  UNL1        0.1289
     35 C         -23.1687    1.5160   26.9106 C.2     1  UNL1        0.0771
     36 C         -22.6113    2.2637   25.8310 C.2     1  UNL1        0.3873
     37 C         -23.0741    0.1145   28.5952 C.3     1  UNL1        0.1293
     38 O         -23.4365    2.9047   25.0991 O.co2   1  UNL1       -0.2406
     39 C         -21.0092    0.5278   28.2327 C.3     1  UNL1        0.1985
     40 N         -22.3882   -0.7968   29.1758 N.3     1  UNL1       -0.2063
     41 C         -29.0329    0.7634   27.9927 C.3     1  UNL1        0.0741
     42 O         -28.0000   -1.1641   28.9832 O.2     1  UNL1       -0.2942
     43 C         -22.2917    0.8731   27.8158 C.2     1  UNL1        0.0165
     44 O         -21.3746    2.2148   25.6169 O.co2   1  UNL1       -0.2406
@<TRIPOS>BOND
     1     1    30    1
     2     2     7    1
     3     2     1    1
     4     3     2    2
     5     4     3    1
     6     4     5    2
     7     5     6    1
     8     6     7    2
     9     8     1    1
    10     8     9    1
    11     8    12    1
    12     9    10    1
    13    10    11    1
    14    12    11    1
    15    13    33    1
    16    14    13    1
    17    14    15    1
    18    15    18    2
    19    16    17    1
    20    16    15    1
    21    19    14    2
    22    20    21    2
    23    20    19    1
    24    21    26    1
    25    22    21    1
    26    23    22    1
    27    24    23    1
    28    24    25    1
    29    26    27    1
    30    26    13    2
    31    28    30    1
    32    31    37    1
    33    31    30    1
    34    32    28    1
    35    32    42    2
    36    33    31    2
    37    34    40    1
    38    35    33    1
    39    35    43    2
    40    36    35    1
    41    37    43    1
    42    37    40    1
    43    38    36   ar
    44    39    29    1
    45    39    34    1
    46    41    32    1
    47    43    39    1
    48    44    36   ar
