@<TRIPOS>MOLECULE
outputs/IAG933/test6/raw/output_8993_IAG933_linker_design_.xyz
 44 47 0 0 0
SMALL
GASTEIGER

@<TRIPOS>ATOM
      1 C         -24.8550   -1.0120   30.1430 C.3     1  UNL1        0.0401
      2 C         -24.9730   -2.5050   29.7880 C.2     1  UNL1       -0.0211
      3 C         -23.9060   -3.1730   29.1460 C.2     1  UNL1       -0.0042
      4 C         -23.9890   -4.5490   28.8530 C.2     1  UNL1       -0.0003
      5 C         -25.1370   -5.2800   29.2050 C.2     1  UNL1       -0.0000
      6 C         -26.2320   -4.6110   29.7840 C.2     1  UNL1       -0.0003
      7 C         -26.1550   -3.2320   30.0650 C.2     1  UNL1       -0.0042
      8 C         -25.3870   -0.6790   31.5710 C.3     1  UNL1        0.0769
      9 C         -25.1890    0.7730   32.0280 C.3     1  UNL1        0.0192
     10 C         -25.3360    0.6840   33.5440 C.3     1  UNL1        0.0202
     11 C         -24.8290   -0.7150   33.9050 C.3     1  UNL1        0.0887
     12 N         -24.7580   -1.4810   32.6460 N.3     1  UNL1       -0.2191
     13 C         -25.6880    1.6140   26.4610 C.3     1  UNL1        0.0952
     14 C         -26.2500    2.9200   26.3950 C.2     1  UNL1        0.0590
     15 C         -25.6420    4.0930   27.1230 C.2     1  UNL1        0.2628
     16 N         -25.6140    5.2520   26.4490 N.am    1  UNL1       -0.2000
     17 C         -25.0260    6.4790   26.9630 C.3     1  UNL1        0.1388
     18 O         -25.1430    3.9660   28.2430 O.2     1  UNL1       -0.2686
     19 C         -27.4380    3.0910   25.6450 C.2     1  UNL1        0.1025
     20 N         -28.0750    2.0890   25.0030 N.2     1  UNL1       -0.2118
     21 C         -27.5430    0.8490   25.0790 C.2     1  UNL1        0.2344
     22 O         -28.1930   -0.2080   24.4770 O.2     1  UNL1       -0.4585
     23 C         -29.4600    0.0050   23.8660 C.3     1  UNL1        0.2423
     24 C         -30.0650   -1.3770   23.5730 C.3     1  UNL1        0.2292
     25 O         -30.7290   -1.8780   24.7210 O.3     1  UNL1       -0.2162
     26 C         -26.3540    0.5760   25.7770 C.3     1  UNL1        0.2441
     27 F         -25.8600   -0.6810   25.7950 F       1  UNL1       -0.2265
     28 C         -20.8956   -0.0626   29.1853 C.3     1  UNL1        0.0473
     29 C         -24.5239    1.2855   28.7898 C.3     1  UNL1        0.0980
     30 C         -23.6928    1.3496   27.5582 C.2     1  UNL1        0.0292
     31 C         -25.2101    0.0175   29.1242 C.3     1  UNL1        0.0277
     32 C         -20.2056   -0.3870   27.9312 C.3     1  UNL1        0.0040
     33 F         -20.2939    2.2760   27.4131 F       1  UNL1       -0.1797
     34 O         -21.9212    1.9213   25.4949 O.2     1  UNL1       -0.4411
     35 O         -27.1787    2.5458   30.4055 O.3     1  UNL1       -0.2188
     36 C         -22.2502    1.3442   27.7880 C.2     1  UNL1        0.1876
     37 C         -21.9135   -0.3212   29.7557 C.3     1  UNL1        0.2052
     38 C         -21.5120    1.7735   26.9680 C.3     1  UNL1        0.3850
     39 N         -24.5059    2.3982   29.7693 N.3     1  UNL1       -0.2122
     40 C         -24.2224    1.5847   26.3718 C.2     1  UNL1        0.0222
     41 C         -24.9735    3.4162   30.7193 C.3     1  UNL1        0.1245
     42 C         -26.3960    3.6790   30.7879 C.3     1  UNL1        0.2008
     43 C         -23.2778    1.8326   25.2300 C.2     1  UNL1        0.1716
     44 O         -22.0087    1.0333   29.1549 O.2     1  UNL1       -0.4735
@<TRIPOS>BOND
     1     1    31    1
     2     2     7    1
     3     2     1    1
     4     3     2    2
     5     4     3    1
     6     4     5    2
     7     5     6    1
     8     6     7    2
     9     8     1    1
    10     8     9    1
    11     8    12    1
    12     9    10    1
    13    10    11    1
    14    12    11    1
    15    13    40    1
    16    14    13    1
    17    14    15    1
    18    15    18    2
    19    16    17    1
    20    16    15    1
    21    19    14    2
    22    20    21    2
    23    20    19    1
    24    21    26    1
    25    22    21    1
    26    23    22    1
    27    24    23    1
    28    24    25    1
    29    26    27    1
    30    26    13    1
    31    28    37    1
    32    29    31    1
    33    29    39    1
    34    30    36    2
    35    30    29    1
    36    32    28    1
    37    34    38    1
    38    35    42    1
    39    36    44    1
    40    38    33    1
    41    38    36    1
    42    39    41    1
    43    40    30    1
    44    41    42    1
    45    43    34    1
    46    43    40    2
    47    44    37    1
