@<TRIPOS>MOLECULE
outputs/IAG933/test6/raw/output_8994_IAG933_linker_design_.xyz
 43 47 0 0 0
SMALL
GASTEIGER

@<TRIPOS>ATOM
      1 C         -24.8550   -1.0120   30.1430 C.3     1  UNL1        0.0754
      2 C         -24.9730   -2.5050   29.7880 C.2     1  UNL1       -0.0158
      3 C         -23.9060   -3.1730   29.1460 C.2     1  UNL1       -0.0039
      4 C         -23.9890   -4.5490   28.8530 C.2     1  UNL1       -0.0003
      5 C         -25.1370   -5.2800   29.2050 C.2     1  UNL1       -0.0000
      6 C         -26.2320   -4.6110   29.7840 C.2     1  UNL1       -0.0003
      7 C         -26.1550   -3.2320   30.0650 C.2     1  UNL1       -0.0039
      8 C         -25.3870   -0.6790   31.5710 C.3     1  UNL1        0.0821
      9 C         -25.1890    0.7730   32.0280 C.3     1  UNL1        0.0196
     10 C         -25.3360    0.6840   33.5440 C.3     1  UNL1        0.0203
     11 C         -24.8290   -0.7150   33.9050 C.3     1  UNL1        0.0887
     12 N         -24.7580   -1.4810   32.6460 N.3     1  UNL1       -0.2188
     13 C         -25.6880    1.6140   26.4610 C.2     1  UNL1        0.0298
     14 C         -26.2500    2.9200   26.3950 C.2     1  UNL1        0.0737
     15 C         -25.6420    4.0930   27.1230 C.2     1  UNL1        0.2662
     16 N         -25.6140    5.2520   26.4490 N.am    1  UNL1       -0.1997
     17 C         -25.0260    6.4790   26.9630 C.3     1  UNL1        0.1388
     18 O         -25.1430    3.9660   28.2430 O.2     1  UNL1       -0.2683
     19 C         -27.4380    3.0910   25.6450 C.2     1  UNL1        0.1064
     20 N         -28.0750    2.0890   25.0030 N.2     1  UNL1       -0.2081
     21 C         -27.5430    0.8490   25.0790 C.2     1  UNL1        0.2530
     22 O         -28.1930   -0.2080   24.4770 O.2     1  UNL1       -0.4558
     23 C         -29.4600    0.0050   23.8660 C.3     1  UNL1        0.2426
     24 C         -30.0650   -1.3770   23.5730 C.3     1  UNL1        0.2292
     25 O         -30.7290   -1.8780   24.7210 O.3     1  UNL1       -0.2162
     26 C         -26.3540    0.5760   25.7770 C.2     1  UNL1        0.1902
     27 F         -25.8600   -0.6810   25.7950 F       1  UNL1       -0.1995
     28 C         -30.8732    0.5120   28.7138 C.2     1  UNL1        0.0512
     29 C         -24.3007    1.4116   27.0429 C.3     1  UNL1        0.0970
     30 C         -22.7190    0.3162   28.5320 C.2     1  UNL1        0.0894
     31 C         -28.8440    1.0206   29.8061 C.2     1  UNL1        0.2693
     32 C         -30.2811   -0.5211   27.9885 C.2     1  UNL1        0.0098
     33 N         -30.1700    1.2924   29.6051 N.am    1  UNL1       -0.1819
     34 N         -26.7279   -0.2151   29.0867 N.pl3   1  UNL1       -0.2297
     35 C         -21.9412    1.2436   27.7185 C.3     1  UNL1        0.1053
     36 N         -22.2441   -0.3373   29.5300 N.2     1  UNL1       -0.1520
     37 C         -32.3763    0.7057   28.5852 C.3     1  UNL1        0.0493
     38 O         -28.1840    1.6795   30.7574 O.2     1  UNL1       -0.2708
     39 C         -24.2136    0.5399   28.2426 C.2     1  UNL1        0.0190
     40 S         -22.8303    1.9079   26.4651 S.3     1  UNL1       -0.1255
     41 C         -28.9509   -0.8341   28.2000 C.2     1  UNL1        0.0052
     42 C         -25.3106   -0.1159   28.9756 C.2     1  UNL1        0.0473
     43 C         -28.1743    0.0110   29.0452 C.3     1  UNL1        0.1918
@<TRIPOS>BOND
     1     1    42    1
     2     2     7    1
     3     2     1    1
     4     3     2    2
     5     4     3    1
     6     4     5    2
     7     5     6    1
     8     6     7    2
     9     8     1    1
    10     8     9    1
    11     8    12    1
    12     9    10    1
    13    10    11    1
    14    12    11    1
    15    14    13    1
    16    14    15    1
    17    15    18    2
    18    16    17    1
    19    16    15    1
    20    19    14    2
    21    20    21    2
    22    20    19    1
    23    21    26    1
    24    22    21    1
    25    23    22    1
    26    24    23    1
    27    24    25    1
    28    26    27    1
    29    26    13    2
    30    28    33    2
    31    29    13    1
    32    29    39    1
    33    30    36    2
    34    31    38    2
    35    32    41    2
    36    32    28    1
    37    33    31    1
    38    35    30    1
    39    37    28    1
    40    39    30    1
    41    39    42    2
    42    40    29    1
    43    40    35    1
    44    41    43    1
    45    42    34    1
    46    43    34    1
    47    43    31    1
