@<TRIPOS>MOLECULE
outputs/IAG933/test6/raw/output_8995_IAG933_linker_design_.xyz
 59 62 0 0 0
SMALL
GASTEIGER

@<TRIPOS>ATOM
      1 C         -24.8550   -1.0120   30.1430 C.3     1  UNL1        0.1138
      2 C         -24.9730   -2.5050   29.7880 C.2     1  UNL1       -0.0029
      3 C         -23.9060   -3.1730   29.1460 C.2     1  UNL1       -0.0026
      4 C         -23.9890   -4.5490   28.8530 C.2     1  UNL1       -0.0003
      5 C         -25.1370   -5.2800   29.2050 C.2     1  UNL1       -0.0000
      6 C         -26.2320   -4.6110   29.7840 C.2     1  UNL1       -0.0003
      7 C         -26.1550   -3.2320   30.0650 C.2     1  UNL1       -0.0026
      8 C         -25.3870   -0.6790   31.5710 C.3     1  UNL1        0.0951
      9 C         -25.1890    0.7730   32.0280 C.3     1  UNL1        0.0209
     10 C         -25.3360    0.6840   33.5440 C.3     1  UNL1        0.0203
     11 C         -24.8290   -0.7150   33.9050 C.3     1  UNL1        0.0888
     12 N         -24.7580   -1.4810   32.6460 N.3     1  UNL1       -0.2174
     13 C         -25.6880    1.6140   26.4610 C.2     1  UNL1        0.0343
     14 C         -26.2500    2.9200   26.3950 C.2     1  UNL1        0.0738
     15 C         -25.6420    4.0930   27.1230 C.2     1  UNL1        0.2662
     16 N         -25.6140    5.2520   26.4490 N.am    1  UNL1       -0.1997
     17 C         -25.0260    6.4790   26.9630 C.3     1  UNL1        0.1388
     18 O         -25.1430    3.9660   28.2430 O.2     1  UNL1       -0.2683
     19 C         -27.4380    3.0910   25.6450 C.2     1  UNL1        0.1065
     20 N         -28.0750    2.0890   25.0030 N.2     1  UNL1       -0.2081
     21 C         -27.5430    0.8490   25.0790 C.2     1  UNL1        0.2530
     22 O         -28.1930   -0.2080   24.4770 O.2     1  UNL1       -0.4560
     23 C         -29.4600    0.0050   23.8660 C.3     1  UNL1        0.2391
     24 C         -30.0650   -1.3770   23.5730 C.3     1  UNL1        0.1898
     25 O         -30.7290   -1.8780   24.7210 O.3     1  UNL1       -0.3450
     26 C         -26.3540    0.5760   25.7770 C.2     1  UNL1        0.1904
     27 F         -25.8600   -0.6810   25.7950 F       1  UNL1       -0.1995
     28 C         -21.1819    1.6309   27.4335 C.3     1  UNL1        0.0700
     29 S         -22.8717    2.2236   27.3622 S.3     1  UNL1       -0.1265
     30 C         -22.7653    0.3376   29.7483 C.3     1  UNL1        0.1152
     31 C         -32.9139    3.0748   32.3275 C.3     1  UNL1        0.0000
     32 N         -28.8917    4.3352   30.2720 N.am    1  UNL1       -0.1397
     33 C         -24.9081    0.8014   28.5234 C.2     1  UNL1        0.2398
     34 C         -29.6776   -1.6891   30.0810 C.2     1  UNL1        0.4127
     35 O         -26.0452    1.3104   29.0115 O.2     1  UNL1       -0.2736
     36 C         -28.9499    2.1555   31.2052 C.2     1  UNL1        0.0179
     37 C         -27.6252    4.5104   30.6556 C.2     1  UNL1        0.4671
     38 O         -27.1942    5.6167   30.5208 O.co2   1  UNL1       -0.2203
     39 C         -34.3116    4.6432   30.6014 C.3     1  UNL1        0.0000
     40 N         -24.1525    0.0211   29.4054 N.am    1  UNL1       -0.2733
     41 O         -29.7740    1.5556   27.4536 O.2     1  UNL1       -0.2855
     42 C         -31.7864   -1.7535   25.6784 C.3     1  UNL1        0.1698
     43 C         -28.9846    0.8794   30.8282 C.2     1  UNL1        0.0199
     44 C         -30.6187   -0.7923   27.8700 C.2     1  UNL1        0.0733
     45 C         -29.6547   -2.2488   32.5036 C.3     1  UNL1        0.2574
     46 C         -31.6862    3.5320   29.3887 C.3     1  UNL1        0.0310
     47 C         -31.8152    4.6010   30.5050 C.3     1  UNL1        0.0048
     48 C         -29.6558    0.6320   29.6873 C.2     1  UNL1        0.0999
     49 C         -33.0652    5.5882   32.5415 C.3     1  UNL1        0.0000
     50 O         -29.3661   -1.4105   31.3554 O.3     1  UNL1       -0.4300
     51 C         -24.3674    1.1890   27.1290 C.3     1  UNL1        0.1488
     52 C         -30.3902    2.7685   29.4359 C.2     1  UNL1        0.0334
     53 C         -33.0707    4.4188   31.5044 C.3     1  UNL1        0.0003
     54 C         -30.0113    1.5395   28.7521 C.2     1  UNL1        0.2068
     55 C         -29.4784    3.1288   30.3503 C.2     1  UNL1        0.0760
     56 N         -29.8693   -0.7188   29.0954 N.am    1  UNL1       -0.1996
     57 C         -31.3316   -1.9921   27.0449 C.2     1  UNL1        0.0223
     58 O         -26.8133    3.7001   30.9957 O.co2   1  UNL1       -0.2203
     59 O         -29.8363   -2.8878   29.8451 O.2     1  UNL1       -0.2255
@<TRIPOS>BOND
     1     1    40    1
     2     2     7    1
     3     2     1    1
     4     3     2    2
     5     4     3    1
     6     4     5    2
     7     5     6    1
     8     6     7    2
     9     8     1    1
    10     8     9    1
    11     8    12    1
    12     9    10    1
    13    10    11    1
    14    12    11    1
    15    13    51    1
    16    14    13    1
    17    14    15    1
    18    15    18    2
    19    16    17    1
    20    16    15    1
    21    19    14    2
    22    20    21    2
    23    20    19    1
    24    21    26    1
    25    22    21    1
    26    23    22    1
    27    24    23    1
    28    24    25    1
    29    25    42    1
    30    26    27    1
    31    26    13    2
    32    29    28    1
    33    32    55    1
    34    32    37    1
    35    33    35    2
    36    33    40   am
    37    34    50    1
    38    37    58   ar
    39    38    37   ar
    40    39    53    1
    41    40    30    1
    42    41    54    1
    43    42    57    1
    44    43    36    1
    45    44    56    1
    46    46    52    1
    47    46    47    1
    48    47    53    1
    49    48    43    2
    50    50    45    1
    51    51    29    1
    52    51    33    1
    53    52    55    1
    54    53    31    1
    55    53    49    1
    56    54    52    2
    57    54    48    1
    58    55    36    2
    59    56    48    1
    60    56    34   am
    61    57    44    2
    62    59    34    2
