@<TRIPOS>MOLECULE
outputs/IAG933/test6/raw/output_9_IAG933_linker_design_.xyz
 51 55 0 0 0
SMALL
GASTEIGER

@<TRIPOS>ATOM
      1 C         -24.8550   -1.0120   30.1430 C.3     1  UNL1        0.0451
      2 C         -24.9730   -2.5050   29.7880 C.2     1  UNL1       -0.0207
      3 C         -23.9060   -3.1730   29.1460 C.2     1  UNL1       -0.0042
      4 C         -23.9890   -4.5490   28.8530 C.2     1  UNL1       -0.0003
      5 C         -25.1370   -5.2800   29.2050 C.2     1  UNL1       -0.0000
      6 C         -26.2320   -4.6110   29.7840 C.2     1  UNL1       -0.0003
      7 C         -26.1550   -3.2320   30.0650 C.2     1  UNL1       -0.0042
      8 C         -25.3870   -0.6790   31.5710 C.3     1  UNL1        0.0917
      9 C         -25.1890    0.7730   32.0280 C.3     1  UNL1        0.0759
     10 C         -25.3360    0.6840   33.5440 C.3     1  UNL1        0.0362
     11 C         -24.8290   -0.7150   33.9050 C.3     1  UNL1        0.0901
     12 N         -24.7580   -1.4810   32.6460 N.3     1  UNL1       -0.2177
     13 C         -25.6880    1.6140   26.4610 C.2     1  UNL1        0.0212
     14 C         -26.2500    2.9200   26.3950 C.2     1  UNL1        0.0707
     15 C         -25.6420    4.0930   27.1230 C.2     1  UNL1        0.2217
     16 N         -25.6140    5.2520   26.4490 N.2     1  UNL1       -0.2357
     17 C         -25.0260    6.4790   26.9630 C.3     1  UNL1        0.1550
     18 O         -25.1430    3.9660   28.2430 O.2     1  UNL1       -0.4589
     19 C         -27.4380    3.0910   25.6450 C.2     1  UNL1        0.1065
     20 N         -28.0750    2.0890   25.0030 N.2     1  UNL1       -0.2081
     21 C         -27.5430    0.8490   25.0790 C.2     1  UNL1        0.2530
     22 O         -28.1930   -0.2080   24.4770 O.2     1  UNL1       -0.4558
     23 C         -29.4600    0.0050   23.8660 C.3     1  UNL1        0.2426
     24 C         -30.0650   -1.3770   23.5730 C.3     1  UNL1        0.2292
     25 O         -30.7290   -1.8780   24.7210 O.3     1  UNL1       -0.2162
     26 C         -26.3540    0.5760   25.7770 C.2     1  UNL1        0.1895
     27 F         -25.8600   -0.6810   25.7950 F       1  UNL1       -0.1996
     28 O         -25.2053    5.3628   33.5988 O.2     1  UNL1       -0.2485
     29 O         -23.6241    1.8771   29.4938 O.3     1  UNL1       -0.3507
     30 C         -30.5911    4.1780   27.4593 C.3     1  UNL1        0.0772
     31 C         -27.0833    3.6306   30.9543 C.3     1  UNL1        0.2039
     32 C         -29.3248    4.5556   29.6295 C.2     1  UNL1        0.0324
     33 N         -25.4991    2.2189   31.6283 N.3     1  UNL1       -0.2593
     34 C         -28.5274    3.5196   30.3621 C.2     1  UNL1       -0.0007
     35 C         -23.1017    1.8857   26.3116 C.2     1  UNL1        0.0357
     36 C         -24.0985    1.6471   28.5784 C.3     1  UNL1        0.1741
     37 C         -26.9408    1.4378   29.9492 C.3     1  UNL1        0.0226
     38 C         -28.3736    1.1407   30.2467 C.3     1  UNL1        0.0061
     39 C         -30.4737    4.7570   28.8877 C.2     1  UNL1        0.1731
     40 C         -24.3517    1.6581   27.0456 C.3     1  UNL1        0.0665
     41 O         -26.7323    4.4862   32.0998 O.3     1  UNL1       -0.4456
     42 C         -26.3162    2.7328   30.5727 C.3     1  UNL1        0.1272
     43 C         -23.0071    1.5821   29.1683 C.3     1  UNL1        0.1469
     44 CL        -23.1238    2.3003   24.7087 Cl      1  UNL1       -0.0869
     45 C         -29.1401    2.2608   30.3571 C.3     1  UNL1        0.0257
     46 C         -25.4982    4.3074   32.8834 C.2     1  UNL1        0.3338
     47 C         -25.7675    3.6955   29.4480 C.3     1  UNL1        0.2253
     48 C         -21.8695    1.8298   27.0612 C.2     1  UNL1       -0.0162
     49 O         -31.4472    5.4093   29.2295 O.2     1  UNL1       -0.2913
     50 C         -24.5747    3.2441   32.2863 C.3     1  UNL1        0.1834
     51 C         -21.6987    1.5285   28.4584 C.3     1  UNL1        0.0586
@<TRIPOS>BOND
     1     2     7    1
     2     2     1    1
     3     3     2    2
     4     4     3    1
     5     4     5    2
     6     5     6    1
     7     6     7    2
     8     8     1    1
     9     8     9    1
    10     8    12    1
    11     9    10    1
    12    10    11    1
    13    12    11    1
    14    13    40    1
    15    14    13    1
    16    14    15    1
    17    15    18    1
    18    16    17    1
    19    16    15    2
    20    18    47    1
    21    19    14    2
    22    20    21    2
    23    20    19    1
    24    21    26    1
    25    22    21    1
    26    23    22    1
    27    24    23    1
    28    24    25    1
    29    26    27    1
    30    26    13    2
    31    30    39    1
    32    31    34    1
    33    31    41    1
    34    32    34    2
    35    33     9    1
    36    33    50    1
    37    35    40    1
    38    35    48    2
    39    36    29    1
    40    37    38    1
    41    37    42    1
    42    38    45    1
    43    39    49    2
    44    39    32    1
    45    41    46    1
    46    42    47    1
    47    42    31    1
    48    42    33    1
    49    43    29    1
    50    44    35    1
    51    45    34    1
    52    46    28    2
    53    48    51    1
    54    50    46    1
    55    51    43    1
