@<TRIPOS>MOLECULE
No_900-gen_results/8p0m/2024-11-27-11-27-31/
 19 21 0 0 0
SMALL
GASTEIGER

@<TRIPOS>ATOM
      1 C         -28.0162   -0.8135   28.8779 C.3     1  UNL1        0.0174
      2 C         -27.0636   -0.1189   28.6079 C.3     1  UNL1        0.0449
      3 C         -25.7923   -0.4302   29.0761 C.2     1  UNL1       -0.0221
      4 C         -25.2700   -0.0487   30.0123 C.2     1  UNL1       -0.0046
      5 C         -28.5191   -0.6302   30.0918 C.3     1  UNL1        0.0449
      6 C         -27.6457   -0.5646   31.3559 C.2     1  UNL1       -0.0221
      7 C         -26.2550   -0.2092   31.4004 C.2     1  UNL1       -0.0046
      8 C         -29.8542   -1.0864   30.5161 C.ar    1  UNL1       -0.0184
      9 C         -30.1493   -2.2812   30.7905 C.ar    1  UNL1       -0.0040
     10 C         -31.4887   -2.7855   30.9997 C.ar    1  UNL1       -0.0003
     11 C         -32.4994   -1.8382   30.8514 C.ar    1  UNL1       -0.0000
     12 C         -30.7878   -0.0285   30.7671 C.ar    1  UNL1       -0.0040
     13 C         -32.1528   -0.4589   30.7941 C.ar    1  UNL1       -0.0003
     14 C         -27.0534    0.7733   27.3899 C.ar    1  UNL1       -0.0184
     15 C         -26.5825    2.0328   27.5317 C.ar    1  UNL1       -0.0040
     16 C         -27.5929    0.3667   26.1800 C.ar    1  UNL1       -0.0040
     17 C         -27.6282    1.0481   25.0526 C.ar    1  UNL1       -0.0003
     18 C         -26.5796    2.9175   26.4253 C.ar    1  UNL1       -0.0003
     19 C         -27.0993    2.4360   25.1526 C.ar    1  UNL1       -0.0000
@<TRIPOS>BOND
     1     1     2    1
     2     2     3    1
     3     3     4    2
     4     1     5    1
     5     5     6    1
     6     4     7    1
     7     6     7    2
     8     5     8    1
     9     2    14    1
    10    14    15   ar
    11    15    18   ar
    12    18    19   ar
    13    19    17   ar
    14    17    16   ar
    15    16    14   ar
    16     8     9   ar
    17     9    10   ar
    18    10    11   ar
    19    11    13   ar
    20    13    12   ar
    21    12     8   ar
