@<TRIPOS>MOLECULE
outputs/IAG933/test6/raw/output_9005_IAG933_linker_design_.xyz
 48 51 0 0 0
SMALL
GASTEIGER

@<TRIPOS>ATOM
      1 C         -24.8550   -1.0120   30.1430 C.3     1  UNL1        0.1323
      2 C         -24.9730   -2.5050   29.7880 C.2     1  UNL1       -0.0012
      3 C         -23.9060   -3.1730   29.1460 C.2     1  UNL1       -0.0026
      4 C         -23.9890   -4.5490   28.8530 C.2     1  UNL1       -0.0003
      5 C         -25.1370   -5.2800   29.2050 C.2     1  UNL1       -0.0000
      6 C         -26.2320   -4.6110   29.7840 C.2     1  UNL1       -0.0003
      7 C         -26.1550   -3.2320   30.0650 C.2     1  UNL1       -0.0026
      8 C         -25.3870   -0.6790   31.5710 C.3     1  UNL1        0.0968
      9 C         -25.1890    0.7730   32.0280 C.3     1  UNL1        0.0210
     10 C         -25.3360    0.6840   33.5440 C.3     1  UNL1        0.0203
     11 C         -24.8290   -0.7150   33.9050 C.3     1  UNL1        0.0888
     12 N         -24.7580   -1.4810   32.6460 N.3     1  UNL1       -0.2174
     13 C         -25.6880    1.6140   26.4610 C.2     1  UNL1        0.0557
     14 C         -26.2500    2.9200   26.3950 C.2     1  UNL1        0.0779
     15 C         -25.6420    4.0930   27.1230 C.2     1  UNL1        0.2665
     16 N         -25.6140    5.2520   26.4490 N.am    1  UNL1       -0.1997
     17 C         -25.0260    6.4790   26.9630 C.3     1  UNL1        0.1388
     18 O         -25.1430    3.9660   28.2430 O.2     1  UNL1       -0.2683
     19 C         -27.4380    3.0910   25.6450 C.2     1  UNL1        0.1068
     20 N         -28.0750    2.0890   25.0030 N.2     1  UNL1       -0.2081
     21 C         -27.5430    0.8490   25.0790 C.2     1  UNL1        0.2533
     22 O         -28.1930   -0.2080   24.4770 O.2     1  UNL1       -0.4560
     23 C         -29.4600    0.0050   23.8660 C.3     1  UNL1        0.2391
     24 C         -30.0650   -1.3770   23.5730 C.3     1  UNL1        0.1894
     25 O         -30.7290   -1.8780   24.7210 O.3     1  UNL1       -0.3498
     26 C         -26.3540    0.5760   25.7770 C.2     1  UNL1        0.1944
     27 F         -25.8600   -0.6810   25.7950 F       1  UNL1       -0.1992
     28 C         -24.7026    1.2248   27.2821 C.2     1  UNL1        0.1026
     29 N         -25.0635    0.6207   28.4025 N.pl3   1  UNL1       -0.1456
     30 O         -30.4369   -2.6796   31.5842 O.3     1  UNL1       -0.4432
     31 F         -21.0419    1.3665   27.8165 F       1  UNL1       -0.2018
     32 C         -30.2610   -1.4214   31.1862 C.2     1  UNL1        0.3377
     33 C         -29.4244   -3.6420   31.2613 C.3     1  UNL1        0.2557
     34 CL        -22.7099    2.3290   25.6463 Cl      1  UNL1       -0.0784
     35 O         -30.7140   -0.4461   31.7352 O.2     1  UNL1       -0.2482
     36 C         -29.3448    1.0925   28.8489 C.3     1  UNL1        0.2807
     37 C         -31.4383   -2.2334   25.8773 C.3     1  UNL1        0.1428
     38 N         -24.2197   -0.0886   29.1869 N.pl3   1  UNL1       -0.2129
     39 C         -29.5302   -1.3042   29.9884 C.3     1  UNL1        0.2058
     40 C         -31.2972   -0.4565   28.5723 C.2     1  UNL1        0.2279
     41 C         -32.3378   -1.0250   26.1826 C.3     1  UNL1        0.0416
     42 C         -22.3796    0.9731   28.0207 C.2     1  UNL1        0.1680
     43 N         -30.0989   -0.1670   29.0888 N.am    1  UNL1       -0.2412
     44 C         -31.6143   -0.0594   27.1348 C.3     1  UNL1        0.0879
     45 O         -28.0036    1.1882   29.3207 O.3     1  UNL1       -0.1958
     46 O         -32.1388   -1.1693   29.1372 O.2     1  UNL1       -0.2748
     47 C         -22.8590    0.0676   29.0723 C.2     1  UNL1        0.1126
     48 C         -23.3031    1.5058   27.0586 C.2     1  UNL1        0.1031
@<TRIPOS>BOND
     1     1     2    1
     2     2     7    1
     3     3     2    2
     4     4     3    1
     5     4     5    2
     6     5     6    1
     7     6     7    2
     8     8     1    1
     9     8     9    1
    10     8    12    1
    11     9    10    1
    12    10    11    1
    13    12    11    1
    14    13    28    1
    15    14    13    1
    16    14    15    1
    17    15    18    2
    18    16    17    1
    19    16    15    1
    20    19    14    2
    21    20    21    2
    22    20    19    1
    23    21    26    1
    24    22    21    1
    25    23    22    1
    26    24    23    1
    27    24    25    1
    28    25    37    1
    29    26    27    1
    30    26    13    2
    31    28    29    1
    32    29    38    1
    33    31    42    1
    34    32    30    1
    35    32    35    2
    36    33    30    1
    37    34    48    1
    38    36    43    1
    39    36    45    1
    40    37    41    1
    41    38     1    1
    42    39    32    1
    43    40    43   am
    44    40    46    2
    45    41    44    1
    46    42    47    2
    47    43    39    1
    48    44    40    1
    49    47    38    1
    50    48    28    2
    51    48    42    1
