@<TRIPOS>MOLECULE
outputs/IAG933/test6/raw/output_9007_IAG933_linker_design_.xyz
 44 47 0 0 0
SMALL
GASTEIGER

@<TRIPOS>ATOM
      1 C         -24.8550   -1.0120   30.1430 C.3     1  UNL1        0.1126
      2 C         -24.9730   -2.5050   29.7880 C.2     1  UNL1       -0.0051
      3 C         -23.9060   -3.1730   29.1460 C.2     1  UNL1       -0.0029
      4 C         -23.9890   -4.5490   28.8530 C.2     1  UNL1       -0.0003
      5 C         -25.1370   -5.2800   29.2050 C.2     1  UNL1       -0.0000
      6 C         -26.2320   -4.6110   29.7840 C.2     1  UNL1       -0.0003
      7 C         -26.1550   -3.2320   30.0650 C.2     1  UNL1       -0.0029
      8 C         -25.3870   -0.6790   31.5710 C.3     1  UNL1        0.0929
      9 C         -25.1890    0.7730   32.0280 C.3     1  UNL1        0.0206
     10 C         -25.3360    0.6840   33.5440 C.3     1  UNL1        0.0203
     11 C         -24.8290   -0.7150   33.9050 C.3     1  UNL1        0.0888
     12 N         -24.7580   -1.4810   32.6460 N.3     1  UNL1       -0.2177
     13 C         -25.6880    1.6140   26.4610 C.3     1  UNL1        0.1470
     14 C         -26.2500    2.9200   26.3950 C.2     1  UNL1        0.0732
     15 C         -25.6420    4.0930   27.1230 C.2     1  UNL1        0.2640
     16 N         -25.6140    5.2520   26.4490 N.am    1  UNL1       -0.1999
     17 C         -25.0260    6.4790   26.9630 C.3     1  UNL1        0.1388
     18 O         -25.1430    3.9660   28.2430 O.2     1  UNL1       -0.2686
     19 C         -27.4380    3.0910   25.6450 C.2     1  UNL1        0.1038
     20 N         -28.0750    2.0890   25.0030 N.2     1  UNL1       -0.2118
     21 C         -27.5430    0.8490   25.0790 C.2     1  UNL1        0.2358
     22 O         -28.1930   -0.2080   24.4770 O.2     1  UNL1       -0.4585
     23 C         -29.4600    0.0050   23.8660 C.3     1  UNL1        0.2423
     24 C         -30.0650   -1.3770   23.5730 C.3     1  UNL1        0.2292
     25 O         -30.7290   -1.8780   24.7210 O.3     1  UNL1       -0.2162
     26 C         -26.3540    0.5760   25.7770 C.3     1  UNL1        0.2581
     27 F         -25.8600   -0.6810   25.7950 F       1  UNL1       -0.2251
     28 C         -21.1658    1.5573   27.7773 C.2     1  UNL1        0.0242
     29 C         -23.4341    1.4300   27.2108 C.2     1  UNL1        0.2671
     30 C         -25.6346    1.0188   28.8724 C.3     1  UNL1        0.1518
     31 C         -26.7764    3.0846   30.4191 C.3     1  UNL1        0.0798
     32 O         -29.0746    3.8547   33.1431 O.3     1  UNL1       -0.3372
     33 N         -22.3839    0.0178   29.0554 N.pl3   1  UNL1       -0.1233
     34 O         -23.0935    1.9663   26.0588 O.2     1  UNL1       -0.2684
     35 C         -28.9754    2.1383   31.1511 C.3     1  UNL1        0.2170
     36 C         -22.3208    0.9426   28.0025 C.2     1  UNL1        0.1425
     37 O         -28.7118    1.1562   32.0850 O.3     1  UNL1       -0.2048
     38 N         -25.7760   -0.2957   29.1322 N.3     1  UNL1       -0.1955
     39 N         -24.8640    1.3626   27.5935 N.am    1  UNL1       -0.2565
     40 C         -27.7958    3.6039   32.5193 C.3     1  UNL1        0.2218
     41 C         -30.2680    3.2403   32.8032 C.3     1  UNL1        0.1480
     42 C         -26.5842    1.9349   29.4459 C.3     1  UNL1        0.0556
     43 N         -28.0751    3.1224   31.1517 N.3     1  UNL1       -0.2225
     44 C         -30.3552    2.7367   31.3958 C.3     1  UNL1        0.0822
@<TRIPOS>BOND
     1     1    38    1
     2     2     7    1
     3     2     1    1
     4     3     2    2
     5     4     3    1
     6     4     5    2
     7     5     6    1
     8     6     7    2
     9     8     1    1
    10     8     9    1
    11     8    12    1
    12     9    10    1
    13    10    11    1
    14    12    11    1
    15    13    39    1
    16    14    13    1
    17    14    15    1
    18    15    18    2
    19    16    17    1
    20    16    15    1
    21    19    14    2
    22    20    21    2
    23    20    19    1
    24    21    26    1
    25    22    21    1
    26    23    22    1
    27    24    23    1
    28    24    25    1
    29    26    27    1
    30    26    13    1
    31    28    36    2
    32    29    39   am
    33    29    36    1
    34    30    38    1
    35    30    42    1
    36    31    43    1
    37    34    29    2
    38    35    43    1
    39    35    44    1
    40    35    37    1
    41    36    33    1
    42    39    30    1
    43    40    32    1
    44    41    32    1
    45    42    31    1
    46    43    40    1
    47    44    41    1
