@<TRIPOS>MOLECULE
outputs/IAG933/test6/raw/output_9009_IAG933_linker_design_.xyz
 43 46 0 0 0
SMALL
GASTEIGER

@<TRIPOS>ATOM
      1 C         -24.8550   -1.0120   30.1430 C.3     1  UNL1        0.0966
      2 C         -24.9730   -2.5050   29.7880 C.2     1  UNL1       -0.0064
      3 C         -23.9060   -3.1730   29.1460 C.2     1  UNL1       -0.0029
      4 C         -23.9890   -4.5490   28.8530 C.2     1  UNL1       -0.0003
      5 C         -25.1370   -5.2800   29.2050 C.2     1  UNL1       -0.0000
      6 C         -26.2320   -4.6110   29.7840 C.2     1  UNL1       -0.0003
      7 C         -26.1550   -3.2320   30.0650 C.2     1  UNL1       -0.0029
      8 C         -25.3870   -0.6790   31.5710 C.3     1  UNL1        0.0916
      9 C         -25.1890    0.7730   32.0280 C.3     1  UNL1        0.0206
     10 C         -25.3360    0.6840   33.5440 C.3     1  UNL1        0.0203
     11 C         -24.8290   -0.7150   33.9050 C.3     1  UNL1        0.0888
     12 N         -24.7580   -1.4810   32.6460 N.3     1  UNL1       -0.2178
     13 C         -25.6880    1.6140   26.4610 C.3     1  UNL1        0.0922
     14 C         -26.2500    2.9200   26.3950 C.2     1  UNL1        0.0589
     15 C         -25.6420    4.0930   27.1230 C.2     1  UNL1        0.2628
     16 N         -25.6140    5.2520   26.4490 N.am    1  UNL1       -0.2000
     17 C         -25.0260    6.4790   26.9630 C.3     1  UNL1        0.1388
     18 O         -25.1430    3.9660   28.2430 O.2     1  UNL1       -0.2686
     19 C         -27.4380    3.0910   25.6450 C.2     1  UNL1        0.1025
     20 N         -28.0750    2.0890   25.0030 N.2     1  UNL1       -0.2118
     21 C         -27.5430    0.8490   25.0790 C.2     1  UNL1        0.2344
     22 O         -28.1930   -0.2080   24.4770 O.2     1  UNL1       -0.4585
     23 C         -29.4600    0.0050   23.8660 C.3     1  UNL1        0.2423
     24 C         -30.0650   -1.3770   23.5730 C.3     1  UNL1        0.2292
     25 O         -30.7290   -1.8780   24.7210 O.3     1  UNL1       -0.2162
     26 C         -26.3540    0.5760   25.7770 C.3     1  UNL1        0.2440
     27 F         -25.8600   -0.6810   25.7950 F       1  UNL1       -0.2265
     28 O         -30.1012    1.2532   29.4757 O.3     1  UNL1       -0.3219
     29 N         -25.6674   -0.2651   29.1189 N.3     1  UNL1       -0.2631
     30 F         -22.1634   -0.1310   29.5846 F       1  UNL1       -0.2045
     31 O         -29.8549   -1.2178   28.2446 O.3     1  UNL1       -0.2189
     32 C         -27.1600   -0.8664   28.7635 C.3     1  UNL1        0.1085
     33 O         -29.2985   -0.6738   31.2105 O.3     1  UNL1       -0.1841
     34 C         -21.5378    1.2149   27.7128 C.2     1  UNL1        0.0293
     35 C         -24.2557    1.5296   26.9393 C.2     1  UNL1       -0.0155
     36 C         -30.2322    0.2801   30.5722 C.3     1  UNL1        0.3290
     37 C         -23.1762    2.0901   26.1553 C.2     1  UNL1       -0.0040
     38 C         -24.9721    0.4540   28.6047 C.3     1  UNL1        0.1014
     39 C         -28.8629    1.0130   28.7253 C.3     1  UNL1        0.1792
     40 C         -28.7949   -0.5907   28.7742 C.3     1  UNL1        0.1973
     41 C         -22.5119    0.6188   28.4806 C.2     1  UNL1        0.1372
     42 C         -23.9264    0.8560   28.1002 C.2     1  UNL1        0.0178
     43 C         -21.8590    1.9479   26.5583 C.2     1  UNL1        0.0020
@<TRIPOS>BOND
     1     1    29    1
     2     2     7    1
     3     2     1    1
     4     3     2    2
     5     4     3    1
     6     4     5    2
     7     5     6    1
     8     6     7    2
     9     8     1    1
    10     8     9    1
    11     8    12    1
    12     9    10    1
    13    10    11    1
    14    12    11    1
    15    13    35    1
    16    14    13    1
    17    14    15    1
    18    15    18    2
    19    16    17    1
    20    16    15    1
    21    19    14    2
    22    20    21    2
    23    20    19    1
    24    21    26    1
    25    22    21    1
    26    23    22    1
    27    24    23    1
    28    24    25    1
    29    26    27    1
    30    26    13    1
    31    28    36    1
    32    32    40    1
    33    32    29    1
    34    34    41    1
    35    35    42    1
    36    36    33    1
    37    37    43    1
    38    37    35    2
    39    38    29    1
    40    39    40    1
    41    39    28    1
    42    40    31    1
    43    41    30    1
    44    42    41    2
    45    42    38    1
    46    43    34    2
