@<TRIPOS>MOLECULE
outputs/IAG933/test6/raw/output_9011_IAG933_linker_design_.xyz
 43 47 0 0 0
SMALL
GASTEIGER

@<TRIPOS>ATOM
      1 C         -24.8550   -1.0120   30.1430 C.3     1  UNL1        0.0625
      2 C         -24.9730   -2.5050   29.7880 C.2     1  UNL1       -0.0191
      3 C         -23.9060   -3.1730   29.1460 C.2     1  UNL1       -0.0042
      4 C         -23.9890   -4.5490   28.8530 C.2     1  UNL1       -0.0003
      5 C         -25.1370   -5.2800   29.2050 C.2     1  UNL1       -0.0000
      6 C         -26.2320   -4.6110   29.7840 C.2     1  UNL1       -0.0003
      7 C         -26.1550   -3.2320   30.0650 C.2     1  UNL1       -0.0042
      8 C         -25.3870   -0.6790   31.5710 C.3     1  UNL1        0.0788
      9 C         -25.1890    0.7730   32.0280 C.3     1  UNL1        0.0193
     10 C         -25.3360    0.6840   33.5440 C.3     1  UNL1        0.0202
     11 C         -24.8290   -0.7150   33.9050 C.3     1  UNL1        0.0887
     12 N         -24.7580   -1.4810   32.6460 N.3     1  UNL1       -0.2191
     13 C         -25.6880    1.6140   26.4610 C.2     1  UNL1        0.0378
     14 C         -26.2500    2.9200   26.3950 C.2     1  UNL1        0.0765
     15 C         -25.6420    4.0930   27.1230 C.2     1  UNL1        0.2664
     16 N         -25.6140    5.2520   26.4490 N.am    1  UNL1       -0.1997
     17 C         -25.0260    6.4790   26.9630 C.3     1  UNL1        0.1388
     18 O         -25.1430    3.9660   28.2430 O.2     1  UNL1       -0.2683
     19 C         -27.4380    3.0910   25.6450 C.2     1  UNL1        0.1067
     20 N         -28.0750    2.0890   25.0030 N.2     1  UNL1       -0.2081
     21 C         -27.5430    0.8490   25.0790 C.2     1  UNL1        0.2533
     22 O         -28.1930   -0.2080   24.4770 O.2     1  UNL1       -0.4558
     23 C         -29.4600    0.0050   23.8660 C.3     1  UNL1        0.2426
     24 C         -30.0650   -1.3770   23.5730 C.3     1  UNL1        0.2292
     25 O         -30.7290   -1.8780   24.7210 O.3     1  UNL1       -0.2162
     26 C         -26.3540    0.5760   25.7770 C.2     1  UNL1        0.1930
     27 F         -25.8600   -0.6810   25.7950 F       1  UNL1       -0.1992
     28 C         -30.1455    2.0138   27.9488 C.3     1  UNL1        0.0216
     29 C         -27.6282   -0.0402   29.0325 C.2     1  UNL1        0.3235
     30 N         -28.4414    1.0166   29.3917 N.am    1  UNL1       -0.2629
     31 C         -25.1495   -0.0598   29.0334 C.3     1  UNL1        0.1244
     32 C         -29.6725    3.4485   28.3698 C.3     1  UNL1        0.0035
     33 C         -21.9229    1.9175   26.8011 C.2     1  UNL1       -0.0000
     34 C         -28.2386    3.4740   29.1059 C.3     1  UNL1        0.0216
     35 C         -23.2507    2.0426   26.3157 C.2     1  UNL1       -0.0002
     36 C         -24.3122    1.3713   27.0049 C.2     1  UNL1        0.0002
     37 N         -26.3967    0.3207   28.8401 N.am    1  UNL1       -0.1853
     38 O         -28.0006   -1.1771   28.7567 O.2     1  UNL1       -0.2508
     39 C         -22.6580    0.3266   28.5543 C.2     1  UNL1       -0.0026
     40 C         -27.9319    2.2162   30.0145 C.3     1  UNL1        0.0950
     41 C         -21.6162    1.0383   27.8833 C.2     1  UNL1       -0.0003
     42 C         -29.8986    1.0790   29.1213 C.3     1  UNL1        0.0950
     43 C         -24.0656    0.5271   28.2029 C.2     1  UNL1       -0.0021
@<TRIPOS>BOND
     1     1    31    1
     2     2     7    1
     3     2     1    1
     4     3     2    2
     5     4     3    1
     6     4     5    2
     7     5     6    1
     8     6     7    2
     9     8     1    1
    10     8     9    1
    11     8    12    1
    12     9    10    1
    13    10    11    1
    14    12    11    1
    15    13    36    1
    16    14    13    1
    17    14    15    1
    18    15    18    2
    19    16    17    1
    20    16    15    1
    21    19    14    2
    22    20    21    2
    23    20    19    1
    24    21    26    1
    25    22    21    1
    26    23    22    1
    27    24    23    1
    28    24    25    1
    29    26    27    1
    30    26    13    2
    31    28    32    1
    32    28    42    1
    33    29    30   am
    34    30    40    1
    35    31    37    1
    36    32    34    1
    37    33    41    1
    38    34    40    1
    39    35    33    2
    40    35    36    1
    41    36    43    2
    42    37    29    1
    43    38    29    2
    44    41    39    2
    45    42    30    1
    46    43    39    1
    47    43    31    1
