@<TRIPOS>MOLECULE
outputs/IAG933/test6/raw/output_9013_IAG933_linker_design_.xyz
 50 56 0 0 0
SMALL
GASTEIGER

@<TRIPOS>ATOM
      1 C         -24.8550   -1.0120   30.1430 C.3     1  UNL1        0.0655
      2 C         -24.9730   -2.5050   29.7880 C.2     1  UNL1       -0.0188
      3 C         -23.9060   -3.1730   29.1460 C.2     1  UNL1       -0.0042
      4 C         -23.9890   -4.5490   28.8530 C.2     1  UNL1       -0.0003
      5 C         -25.1370   -5.2800   29.2050 C.2     1  UNL1       -0.0000
      6 C         -26.2320   -4.6110   29.7840 C.2     1  UNL1       -0.0003
      7 C         -26.1550   -3.2320   30.0650 C.2     1  UNL1       -0.0042
      8 C         -25.3870   -0.6790   31.5710 C.3     1  UNL1        0.0792
      9 C         -25.1890    0.7730   32.0280 C.3     1  UNL1        0.0193
     10 C         -25.3360    0.6840   33.5440 C.3     1  UNL1        0.0202
     11 C         -24.8290   -0.7150   33.9050 C.3     1  UNL1        0.0887
     12 N         -24.7580   -1.4810   32.6460 N.3     1  UNL1       -0.2191
     13 C         -25.6880    1.6140   26.4610 C.2     1  UNL1        0.0156
     14 C         -26.2500    2.9200   26.3950 C.2     1  UNL1        0.0726
     15 C         -25.6420    4.0930   27.1230 C.2     1  UNL1        0.2661
     16 N         -25.6140    5.2520   26.4490 N.am    1  UNL1       -0.1997
     17 C         -25.0260    6.4790   26.9630 C.3     1  UNL1        0.1388
     18 O         -25.1430    3.9660   28.2430 O.2     1  UNL1       -0.2683
     19 C         -27.4380    3.0910   25.6450 C.2     1  UNL1        0.1064
     20 N         -28.0750    2.0890   25.0030 N.2     1  UNL1       -0.2081
     21 C         -27.5430    0.8490   25.0790 C.2     1  UNL1        0.2530
     22 O         -28.1930   -0.2080   24.4770 O.2     1  UNL1       -0.4558
     23 C         -29.4600    0.0050   23.8660 C.3     1  UNL1        0.2426
     24 C         -30.0650   -1.3770   23.5730 C.3     1  UNL1        0.2292
     25 O         -30.7290   -1.8780   24.7210 O.3     1  UNL1       -0.2162
     26 C         -26.3540    0.5760   25.7770 C.2     1  UNL1        0.1891
     27 F         -25.8600   -0.6810   25.7950 F       1  UNL1       -0.1996
     28 O         -29.2178   -1.0958   28.0369 O.3     1  UNL1       -0.3473
     29 O         -26.0506   -0.3123   28.5385 O.3     1  UNL1       -0.3574
     30 C         -27.0658    0.1659   29.4914 C.3     1  UNL1        0.1281
     31 C         -29.6513    0.3062   28.5760 C.3     1  UNL1        0.1458
     32 C         -31.5449    1.4225   26.9947 C.3     1  UNL1        0.0255
     33 C         -26.9883    1.5832   29.6449 C.3     1  UNL1        0.0459
     34 C         -24.7095    0.1103   28.9719 C.3     1  UNL1        0.1207
     35 C         -24.3473    1.3229   26.9315 C.3     1  UNL1        0.0272
     36 C         -29.3108   -2.1953   28.9889 C.3     1  UNL1        0.1898
     37 C         -33.4108    0.3966   28.4263 C.3     1  UNL1        0.1099
     38 C         -32.3932   -0.3773   29.2443 C.2     1  UNL1        0.3171
     39 C         -32.9246    0.7737   26.9682 C.3     1  UNL1        0.0161
     40 C         -28.5123    0.8441   29.5854 C.3     1  UNL1        0.0990
     41 S         -29.1149    2.5110   29.7280 S.3     1  UNL1       -0.1102
     42 C         -23.0725    2.0912   26.1856 C.3     1  UNL1        0.0045
     43 C         -21.9191    1.5315   26.9665 C.3     1  UNL1        0.0004
     44 O         -31.8788    0.1945   30.2464 O.2     1  UNL1       -0.2501
     45 O         -31.8598   -1.5558   28.9475 O.3     1  UNL1       -0.4457
     46 C         -24.0700    0.9029   28.3308 C.3     1  UNL1        0.0317
     47 C         -30.4704    1.4165   27.9186 C.2     1  UNL1       -0.0106
     48 C         -30.1388    2.6552   28.6530 C.2     1  UNL1        0.0248
     49 C         -22.4919    1.0183   28.3536 C.3     1  UNL1        0.0028
     50 C         -30.7306   -2.1558   29.6571 C.3     1  UNL1        0.2403
@<TRIPOS>BOND
     1     1    34    1
     2     2     7    1
     3     2     1    1
     4     3     2    2
     5     4     3    1
     6     4     5    2
     7     5     6    1
     8     6     7    2
     9     8     1    1
    10     8     9    1
    11     8    12    1
    12     9    10    1
    13    10    11    1
    14    12    11    1
    15    14    13    1
    16    14    15    1
    17    15    18    2
    18    16    17    1
    19    16    15    1
    20    19    14    2
    21    20    21    2
    22    20    19    1
    23    21    26    1
    24    22    21    1
    25    23    22    1
    26    24    23    1
    27    24    25    1
    28    26    27    1
    29    26    13    2
    30    28    31    1
    31    28    36    1
    32    30    29    1
    33    30    40    1
    34    30    33    1
    35    31    47    1
    36    31    40    1
    37    32    47    1
    38    34    29    1
    39    35    13    1
    40    35    46    1
    41    36    50    1
    42    37    38    1
    43    38    44    2
    44    39    32    1
    45    39    37    1
    46    40    33    1
    47    40    41    1
    48    42    35    1
    49    42    43    1
    50    43    49    1
    51    45    38    1
    52    45    50    1
    53    46    49    1
    54    46    34    1
    55    47    48    2
    56    48    41    1
