@<TRIPOS>MOLECULE
outputs/IAG933/test6/raw/output_9014_IAG933_linker_design_.xyz
 43 46 0 0 0
SMALL
GASTEIGER

@<TRIPOS>ATOM
      1 C         -24.8550   -1.0120   30.1430 C.3     1  UNL1        0.0389
      2 C         -24.9730   -2.5050   29.7880 C.2     1  UNL1       -0.0211
      3 C         -23.9060   -3.1730   29.1460 C.2     1  UNL1       -0.0042
      4 C         -23.9890   -4.5490   28.8530 C.2     1  UNL1       -0.0003
      5 C         -25.1370   -5.2800   29.2050 C.2     1  UNL1       -0.0000
      6 C         -26.2320   -4.6110   29.7840 C.2     1  UNL1       -0.0003
      7 C         -26.1550   -3.2320   30.0650 C.2     1  UNL1       -0.0042
      8 C         -25.3870   -0.6790   31.5710 C.3     1  UNL1        0.0768
      9 C         -25.1890    0.7730   32.0280 C.3     1  UNL1        0.0192
     10 C         -25.3360    0.6840   33.5440 C.3     1  UNL1        0.0202
     11 C         -24.8290   -0.7150   33.9050 C.3     1  UNL1        0.0887
     12 N         -24.7580   -1.4810   32.6460 N.3     1  UNL1       -0.2191
     13 C         -25.6880    1.6140   26.4610 C.2     1  UNL1        0.0308
     14 C         -26.2500    2.9200   26.3950 C.2     1  UNL1        0.0717
     15 C         -25.6420    4.0930   27.1230 C.2     1  UNL1        0.2223
     16 N         -25.6140    5.2520   26.4490 N.2     1  UNL1       -0.2356
     17 C         -25.0260    6.4790   26.9630 C.3     1  UNL1        0.1550
     18 O         -25.1430    3.9660   28.2430 O.2     1  UNL1       -0.4519
     19 C         -27.4380    3.0910   25.6450 C.2     1  UNL1        0.1065
     20 N         -28.0750    2.0890   25.0030 N.2     1  UNL1       -0.2081
     21 C         -27.5430    0.8490   25.0790 C.2     1  UNL1        0.2530
     22 O         -28.1930   -0.2080   24.4770 O.2     1  UNL1       -0.4558
     23 C         -29.4600    0.0050   23.8660 C.3     1  UNL1        0.2426
     24 C         -30.0650   -1.3770   23.5730 C.3     1  UNL1        0.2292
     25 O         -30.7290   -1.8780   24.7210 O.3     1  UNL1       -0.2162
     26 C         -26.3540    0.5760   25.7770 C.2     1  UNL1        0.1904
     27 F         -25.8600   -0.6810   25.7950 F       1  UNL1       -0.1995
     28 N         -22.4053   -0.5378   29.1566 N.3     1  UNL1       -0.1309
     29 C         -25.3244   -0.0727   29.0961 C.3     1  UNL1        0.0159
     30 C         -24.6222    2.3300   29.7989 C.2     1  UNL1        0.1968
     31 C         -23.2076    1.9330   25.3824 C.3     1  UNL1        0.0899
     32 C         -24.4263    1.1874   28.9094 C.3     1  UNL1        0.0907
     33 O         -23.9501    2.5671   30.8551 O.2     1  UNL1       -0.2918
     34 O         -24.6914    5.2643   30.9391 O.co2   1  UNL1       -0.2406
     35 C         -25.7795    3.4416   29.5164 C.3     1  UNL1        0.2464
     36 C         -24.4588    1.4272   27.4479 C.3     1  UNL1        0.0908
     37 C         -26.9768    4.5240   29.9897 C.2     1  UNL1        0.0311
     38 C         -21.8253    1.5968   27.3199 C.3     1  UNL1        0.0899
     39 C         -25.5805    6.2884   31.2927 C.2     1  UNL1        0.3878
     40 N         -23.1887    1.5449   26.7921 N.3     1  UNL1       -0.2675
     41 C         -23.0154    0.7319   29.2645 C.3     1  UNL1        0.1179
     42 C         -26.8264    5.8914   30.7898 C.2     1  UNL1        0.0856
     43 O         -25.1541    7.3495   31.8227 O.co2   1  UNL1       -0.2406
@<TRIPOS>BOND
     1     1    29    1
     2     2     7    1
     3     2     1    1
     4     3     2    2
     5     4     3    1
     6     4     5    2
     7     5     6    1
     8     6     7    2
     9     8     1    1
    10     8     9    1
    11     8    12    1
    12     9    10    1
    13    10    11    1
    14    12    11    1
    15    13    36    1
    16    14    13    1
    17    14    15    1
    18    15    18    1
    19    16    17    1
    20    16    15    2
    21    18    35    1
    22    19    14    2
    23    20    21    2
    24    20    19    1
    25    21    26    1
    26    22    21    1
    27    23    22    1
    28    24    23    1
    29    24    25    1
    30    26    27    1
    31    26    13    2
    32    28    41    1
    33    30    33    2
    34    31    40    1
    35    32    29    1
    36    32    41    1
    37    32    30    1
    38    34    39   ar
    39    35    30    1
    40    35    37    1
    41    36    40    1
    42    36    32    1
    43    37    42    2
    44    39    43   ar
    45    40    38    1
    46    42    39    1
