@<TRIPOS>MOLECULE
outputs/IAG933/test6/raw/output_9019_IAG933_linker_design_.xyz
 40 43 0 0 0
SMALL
GASTEIGER

@<TRIPOS>ATOM
      1 C         -24.8550   -1.0120   30.1430 C.3     1  UNL1        0.0983
      2 C         -24.9730   -2.5050   29.7880 C.2     1  UNL1       -0.0064
      3 C         -23.9060   -3.1730   29.1460 C.2     1  UNL1       -0.0029
      4 C         -23.9890   -4.5490   28.8530 C.2     1  UNL1       -0.0003
      5 C         -25.1370   -5.2800   29.2050 C.2     1  UNL1       -0.0000
      6 C         -26.2320   -4.6110   29.7840 C.2     1  UNL1       -0.0003
      7 C         -26.1550   -3.2320   30.0650 C.2     1  UNL1       -0.0029
      8 C         -25.3870   -0.6790   31.5710 C.3     1  UNL1        0.0916
      9 C         -25.1890    0.7730   32.0280 C.3     1  UNL1        0.0206
     10 C         -25.3360    0.6840   33.5440 C.3     1  UNL1        0.0203
     11 C         -24.8290   -0.7150   33.9050 C.3     1  UNL1        0.0888
     12 N         -24.7580   -1.4810   32.6460 N.3     1  UNL1       -0.2178
     13 C         -25.6880    1.6140   26.4610 C.2     1  UNL1        0.0243
     14 C         -26.2500    2.9200   26.3950 C.2     1  UNL1        0.0730
     15 C         -25.6420    4.0930   27.1230 C.2     1  UNL1        0.2661
     16 N         -25.6140    5.2520   26.4490 N.am    1  UNL1       -0.1997
     17 C         -25.0260    6.4790   26.9630 C.3     1  UNL1        0.1388
     18 O         -25.1430    3.9660   28.2430 O.2     1  UNL1       -0.2683
     19 C         -27.4380    3.0910   25.6450 C.2     1  UNL1        0.1064
     20 N         -28.0750    2.0890   25.0030 N.2     1  UNL1       -0.2081
     21 C         -27.5430    0.8490   25.0790 C.2     1  UNL1        0.2530
     22 O         -28.1930   -0.2080   24.4770 O.2     1  UNL1       -0.4558
     23 C         -29.4600    0.0050   23.8660 C.3     1  UNL1        0.2426
     24 C         -30.0650   -1.3770   23.5730 C.3     1  UNL1        0.2292
     25 O         -30.7290   -1.8780   24.7210 O.3     1  UNL1       -0.2162
     26 C         -26.3540    0.5760   25.7770 C.2     1  UNL1        0.1896
     27 F         -25.8600   -0.6810   25.7950 F       1  UNL1       -0.1996
     28 F         -21.1571    1.8059   27.7713 F       1  UNL1       -0.1602
     29 O         -27.1571   -0.7840   28.2162 O.3     1  UNL1       -0.2005
     30 O         -21.3333    2.6185   25.9358 O.2     1  UNL1       -0.4116
     31 C         -24.2919    0.9241   28.5927 C.3     1  UNL1        0.1044
     32 C         -24.4326    1.3626   27.2095 C.3     1  UNL1        0.1045
     33 C         -23.3098    1.7614   26.4840 C.2     1  UNL1        0.1881
     34 N         -25.1023   -0.2476   28.9992 N.3     1  UNL1       -0.2392
     35 O         -22.5151   -0.1370   30.0970 O.3     1  UNL1       -0.2189
     36 O         -23.4856    2.1787   25.2568 O.2     1  UNL1       -0.4362
     37 C         -26.1800   -0.5531   28.4608 C.3     1  UNL1        0.2592
     38 C         -22.2513    2.6754   24.8272 C.3     1  UNL1        0.4307
     39 C         -22.0191    2.0123   26.6748 C.2     1  UNL1        0.3165
     40 C         -22.9035    0.4108   28.9506 C.3     1  UNL1        0.1987
@<TRIPOS>BOND
     1     1    34    1
     2     2     7    1
     3     2     1    1
     4     3     2    2
     5     4     3    1
     6     4     5    2
     7     5     6    1
     8     6     7    2
     9     8     1    1
    10     8     9    1
    11     8    12    1
    12     9    10    1
    13    10    11    1
    14    12    11    1
    15    13    32    1
    16    14    13    1
    17    14    15    1
    18    15    18    2
    19    16    17    1
    20    16    15    1
    21    19    14    2
    22    20    21    2
    23    20    19    1
    24    21    26    1
    25    22    21    1
    26    23    22    1
    27    24    23    1
    28    24    25    1
    29    26    27    1
    30    26    13    2
    31    29    37    1
    32    30    39    1
    33    31    40    1
    34    31    34    1
    35    32    31    1
    36    33    39    2
    37    33    32    1
    38    36    33    1
    39    37    34    1
    40    38    36    1
    41    38    30    1
    42    39    28    1
    43    40    35    1
