@<TRIPOS>MOLECULE
outputs/IAG933/test6/raw/output_902_IAG933_linker_design_.xyz
 47 51 0 0 0
SMALL
GASTEIGER

@<TRIPOS>ATOM
      1 C         -24.8550   -1.0120   30.1430 C.3     1  UNL1        0.0530
      2 C         -24.9730   -2.5050   29.7880 C.2     1  UNL1       -0.0198
      3 C         -23.9060   -3.1730   29.1460 C.2     1  UNL1       -0.0042
      4 C         -23.9890   -4.5490   28.8530 C.2     1  UNL1       -0.0003
      5 C         -25.1370   -5.2800   29.2050 C.2     1  UNL1       -0.0000
      6 C         -26.2320   -4.6110   29.7840 C.2     1  UNL1       -0.0003
      7 C         -26.1550   -3.2320   30.0650 C.2     1  UNL1       -0.0042
      8 C         -25.3870   -0.6790   31.5710 C.3     1  UNL1        0.0781
      9 C         -25.1890    0.7730   32.0280 C.3     1  UNL1        0.0192
     10 C         -25.3360    0.6840   33.5440 C.3     1  UNL1        0.0202
     11 C         -24.8290   -0.7150   33.9050 C.3     1  UNL1        0.0887
     12 N         -24.7580   -1.4810   32.6460 N.3     1  UNL1       -0.2191
     13 C         -25.6880    1.6140   26.4610 C.2     1  UNL1        0.0303
     14 C         -26.2500    2.9200   26.3950 C.2     1  UNL1        0.0738
     15 C         -25.6420    4.0930   27.1230 C.2     1  UNL1        0.2662
     16 N         -25.6140    5.2520   26.4490 N.am    1  UNL1       -0.1997
     17 C         -25.0260    6.4790   26.9630 C.3     1  UNL1        0.1388
     18 O         -25.1430    3.9660   28.2430 O.2     1  UNL1       -0.2683
     19 C         -27.4380    3.0910   25.6450 C.2     1  UNL1        0.1065
     20 N         -28.0750    2.0890   25.0030 N.2     1  UNL1       -0.2081
     21 C         -27.5430    0.8490   25.0790 C.2     1  UNL1        0.2530
     22 O         -28.1930   -0.2080   24.4770 O.2     1  UNL1       -0.4558
     23 C         -29.4600    0.0050   23.8660 C.3     1  UNL1        0.2426
     24 C         -30.0650   -1.3770   23.5730 C.3     1  UNL1        0.2292
     25 O         -30.7290   -1.8780   24.7210 O.3     1  UNL1       -0.2162
     26 C         -26.3540    0.5760   25.7770 C.2     1  UNL1        0.1904
     27 F         -25.8600   -0.6810   25.7950 F       1  UNL1       -0.1995
     28 C         -29.3249    0.7563   30.1856 C.3     1  UNL1        0.0318
     29 C         -24.4726    1.1982   27.1768 C.3     1  UNL1        0.0826
     30 N         -30.2314    2.2706   32.8866 N.3     1  UNL1       -0.2715
     31 C         -26.8179    0.6142   29.1701 C.3     1  UNL1        0.0189
     32 C         -25.4533   -0.1665   29.0105 C.3     1  UNL1        0.0632
     33 C         -29.3160    0.3383   31.5063 C.3     1  UNL1        0.0198
     34 C         -27.8259   -0.4304   28.6151 C.3     1  UNL1        0.0343
     35 C         -31.3844    2.5736   33.7730 C.3     1  UNL1        0.0896
     36 C         -28.4208    3.5333   31.6345 C.3     1  UNL1        0.0173
     37 C         -23.2281    1.6171   26.4751 C.3     1  UNL1        0.0206
     38 C         -29.6313    2.1282   29.8408 C.3     1  UNL1        0.0026
     39 C         -23.1830   -0.2834   28.4201 C.3     1  UNL1        0.0723
     40 C         -22.2221    0.8517   28.6826 C.3     1  UNL1        0.0174
     41 C         -29.1340   -0.1387   29.1748 C.3     1  UNL1        0.1520
     42 C         -29.5496    3.5437   32.6901 C.3     1  UNL1        0.0721
     43 C         -22.3023    1.9979   27.6309 C.3     1  UNL1        0.0032
     44 C         -28.9344    3.4001   30.1841 C.3     1  UNL1        0.0015
     45 N         -24.4189    0.3733   28.1658 N.3     1  UNL1       -0.2712
     46 C         -30.3707    0.9545   32.3722 C.3     1  UNL1        0.0722
     47 O         -29.9885   -0.7356   28.3660 O.3     1  UNL1       -0.2232
@<TRIPOS>BOND
     1     1    32    1
     2     2     7    1
     3     2     1    1
     4     3     2    2
     5     4     3    1
     6     4     5    2
     7     5     6    1
     8     6     7    2
     9     8     1    1
    10     8     9    1
    11     8    12    1
    12     9    10    1
    13    10    11    1
    14    12    11    1
    15    14    13    1
    16    14    15    1
    17    15    18    2
    18    16    17    1
    19    16    15    1
    20    19    14    2
    21    20    21    2
    22    20    19    1
    23    21    26    1
    24    22    21    1
    25    23    22    1
    26    24    23    1
    27    24    25    1
    28    26    27    1
    29    26    13    2
    30    28    41    1
    31    28    33    1
    32    29    13    1
    33    29    45    1
    34    30    35    1
    35    32    31    1
    36    33    46    1
    37    34    31    1
    38    34    41    1
    39    36    42    1
    40    37    29    1
    41    37    43    1
    42    38    44    1
    43    38    28    1
    44    39    40    1
    45    41    47    1
    46    42    30    1
    47    43    40    1
    48    44    36    1
    49    45    39    1
    50    45    32    1
    51    46    30    1
