@<TRIPOS>MOLECULE
outputs/IAG933/test6/raw/output_9020_IAG933_linker_design_.xyz
 46 49 0 0 0
SMALL
GASTEIGER

@<TRIPOS>ATOM
      1 C         -24.8550   -1.0120   30.1430 C.3     1  UNL1        0.0438
      2 C         -24.9730   -2.5050   29.7880 C.2     1  UNL1       -0.0208
      3 C         -23.9060   -3.1730   29.1460 C.2     1  UNL1       -0.0042
      4 C         -23.9890   -4.5490   28.8530 C.2     1  UNL1       -0.0003
      5 C         -25.1370   -5.2800   29.2050 C.2     1  UNL1       -0.0000
      6 C         -26.2320   -4.6110   29.7840 C.2     1  UNL1       -0.0003
      7 C         -26.1550   -3.2320   30.0650 C.2     1  UNL1       -0.0042
      8 C         -25.3870   -0.6790   31.5710 C.3     1  UNL1        0.0789
      9 C         -25.1890    0.7730   32.0280 C.3     1  UNL1        0.0403
     10 C         -25.3360    0.6840   33.5440 C.3     1  UNL1        0.0220
     11 C         -24.8290   -0.7150   33.9050 C.3     1  UNL1        0.0888
     12 N         -24.7580   -1.4810   32.6460 N.3     1  UNL1       -0.2191
     13 C         -25.6880    1.6140   26.4610 C.3     1  UNL1        0.1469
     14 C         -26.2500    2.9200   26.3950 C.2     1  UNL1        0.0732
     15 C         -25.6420    4.0930   27.1230 C.2     1  UNL1        0.2640
     16 N         -25.6140    5.2520   26.4490 N.am    1  UNL1       -0.1999
     17 C         -25.0260    6.4790   26.9630 C.3     1  UNL1        0.1388
     18 O         -25.1430    3.9660   28.2430 O.2     1  UNL1       -0.2686
     19 C         -27.4380    3.0910   25.6450 C.2     1  UNL1        0.1038
     20 N         -28.0750    2.0890   25.0030 N.2     1  UNL1       -0.2118
     21 C         -27.5430    0.8490   25.0790 C.2     1  UNL1        0.2358
     22 O         -28.1930   -0.2080   24.4770 O.2     1  UNL1       -0.4585
     23 C         -29.4600    0.0050   23.8660 C.3     1  UNL1        0.2423
     24 C         -30.0650   -1.3770   23.5730 C.3     1  UNL1        0.2292
     25 O         -30.7290   -1.8780   24.7210 O.3     1  UNL1       -0.2162
     26 C         -26.3540    0.5760   25.7770 C.3     1  UNL1        0.2581
     27 F         -25.8600   -0.6810   25.7950 F       1  UNL1       -0.2251
     28 O         -24.7422    3.3604   32.4543 O.3     1  UNL1       -0.3466
     29 C         -25.5446    5.4330   33.5244 C.2     1  UNL1        0.1806
     30 C         -23.2649    1.3543   26.9204 C.3     1  UNL1        0.0773
     31 O         -23.7354    1.6608   29.7021 O.2     1  UNL1       -0.2508
     32 N         -25.9727    1.5949   29.6523 N.am    1  UNL1       -0.1877
     33 C         -28.1120    4.9227   33.7787 C.3     1  UNL1        0.1409
     34 N         -24.6496    1.4105   27.4763 N.am    1  UNL1       -0.2589
     35 C         -25.7660    3.1489   31.4451 C.3     1  UNL1        0.1361
     36 O         -25.4765    6.3318   34.3940 O.2     1  UNL1       -0.2934
     37 C         -29.0139    5.8936   33.5505 C.2     1  UNL1        0.4542
     38 C         -24.7681    1.5419   29.0007 C.2     1  UNL1        0.3235
     39 C         -23.0466    2.0237   25.5574 C.3     1  UNL1        0.0216
     40 C         -26.8731    4.1279   31.7326 C.3     1  UNL1        0.0394
     41 C         -21.9014    1.3784   27.6870 C.3     1  UNL1        0.0216
     42 C         -26.8444    4.8833   32.9567 C.3     1  UNL1        0.0754
     43 C         -26.1173    1.7324   31.1264 C.3     1  UNL1        0.1253
     44 C         -24.3363    4.5511   33.1019 C.3     1  UNL1        0.2060
     45 N         -29.8457    6.3096   34.5114 N.pl3   1  UNL1        0.1994
     46 N         -28.9817    6.5177   32.3084 N.pl3   1  UNL1        0.1994
@<TRIPOS>BOND
     1     2     7    1
     2     2     1    1
     3     3     2    2
     4     4     3    1
     5     4     5    2
     6     5     6    1
     7     6     7    2
     8     8     1    1
     9     8     9    1
    10     8    12    1
    11     9    43    1
    12     9    10    1
    13    10    11    1
    14    12    11    1
    15    13    34    1
    16    14    13    1
    17    14    15    1
    18    15    18    2
    19    16    17    1
    20    16    15    1
    21    19    14    2
    22    20    21    2
    23    20    19    1
    24    21    26    1
    25    22    21    1
    26    23    22    1
    27    24    23    1
    28    24    25    1
    29    26    27    1
    30    26    13    1
    31    28    44    1
    32    29    36    2
    33    30    34    1
    34    30    41    1
    35    34    38   am
    36    35    43    1
    37    35    40    1
    38    35    28    1
    39    37    33    1
    40    37    45    1
    41    38    32    1
    42    38    31    2
    43    39    30    1
    44    40    42    1
    45    42    29    1
    46    42    33    1
    47    43    32    1
    48    44    29    1
    49    46    37    2
