@<TRIPOS>MOLECULE
outputs/IAG933/test6/raw/output_9022_IAG933_linker_design_.xyz
 41 44 0 0 0
SMALL
GASTEIGER

@<TRIPOS>ATOM
      1 C         -24.8550   -1.0120   30.1430 C.3     1  UNL1        0.1170
      2 C         -24.9730   -2.5050   29.7880 C.2     1  UNL1       -0.0028
      3 C         -23.9060   -3.1730   29.1460 C.2     1  UNL1       -0.0026
      4 C         -23.9890   -4.5490   28.8530 C.2     1  UNL1       -0.0003
      5 C         -25.1370   -5.2800   29.2050 C.2     1  UNL1       -0.0000
      6 C         -26.2320   -4.6110   29.7840 C.2     1  UNL1       -0.0003
      7 C         -26.1550   -3.2320   30.0650 C.2     1  UNL1       -0.0026
      8 C         -25.3870   -0.6790   31.5710 C.3     1  UNL1        0.0952
      9 C         -25.1890    0.7730   32.0280 C.3     1  UNL1        0.0209
     10 C         -25.3360    0.6840   33.5440 C.3     1  UNL1        0.0203
     11 C         -24.8290   -0.7150   33.9050 C.3     1  UNL1        0.0888
     12 N         -24.7580   -1.4810   32.6460 N.3     1  UNL1       -0.2174
     13 C         -25.6880    1.6140   26.4610 C.2     1  UNL1        0.0241
     14 C         -26.2500    2.9200   26.3950 C.2     1  UNL1        0.0730
     15 C         -25.6420    4.0930   27.1230 C.2     1  UNL1        0.2661
     16 N         -25.6140    5.2520   26.4490 N.am    1  UNL1       -0.1997
     17 C         -25.0260    6.4790   26.9630 C.3     1  UNL1        0.1388
     18 O         -25.1430    3.9660   28.2430 O.2     1  UNL1       -0.2683
     19 C         -27.4380    3.0910   25.6450 C.2     1  UNL1        0.1064
     20 N         -28.0750    2.0890   25.0030 N.2     1  UNL1       -0.2081
     21 C         -27.5430    0.8490   25.0790 C.2     1  UNL1        0.2530
     22 O         -28.1930   -0.2080   24.4770 O.2     1  UNL1       -0.4558
     23 C         -29.4600    0.0050   23.8660 C.3     1  UNL1        0.2426
     24 C         -30.0650   -1.3770   23.5730 C.3     1  UNL1        0.2292
     25 O         -30.7290   -1.8780   24.7210 O.3     1  UNL1       -0.2162
     26 C         -26.3540    0.5760   25.7770 C.2     1  UNL1        0.1896
     27 F         -25.8600   -0.6810   25.7950 F       1  UNL1       -0.1996
     28 F         -21.0402    1.4937   27.9577 F       1  UNL1       -0.1831
     29 O         -23.0474    2.6853   25.0093 O.2     1  UNL1       -0.2313
     30 C         -24.2923    0.6878   28.5277 C.3     1  UNL1        0.1928
     31 C         -23.1604    1.4428   26.9929 C.2     1  UNL1        0.1054
     32 N         -27.1550    1.3023   29.0765 N.am    1  UNL1       -0.1884
     33 N         -25.4114   -0.0963   29.0755 N.am    1  UNL1       -0.2405
     34 C         -22.9878    2.0529   25.9333 C.1     1  UNL1        0.1332
     35 C         -28.1532    2.4682   31.0567 C.3     1  UNL1        0.0253
     36 C         -28.3657    1.8785   29.6300 C.3     1  UNL1        0.1168
     37 C         -22.2963    1.1710   28.0429 C.2     1  UNL1        0.2260
     38 C         -24.5347    1.2627   27.2316 C.3     1  UNL1        0.1029
     39 C         -26.7528    0.0920   28.9257 C.2     1  UNL1        0.3248
     40 O         -27.5208   -0.8420   28.7096 O.2     1  UNL1       -0.2507
     41 N         -23.0422    0.6377   28.9582 N.2     1  UNL1       -0.2242
@<TRIPOS>BOND
     1     1    33    1
     2     2     7    1
     3     2     1    1
     4     3     2    2
     5     4     3    1
     6     4     5    2
     7     5     6    1
     8     6     7    2
     9     8     1    1
    10     8     9    1
    11     8    12    1
    12     9    10    1
    13    10    11    1
    14    12    11    1
    15    14    13    1
    16    14    15    1
    17    15    18    2
    18    16    17    1
    19    16    15    1
    20    19    14    2
    21    20    21    2
    22    20    19    1
    23    21    26    1
    24    22    21    1
    25    23    22    1
    26    24    23    1
    27    24    25    1
    28    26    27    1
    29    26    13    2
    30    28    37    1
    31    29    34    2
    32    30    41    1
    33    30    33    1
    34    31    38    1
    35    31    37    1
    36    32    36    1
    37    34    31    2
    38    36    35    1
    39    37    41    2
    40    38    13    1
    41    38    30    1
    42    39    33   am
    43    39    32    1
    44    40    39    2
