@<TRIPOS>MOLECULE
outputs/IAG933/test6/raw/output_9024_IAG933_linker_design_.xyz
 48 53 0 0 0
SMALL
GASTEIGER

@<TRIPOS>ATOM
      1 C         -24.8550   -1.0120   30.1430 C.3     1  UNL1        0.0441
      2 C         -24.9730   -2.5050   29.7880 C.2     1  UNL1       -0.0208
      3 C         -23.9060   -3.1730   29.1460 C.2     1  UNL1       -0.0042
      4 C         -23.9890   -4.5490   28.8530 C.2     1  UNL1       -0.0003
      5 C         -25.1370   -5.2800   29.2050 C.2     1  UNL1       -0.0000
      6 C         -26.2320   -4.6110   29.7840 C.2     1  UNL1       -0.0003
      7 C         -26.1550   -3.2320   30.0650 C.2     1  UNL1       -0.0042
      8 C         -25.3870   -0.6790   31.5710 C.3     1  UNL1        0.0819
      9 C         -25.1890    0.7730   32.0280 C.3     1  UNL1        0.0520
     10 C         -25.3360    0.6840   33.5440 C.3     1  UNL1        0.0253
     11 C         -24.8290   -0.7150   33.9050 C.3     1  UNL1        0.0891
     12 N         -24.7580   -1.4810   32.6460 N.3     1  UNL1       -0.2188
     13 C         -25.6880    1.6140   26.4610 C.3     1  UNL1        0.0788
     14 C         -26.2500    2.9200   26.3950 C.2     1  UNL1        0.0555
     15 C         -25.6420    4.0930   27.1230 C.2     1  UNL1        0.2625
     16 N         -25.6140    5.2520   26.4490 N.am    1  UNL1       -0.2000
     17 C         -25.0260    6.4790   26.9630 C.3     1  UNL1        0.1388
     18 O         -25.1430    3.9660   28.2430 O.2     1  UNL1       -0.2687
     19 C         -27.4380    3.0910   25.6450 C.2     1  UNL1        0.1022
     20 N         -28.0750    2.0890   25.0030 N.2     1  UNL1       -0.2119
     21 C         -27.5430    0.8490   25.0790 C.2     1  UNL1        0.2341
     22 O         -28.1930   -0.2080   24.4770 O.2     1  UNL1       -0.4585
     23 C         -29.4600    0.0050   23.8660 C.3     1  UNL1        0.2423
     24 C         -30.0650   -1.3770   23.5730 C.3     1  UNL1        0.2292
     25 O         -30.7290   -1.8780   24.7210 O.3     1  UNL1       -0.2162
     26 C         -26.3540    0.5760   25.7770 C.3     1  UNL1        0.2406
     27 F         -25.8600   -0.6810   25.7950 F       1  UNL1       -0.2269
     28 C         -21.4584    1.6454   27.3700 C.2     1  UNL1       -0.0000
     29 O         -23.8464    7.5962   35.3383 O.2     1  UNL1       -0.4696
     30 O         -22.8533    5.8066   32.7727 O.3     1  UNL1       -0.3386
     31 O         -24.6684    3.9898   32.6021 O.2     1  UNL1       -0.4029
     32 C         -21.8159    6.3698   33.6299 C.3     1  UNL1        0.1720
     33 C         -21.9439    1.9363   26.0741 C.2     1  UNL1       -0.0042
     34 C         -21.9155    7.9241   33.7029 C.2     1  UNL1        0.0457
     35 O         -26.1943    5.2954   31.3065 O.2     1  UNL1       -0.3106
     36 O         -26.2590    5.3315   33.3318 O.3     1  UNL1       -0.1364
     37 C         -24.2669    1.7034   26.8682 C.3     1  UNL1        0.0588
     38 C         -24.2393    6.3680   34.6175 C.3     1  UNL1        0.2457
     39 C         -23.7378    1.6198   28.2208 C.2     1  UNL1        0.0161
     40 C         -23.3307    1.9761   25.7847 C.2     1  UNL1       -0.0210
     41 C         -22.9869    8.5151   34.6987 C.2     1  UNL1        0.1703
     42 C         -25.2787    3.2022   31.6171 C.2     1  UNL1        0.2679
     43 N         -26.4079    3.8388   31.0722 N.2     1  UNL1       -0.0383
     44 C         -24.4442    1.7931   29.6126 C.1     1  UNL1       -0.1053
     45 C         -24.9338    2.0129   31.2205 C.2     1  UNL1        0.0690
     46 C         -25.3077    5.2003   32.4895 C.3     1  UNL1        0.4604
     47 C         -22.3429    1.4660   28.4292 C.2     1  UNL1        0.0036
     48 C         -24.1602    6.2805   33.0651 C.3     1  UNL1        0.2721
@<TRIPOS>BOND
     1     2     7    1
     2     2     1    1
     3     3     2    2
     4     4     3    1
     5     4     5    2
     6     5     6    1
     7     6     7    2
     8     8     1    1
     9     8     9    1
    10     8    12    1
    11     9    45    1
    12     9    10    1
    13    10    11    1
    14    12    11    1
    15    13    14    1
    16    13    37    1
    17    14    15    1
    18    15    18    2
    19    16    17    1
    20    16    15    1
    21    19    14    2
    22    20    21    2
    23    20    19    1
    24    21    26    1
    25    22    21    1
    26    23    22    1
    27    24    23    1
    28    24    25    1
    29    26    27    1
    30    26    13    1
    31    28    47    2
    32    30    48    1
    33    30    32    1
    34    32    34    1
    35    33    28    1
    36    34    41    2
    37    35    46    1
    38    37    40    1
    39    37    39    1
    40    38    29    1
    41    39    47    1
    42    39    44    2
    43    40    33    2
    44    41    29    1
    45    42    31    1
    46    43    35    1
    47    43    42    2
    48    44    45    2
    49    45    42    1
    50    46    31    1
    51    46    48    1
    52    46    36    1
    53    48    38    1
