@<TRIPOS>MOLECULE
outputs/IAG933/test6/raw/output_9029_IAG933_linker_design_.xyz
 47 51 0 0 0
SMALL
GASTEIGER

@<TRIPOS>ATOM
      1 C         -24.8550   -1.0120   30.1430 C.3     1  UNL1        0.0452
      2 C         -24.9730   -2.5050   29.7880 C.2     1  UNL1       -0.0207
      3 C         -23.9060   -3.1730   29.1460 C.2     1  UNL1       -0.0042
      4 C         -23.9890   -4.5490   28.8530 C.2     1  UNL1       -0.0003
      5 C         -25.1370   -5.2800   29.2050 C.2     1  UNL1       -0.0000
      6 C         -26.2320   -4.6110   29.7840 C.2     1  UNL1       -0.0003
      7 C         -26.1550   -3.2320   30.0650 C.2     1  UNL1       -0.0042
      8 C         -25.3870   -0.6790   31.5710 C.3     1  UNL1        0.0942
      9 C         -25.1890    0.7730   32.0280 C.3     1  UNL1        0.1061
     10 C         -25.3360    0.6840   33.5440 C.3     1  UNL1        0.0387
     11 C         -24.8290   -0.7150   33.9050 C.3     1  UNL1        0.0902
     12 N         -24.7580   -1.4810   32.6460 N.3     1  UNL1       -0.2176
     13 C         -25.6880    1.6140   26.4610 C.3     1  UNL1        0.1355
     14 C         -26.2500    2.9200   26.3950 C.2     1  UNL1        0.0627
     15 C         -25.6420    4.0930   27.1230 C.2     1  UNL1        0.2629
     16 N         -25.6140    5.2520   26.4490 N.am    1  UNL1       -0.2000
     17 C         -25.0260    6.4790   26.9630 C.3     1  UNL1        0.1388
     18 O         -25.1430    3.9660   28.2430 O.2     1  UNL1       -0.2686
     19 C         -27.4380    3.0910   25.6450 C.2     1  UNL1        0.1026
     20 N         -28.0750    2.0890   25.0030 N.2     1  UNL1       -0.2118
     21 C         -27.5430    0.8490   25.0790 C.2     1  UNL1        0.2346
     22 O         -28.1930   -0.2080   24.4770 O.2     1  UNL1       -0.4585
     23 C         -29.4600    0.0050   23.8660 C.3     1  UNL1        0.2423
     24 C         -30.0650   -1.3770   23.5730 C.3     1  UNL1        0.2292
     25 O         -30.7290   -1.8780   24.7210 O.3     1  UNL1       -0.2162
     26 C         -26.3540    0.5760   25.7770 C.3     1  UNL1        0.2478
     27 F         -25.8600   -0.6810   25.7950 F       1  UNL1       -0.2264
     28 C         -26.2019    3.1961   32.2511 C.3     1  UNL1        0.1730
     29 C         -28.9107    5.9617   33.4361 C.2     1  UNL1        0.4212
     30 O         -29.1575    4.9586   32.6229 O.3     1  UNL1       -0.4334
     31 C         -28.2299    4.5359   31.6356 C.3     1  UNL1        0.2153
     32 N         -23.0274    2.1089   29.4427 N.pl3   1  UNL1       -0.0135
     33 C         -23.4194    1.9167   25.7586 C.2     1  UNL1        0.0168
     34 N         -24.5043    1.9034   31.3227 N.3     1  UNL1       -0.1184
     35 C         -22.8033    1.6369   28.3073 C.2     1  UNL1        0.3385
     36 O         -24.7357    3.0563   31.7357 O.3     1  UNL1       -0.2785
     37 N         -23.9536    1.1157   27.8737 N.2     1  UNL1       -0.0453
     38 C         -22.0881    2.0176   26.1485 C.3     1  UNL1        0.0424
     39 C         -26.8340    4.5256   32.2659 C.3     1  UNL1        0.1077
     40 C         -24.3533    1.5207   26.7332 C.2     1  UNL1        0.1733
     41 O         -25.0001    6.2147   32.5816 O.3     1  UNL1       -0.2210
     42 O         -29.6881    6.1776   34.3211 O.2     1  UNL1       -0.2246
     43 C         -27.1485    6.9879   31.8505 C.3     1  UNL1        0.1516
     44 C         -26.1190    5.8628   31.7555 C.3     1  UNL1        0.1797
     45 N         -27.7909    6.8379   33.2157 N.am    1  UNL1       -0.1660
     46 C         -23.6466    2.1090   30.5267 C.3     1  UNL1        0.3538
     47 C         -21.7433    1.8896   27.4874 C.3     1  UNL1        0.1258
@<TRIPOS>BOND
     1     2     7    1
     2     2     1    1
     3     3     2    2
     4     4     3    1
     5     4     5    2
     6     5     6    1
     7     6     7    2
     8     8     1    1
     9     8     9    1
    10     8    12    1
    11     9    34    1
    12     9    10    1
    13    10    11    1
    14    12    11    1
    15    13    40    1
    16    14    13    1
    17    14    15    1
    18    15    18    2
    19    16    17    1
    20    16    15    1
    21    19    14    2
    22    20    21    2
    23    20    19    1
    24    21    26    1
    25    22    21    1
    26    23    22    1
    27    24    23    1
    28    24    25    1
    29    26    27    1
    30    26    13    1
    31    29    42    2
    32    30    29    1
    33    31    39    1
    34    31    30    1
    35    32    46    1
    36    33    38    1
    37    33    40    2
    38    34    36    1
    39    35    32    1
    40    36    28    1
    41    37    35    2
    42    38    47    1
    43    39    28    1
    44    40    37    1
    45    43    45    1
    46    44    43    1
    47    44    39    1
    48    44    41    1
    49    45    29    1
    50    46    34    1
    51    47    35    1
