@<TRIPOS>MOLECULE
outputs/IAG933/test6/raw/output_9030_IAG933_linker_design_.xyz
 43 46 0 0 0
SMALL
GASTEIGER

@<TRIPOS>ATOM
      1 C         -24.8550   -1.0120   30.1430 C.3     1  UNL1        0.0438
      2 C         -24.9730   -2.5050   29.7880 C.2     1  UNL1       -0.0208
      3 C         -23.9060   -3.1730   29.1460 C.2     1  UNL1       -0.0042
      4 C         -23.9890   -4.5490   28.8530 C.2     1  UNL1       -0.0003
      5 C         -25.1370   -5.2800   29.2050 C.2     1  UNL1       -0.0000
      6 C         -26.2320   -4.6110   29.7840 C.2     1  UNL1       -0.0003
      7 C         -26.1550   -3.2320   30.0650 C.2     1  UNL1       -0.0042
      8 C         -25.3870   -0.6790   31.5710 C.3     1  UNL1        0.0790
      9 C         -25.1890    0.7730   32.0280 C.3     1  UNL1        0.0433
     10 C         -25.3360    0.6840   33.5440 C.3     1  UNL1        0.0221
     11 C         -24.8290   -0.7150   33.9050 C.3     1  UNL1        0.0888
     12 N         -24.7580   -1.4810   32.6460 N.3     1  UNL1       -0.2191
     13 C         -25.6880    1.6140   26.4610 C.2     1  UNL1        0.1032
     14 C         -26.2500    2.9200   26.3950 C.2     1  UNL1        0.0914
     15 C         -25.6420    4.0930   27.1230 C.2     1  UNL1        0.2677
     16 N         -25.6140    5.2520   26.4490 N.am    1  UNL1       -0.1997
     17 C         -25.0260    6.4790   26.9630 C.3     1  UNL1        0.1388
     18 O         -25.1430    3.9660   28.2430 O.2     1  UNL1       -0.2683
     19 C         -27.4380    3.0910   25.6450 C.2     1  UNL1        0.1080
     20 N         -28.0750    2.0890   25.0030 N.2     1  UNL1       -0.2080
     21 C         -27.5430    0.8490   25.0790 C.2     1  UNL1        0.2546
     22 O         -28.1930   -0.2080   24.4770 O.2     1  UNL1       -0.4558
     23 C         -29.4600    0.0050   23.8660 C.3     1  UNL1        0.2426
     24 C         -30.0650   -1.3770   23.5730 C.3     1  UNL1        0.2292
     25 O         -30.7290   -1.8780   24.7210 O.3     1  UNL1       -0.2162
     26 C         -26.3540    0.5760   25.7770 C.2     1  UNL1        0.2077
     27 F         -25.8600   -0.6810   25.7950 F       1  UNL1       -0.1979
     28 O         -25.2573    4.0861   31.2210 O.2     1  UNL1       -0.2486
     29 C         -28.2193    0.7415   31.9713 C.3     1  UNL1        0.0727
     30 N         -24.7529    1.2215   27.2716 N.pl3   1  UNL1       -0.2366
     31 C         -23.5104    1.9955   27.2897 C.3     1  UNL1        0.0963
     32 C         -23.2122    1.4443   29.7077 C.3     1  UNL1        0.2103
     33 O         -30.3303    2.4141   32.1121 O.3     1  UNL1       -0.2217
     34 C         -22.5126    1.4380   28.3410 C.3     1  UNL1        0.0690
     35 C         -25.2007    2.9696   30.8844 C.2     1  UNL1        0.3316
     36 N         -27.3114    1.9126   32.2126 N.3     1  UNL1       -0.2627
     37 O         -24.2921    2.3981   29.8616 O.3     1  UNL1       -0.4475
     38 C         -26.0643    1.7370   31.4078 C.3     1  UNL1        0.1590
     39 C         -28.9878    2.0360   29.9942 C.3     1  UNL1        0.0358
     40 C         -28.0123    3.2295   31.9694 C.3     1  UNL1        0.1057
     41 C         -28.7152    0.5932   30.5066 C.3     1  UNL1        0.0200
     42 C         -22.9562    2.2432   25.8966 C.3     1  UNL1        0.0235
     43 C         -29.3171    2.8981   31.2192 C.3     1  UNL1        0.1679
@<TRIPOS>BOND
     1     2     7    1
     2     2     1    1
     3     3     2    2
     4     4     3    1
     5     4     5    2
     6     5     6    1
     7     6     7    2
     8     8     1    1
     9     8     9    1
    10     8    12    1
    11     9    38    1
    12     9    10    1
    13    10    11    1
    14    12    11    1
    15    13    30    1
    16    14    13    1
    17    14    15    1
    18    15    18    2
    19    16    17    1
    20    16    15    1
    21    19    14    2
    22    20    21    2
    23    20    19    1
    24    21    26    1
    25    22    21    1
    26    23    22    1
    27    24    23    1
    28    24    25    1
    29    26    27    1
    30    26    13    2
    31    29    36    1
    32    30    31    1
    33    31    42    1
    34    31    34    1
    35    32    37    1
    36    34    32    1
    37    35    28    2
    38    37    35    1
    39    38    35    1
    40    38    36    1
    41    39    41    1
    42    39    43    1
    43    40    36    1
    44    41    29    1
    45    43    40    1
    46    43    33    1
