@<TRIPOS>MOLECULE
outputs/IAG933/test6/raw/output_9032_IAG933_linker_design_.xyz
 40 43 0 0 0
SMALL
GASTEIGER

@<TRIPOS>ATOM
      1 C         -24.8550   -1.0120   30.1430 C.3     1  UNL1        0.1989
      2 C         -24.9730   -2.5050   29.7880 C.2     1  UNL1        0.0213
      3 C         -23.9060   -3.1730   29.1460 C.2     1  UNL1       -0.0004
      4 C         -23.9890   -4.5490   28.8530 C.2     1  UNL1       -0.0002
      5 C         -25.1370   -5.2800   29.2050 C.2     1  UNL1       -0.0000
      6 C         -26.2320   -4.6110   29.7840 C.2     1  UNL1       -0.0002
      7 C         -26.1550   -3.2320   30.0650 C.2     1  UNL1       -0.0004
      8 C         -25.3870   -0.6790   31.5710 C.3     1  UNL1        0.1197
      9 C         -25.1890    0.7730   32.0280 C.3     1  UNL1        0.0233
     10 C         -25.3360    0.6840   33.5440 C.3     1  UNL1        0.0204
     11 C         -24.8290   -0.7150   33.9050 C.3     1  UNL1        0.0889
     12 N         -24.7580   -1.4810   32.6460 N.3     1  UNL1       -0.2150
     13 C         -25.6880    1.6140   26.4610 C.3     1  UNL1        0.1382
     14 C         -26.2500    2.9200   26.3950 C.2     1  UNL1        0.0628
     15 C         -25.6420    4.0930   27.1230 C.2     1  UNL1        0.2629
     16 N         -25.6140    5.2520   26.4490 N.am    1  UNL1       -0.2000
     17 C         -25.0260    6.4790   26.9630 C.3     1  UNL1        0.1388
     18 O         -25.1430    3.9660   28.2430 O.2     1  UNL1       -0.2686
     19 C         -27.4380    3.0910   25.6450 C.2     1  UNL1        0.1026
     20 N         -28.0750    2.0890   25.0030 N.2     1  UNL1       -0.2118
     21 C         -27.5430    0.8490   25.0790 C.2     1  UNL1        0.2346
     22 O         -28.1930   -0.2080   24.4770 O.2     1  UNL1       -0.4585
     23 C         -29.4600    0.0050   23.8660 C.3     1  UNL1        0.2423
     24 C         -30.0650   -1.3770   23.5730 C.3     1  UNL1        0.2292
     25 O         -30.7290   -1.8780   24.7210 O.3     1  UNL1       -0.2162
     26 C         -26.3540    0.5760   25.7770 C.3     1  UNL1        0.2479
     27 F         -25.8600   -0.6810   25.7950 F       1  UNL1       -0.2264
     28 C         -26.6659    0.1975   29.0455 C.3     1  UNL1        0.2754
     29 O         -21.8537   -0.4302   29.3252 O.2     1  UNL1       -0.2786
     30 C         -24.3237    1.4582   26.8102 C.2     1  UNL1        0.2049
     31 N         -25.0645    0.0944   29.2435 N.pl3   1  UNL1       -0.1794
     32 F         -23.4396    2.5304   24.9364 F       1  UNL1       -0.2006
     33 O         -28.8636   -0.8670   28.9403 O.2     1  UNL1       -0.2837
     34 N         -24.2755    0.7909   27.8823 N.2     1  UNL1       -0.0385
     35 C         -21.5726    1.1336   27.6775 C.2     1  UNL1        0.0522
     36 C         -23.7813    0.4489   28.4998 C.2     1  UNL1        0.3632
     37 C         -22.3910    0.3954   28.5467 C.2     1  UNL1        0.2771
     38 C         -23.2729    1.9687   26.1306 C.2     1  UNL1        0.1791
     39 C         -28.0757    0.1107   29.2129 C.2     1  UNL1        0.2585
     40 C         -21.9856    1.9192   26.6306 C.2     1  UNL1        0.0367
@<TRIPOS>BOND
     1     1    31    1
     2     2     7    1
     3     2     1    1
     4     3     2    2
     5     4     3    1
     6     4     5    2
     7     5     6    1
     8     6     7    2
     9     8     1    1
    10     8     9    1
    11     8    12    1
    12     9    10    1
    13    10    11    1
    14    12    11    1
    15    13    30    1
    16    14    13    1
    17    14    15    1
    18    15    18    2
    19    16    17    1
    20    16    15    1
    21    19    14    2
    22    20    21    2
    23    20    19    1
    24    21    26    1
    25    22    21    1
    26    23    22    1
    27    24    23    1
    28    24    25    1
    29    26    27    1
    30    26    13    1
    31    28    39    1
    32    28    31    1
    33    30    34    1
    34    32    38    1
    35    33    39    2
    36    34    36    2
    37    35    37    1
    38    36    37    1
    39    36    31    1
    40    37    29    2
    41    38    40    1
    42    38    30    2
    43    40    35    2
