@<TRIPOS>MOLECULE
outputs/IAG933/test6/raw/output_9035_IAG933_linker_design_.xyz
 43 48 0 0 0
SMALL
GASTEIGER

@<TRIPOS>ATOM
      1 C         -24.8550   -1.0120   30.1430 C.3     1  UNL1        0.0612
      2 C         -24.9730   -2.5050   29.7880 C.2     1  UNL1       -0.0192
      3 C         -23.9060   -3.1730   29.1460 C.2     1  UNL1       -0.0042
      4 C         -23.9890   -4.5490   28.8530 C.2     1  UNL1       -0.0003
      5 C         -25.1370   -5.2800   29.2050 C.2     1  UNL1       -0.0000
      6 C         -26.2320   -4.6110   29.7840 C.2     1  UNL1       -0.0003
      7 C         -26.1550   -3.2320   30.0650 C.2     1  UNL1       -0.0042
      8 C         -25.3870   -0.6790   31.5710 C.3     1  UNL1        0.0788
      9 C         -25.1890    0.7730   32.0280 C.3     1  UNL1        0.0193
     10 C         -25.3360    0.6840   33.5440 C.3     1  UNL1        0.0202
     11 C         -24.8290   -0.7150   33.9050 C.3     1  UNL1        0.0887
     12 N         -24.7580   -1.4810   32.6460 N.3     1  UNL1       -0.2191
     13 C         -25.6880    1.6140   26.4610 C.2     1  UNL1        0.0392
     14 C         -26.2500    2.9200   26.3950 C.2     1  UNL1        0.0766
     15 C         -25.6420    4.0930   27.1230 C.2     1  UNL1        0.2664
     16 N         -25.6140    5.2520   26.4490 N.am    1  UNL1       -0.1997
     17 C         -25.0260    6.4790   26.9630 C.3     1  UNL1        0.1388
     18 O         -25.1430    3.9660   28.2430 O.2     1  UNL1       -0.2683
     19 C         -27.4380    3.0910   25.6450 C.2     1  UNL1        0.1067
     20 N         -28.0750    2.0890   25.0030 N.2     1  UNL1       -0.2081
     21 C         -27.5430    0.8490   25.0790 C.2     1  UNL1        0.2533
     22 O         -28.1930   -0.2080   24.4770 O.2     1  UNL1       -0.4558
     23 C         -29.4600    0.0050   23.8660 C.3     1  UNL1        0.2426
     24 C         -30.0650   -1.3770   23.5730 C.3     1  UNL1        0.2292
     25 O         -30.7290   -1.8780   24.7210 O.3     1  UNL1       -0.2162
     26 C         -26.3540    0.5760   25.7770 C.2     1  UNL1        0.1931
     27 F         -25.8600   -0.6810   25.7950 F       1  UNL1       -0.1992
     28 O         -28.6900   -0.3912   28.1515 O.2     1  UNL1       -0.2731
     29 CL        -22.7274    2.3589   25.3998 Cl      1  UNL1       -0.0793
     30 CA        -27.8219    1.3153   29.5873 C.3     1  UNL1        0.1522
     31 C         -22.2430    1.3318   27.7841 C.ar    1  UNL1        0.1800
     32 C         -30.1682    2.3396   29.2022 C.3     1  UNL1        0.0021
     33 C         -27.9756    0.3302   28.8507 C.2     1  UNL1        0.2443
     34 F         -20.9244    1.5128   27.8141 F       1  UNL1       -0.1962
     35 C         -23.1601    1.6766   26.8544 C.ar    1  UNL1        0.0916
     36 C         -24.5193    1.3125   27.2086 C.ar    1  UNL1        0.0194
     37 C         -25.5507   -0.0666   29.0917 C.3     1  UNL1        0.1096
     38 C         -28.6249    2.6375   29.3546 C.3     1  UNL1        0.0292
     39 S         -22.7705    0.5529   28.9650 S.2     1  UNL1       -0.0596
     40 C         -30.2789    2.3943   27.6940 C.3     1  UNL1        0.0001
     41 C         -24.3302    0.6374   28.3964 C.ar    1  UNL1        0.0287
     42 N         -26.8488    0.7048   29.2350 N.am    1  UNL1       -0.2686
     43 C         -31.5539    2.6055   28.4960 C.3     1  UNL1        0.0001
@<TRIPOS>BOND
     1     1    37    1
     2     2     7    1
     3     2     1    1
     4     3     2    2
     5     4     3    1
     6     4     5    2
     7     5     6    1
     8     6     7    2
     9     8     1    1
    10     8     9    1
    11     8    12    1
    12     9    10    1
    13    10    11    1
    14    12    11    1
    15    13    36    1
    16    14    13    1
    17    14    15    1
    18    15    18    2
    19    16    17    1
    20    16    15    1
    21    19    14    2
    22    20    21    2
    23    20    19    1
    24    21    26    1
    25    22    21    1
    26    23    22    1
    27    24    23    1
    28    24    25    1
    29    26    27    1
    30    26    13    2
    31    28    33    2
    32    29    35    1
    33    30    38    1
    34    31    34    1
    35    31    39   ar
    36    32    38    1
    37    33    42   am
    38    33    30    1
    39    35    36   ar
    40    35    31   ar
    41    36    41   ar
    42    37    41    1
    43    37    42    1
    44    40    43    1
    45    40    32    1
    46    41    39   ar
    47    42    30    1
    48    43    32    1
