@<TRIPOS>MOLECULE
outputs/IAG933/test6/raw/output_9037_IAG933_linker_design_.xyz
 42 46 0 0 0
SMALL
GASTEIGER

@<TRIPOS>ATOM
      1 C         -24.8550   -1.0120   30.1430 C.3     1  UNL1        0.1138
      2 C         -24.9730   -2.5050   29.7880 C.2     1  UNL1       -0.0029
      3 C         -23.9060   -3.1730   29.1460 C.2     1  UNL1       -0.0026
      4 C         -23.9890   -4.5490   28.8530 C.2     1  UNL1       -0.0003
      5 C         -25.1370   -5.2800   29.2050 C.2     1  UNL1       -0.0000
      6 C         -26.2320   -4.6110   29.7840 C.2     1  UNL1       -0.0003
      7 C         -26.1550   -3.2320   30.0650 C.2     1  UNL1       -0.0026
      8 C         -25.3870   -0.6790   31.5710 C.3     1  UNL1        0.0951
      9 C         -25.1890    0.7730   32.0280 C.3     1  UNL1        0.0209
     10 C         -25.3360    0.6840   33.5440 C.3     1  UNL1        0.0203
     11 C         -24.8290   -0.7150   33.9050 C.3     1  UNL1        0.0888
     12 N         -24.7580   -1.4810   32.6460 N.3     1  UNL1       -0.2174
     13 C         -25.6880    1.6140   26.4610 C.3     1  UNL1        0.0886
     14 C         -26.2500    2.9200   26.3950 C.2     1  UNL1        0.0564
     15 C         -25.6420    4.0930   27.1230 C.2     1  UNL1        0.2625
     16 N         -25.6140    5.2520   26.4490 N.am    1  UNL1       -0.2000
     17 C         -25.0260    6.4790   26.9630 C.3     1  UNL1        0.1388
     18 O         -25.1430    3.9660   28.2430 O.2     1  UNL1       -0.2687
     19 C         -27.4380    3.0910   25.6450 C.2     1  UNL1        0.1022
     20 N         -28.0750    2.0890   25.0030 N.2     1  UNL1       -0.2119
     21 C         -27.5430    0.8490   25.0790 C.2     1  UNL1        0.2341
     22 O         -28.1930   -0.2080   24.4770 O.2     1  UNL1       -0.4585
     23 C         -29.4600    0.0050   23.8660 C.3     1  UNL1        0.2423
     24 C         -30.0650   -1.3770   23.5730 C.3     1  UNL1        0.2292
     25 O         -30.7290   -1.8780   24.7210 O.3     1  UNL1       -0.2162
     26 C         -26.3540    0.5760   25.7770 C.3     1  UNL1        0.2416
     27 F         -25.8600   -0.6810   25.7950 F       1  UNL1       -0.2268
     28 C         -22.7144    1.9493   26.6385 C.3     1  UNL1        0.2504
     29 O         -22.5235   -0.5376   29.4308 O.3     1  UNL1       -0.3239
     30 N         -20.4133    0.0022   28.6476 N.2     1  UNL1       -0.2073
     31 O         -21.3746    1.8597   26.9768 O.2     1  UNL1       -0.4489
     32 C         -22.5976    0.4890   28.4276 C.3     1  UNL1        0.1987
     33 C         -23.5529    1.2031   27.5917 C.3     1  UNL1        0.1111
     34 C         -21.1522   -0.7157   29.4403 C.3     1  UNL1        0.2745
     35 N         -25.4654   -0.0297   29.0497 N.am    1  UNL1       -0.2748
     36 C         -27.0003    0.0238   28.9387 C.2     1  UNL1        0.2595
     37 C         -21.3398    0.8716   27.9936 C.2     1  UNL1        0.2271
     38 C         -25.0368    1.2338   27.8613 C.3     1  UNL1        0.0907
     39 CL        -23.1057    2.7076   25.1538 Cl      1  UNL1       -0.0679
     40 O         -27.0483    2.5103   29.3683 O.3     1  UNL1       -0.2099
     41 O         -27.5261   -0.8050   28.4891 O.2     1  UNL1       -0.2720
     42 C         -27.8827    1.3402   29.3887 C.3     1  UNL1        0.2665
@<TRIPOS>BOND
     1     1    35    1
     2     2     7    1
     3     2     1    1
     4     3     2    2
     5     4     3    1
     6     4     5    2
     7     5     6    1
     8     6     7    2
     9     8     1    1
    10     8     9    1
    11     8    12    1
    12     9    10    1
    13    10    11    1
    14    12    11    1
    15    13    38    1
    16    14    13    1
    17    14    15    1
    18    15    18    2
    19    16    17    1
    20    16    15    1
    21    19    14    2
    22    20    21    2
    23    20    19    1
    24    21    26    1
    25    22    21    1
    26    23    22    1
    27    24    23    1
    28    24    25    1
    29    26    27    1
    30    26    13    1
    31    28    39    1
    32    28    31    1
    33    28    33    1
    34    29    34    1
    35    30    34    1
    36    31    37    1
    37    32    37    1
    38    32    29    1
    39    33    38    1
    40    33    32    1
    41    36    35   am
    42    36    42    1
    43    37    30    2
    44    38    35    1
    45    40    42    1
    46    41    36    2
