@<TRIPOS>MOLECULE
outputs/IAG933/test6/raw/output_9039_IAG933_linker_design_.xyz
 46 52 0 0 0
SMALL
GASTEIGER

@<TRIPOS>ATOM
      1 C         -24.8550   -1.0120   30.1430 C.3     1  UNL1        0.1524
      2 C         -24.9730   -2.5050   29.7880 C.2     1  UNL1        0.0057
      3 C         -23.9060   -3.1730   29.1460 C.2     1  UNL1       -0.0019
      4 C         -23.9890   -4.5490   28.8530 C.2     1  UNL1       -0.0002
      5 C         -25.1370   -5.2800   29.2050 C.2     1  UNL1       -0.0000
      6 C         -26.2320   -4.6110   29.7840 C.2     1  UNL1       -0.0002
      7 C         -26.1550   -3.2320   30.0650 C.2     1  UNL1       -0.0019
      8 C         -25.3870   -0.6790   31.5710 C.3     1  UNL1        0.1039
      9 C         -25.1890    0.7730   32.0280 C.3     1  UNL1        0.0217
     10 C         -25.3360    0.6840   33.5440 C.3     1  UNL1        0.0203
     11 C         -24.8290   -0.7150   33.9050 C.3     1  UNL1        0.0888
     12 N         -24.7580   -1.4810   32.6460 N.3     1  UNL1       -0.2167
     13 C         -25.6880    1.6140   26.4610 C.2     1  UNL1        0.0903
     14 C         -26.2500    2.9200   26.3950 C.2     1  UNL1        0.0880
     15 C         -25.6420    4.0930   27.1230 C.2     1  UNL1        0.2231
     16 N         -25.6140    5.2520   26.4490 N.2     1  UNL1       -0.2356
     17 C         -25.0260    6.4790   26.9630 C.3     1  UNL1        0.1550
     18 O         -25.1430    3.9660   28.2430 O.2     1  UNL1       -0.4608
     19 C         -27.4380    3.0910   25.6450 C.2     1  UNL1        0.1080
     20 N         -28.0750    2.0890   25.0030 N.2     1  UNL1       -0.2080
     21 C         -27.5430    0.8490   25.0790 C.2     1  UNL1        0.2546
     22 O         -28.1930   -0.2080   24.4770 O.2     1  UNL1       -0.4558
     23 C         -29.4600    0.0050   23.8660 C.3     1  UNL1        0.2426
     24 C         -30.0650   -1.3770   23.5730 C.3     1  UNL1        0.2292
     25 O         -30.7290   -1.8780   24.7210 O.3     1  UNL1       -0.2162
     26 C         -26.3540    0.5760   25.7770 C.2     1  UNL1        0.2066
     27 F         -25.8600   -0.6810   25.7950 F       1  UNL1       -0.1979
     28 C         -23.2714    1.8824   26.6493 C.2     1  UNL1        0.1128
     29 O         -25.5228   -0.3630   28.9174 O.3     1  UNL1       -0.3486
     30 N         -22.1434    1.8322   28.7605 N.pl3   1  UNL1       -0.2088
     31 C         -24.2435   -0.3910   28.6110 C.3     1  UNL1        0.1654
     32 C         -24.2436    1.1135   28.4043 C.3     1  UNL1        0.1288
     33 C         -27.3007    3.2766   31.9315 C.2     1  UNL1        0.3951
     34 C         -27.3162    5.3848   30.0526 C.3     1  UNL1        0.1524
     35 C         -27.4222    4.2650   29.1554 C.3     1  UNL1        0.1057
     36 C         -23.3272    1.5980   29.2921 C.3     1  UNL1        0.1371
     37 N         -24.4528    1.5071   27.1064 N.pl3   1  UNL1       -0.2783
     38 O         -29.2992    5.2291   28.1756 O.3     1  UNL1       -0.2203
     39 O         -27.0798    3.0983   33.0815 O.co2   1  UNL1       -0.2428
     40 O         -26.1611    5.0777   30.9619 O.3     1  UNL1       -0.3421
     41 C         -26.0860    3.5007   29.3411 C.3     1  UNL1        0.2104
     42 O         -28.5017    3.1471   31.5611 O.co2   1  UNL1       -0.2428
     43 C         -26.0773    3.6456   30.9626 C.3     1  UNL1        0.2584
     44 C         -22.1336    1.9356   27.4423 C.2     1  UNL1        0.2229
     45 F         -20.9346    2.0722   26.8694 F       1  UNL1       -0.1849
     46 C         -28.7216    4.8195   29.4704 C.3     1  UNL1        0.1850
@<TRIPOS>BOND
     1     1     2    1
     2     1     8    1
     3     2     7    1
     4     3     2    2
     5     4     3    1
     6     4     5    2
     7     5     6    1
     8     6     7    2
     9     8     9    1
    10     8    12    1
    11     9    10    1
    12    10    11    1
    13    12    11    1
    14    13    37    1
    15    14    13    1
    16    14    15    1
    17    15    18    1
    18    16    17    1
    19    16    15    2
    20    18    41    1
    21    19    14    2
    22    20    21    2
    23    20    19    1
    24    21    26    1
    25    22    21    1
    26    23    22    1
    27    24    23    1
    28    24    25    1
    29    26    27    1
    30    26    13    2
    31    28    37    1
    32    28    44    2
    33    29     1    1
    34    30    36    1
    35    31    29    1
    36    31     1    1
    37    32    31    1
    38    32    36    1
    39    33    39   ar
    40    34    40    1
    41    35    41    1
    42    35    46    1
    43    35    34    1
    44    37    32    1
    45    38    46    1
    46    40    43    1
    47    41    43    1
    48    42    33   ar
    49    43    33    1
    50    44    30    1
    51    45    44    1
    52    46    34    1
