@<TRIPOS>MOLECULE
No_904-gen_results/8p0m/2024-11-27-11-27-31/
 11 11 0 0 0
SMALL
GASTEIGER

@<TRIPOS>ATOM
      1 C         -28.0162   -0.8135   28.8779 C.ar    1  UNL1        0.0152
      2 C         -27.0636   -0.1189   28.6079 C.ar    1  UNL1        0.0723
      3 C         -25.7923   -0.4302   29.0761 C.ar    1  UNL1        0.0039
      4 C         -25.5756   -1.5654   29.9363 C.ar    1  UNL1        0.0008
      5 C         -26.7354   -2.3004   30.2173 C.ar    1  UNL1        0.0114
      6 C         -27.9184   -1.9537   29.7629 C.ar    1  UNL1        0.0576
      7 CL        -29.2090   -2.9956   30.2439 Cl      1  UNL1       -0.0823
      8 C         -27.1188    1.1066   27.7637 C.3     1  UNL1        0.4186
      9 F         -26.5140    1.0434   26.7861 F       1  UNL1       -0.1659
     10 F         -28.4422    1.2489   27.3990 F       1  UNL1       -0.1659
     11 F         -26.8473    2.2336   28.4272 F       1  UNL1       -0.1659
@<TRIPOS>BOND
     1     6     7    1
     2     2     8    1
     3     8     9    1
     4     8    10    1
     5     8    11    1
     6     1     2   ar
     7     2     3   ar
     8     3     4   ar
     9     4     5   ar
    10     5     6   ar
    11     6     1   ar
