@<TRIPOS>MOLECULE
outputs/IAG933/test6/raw/output_9044_IAG933_linker_design_.xyz
 41 44 0 0 0
SMALL
GASTEIGER

@<TRIPOS>ATOM
      1 C         -24.8550   -1.0120   30.1430 C.3     1  UNL1        0.0826
      2 C         -24.9730   -2.5050   29.7880 C.2     1  UNL1       -0.0173
      3 C         -23.9060   -3.1730   29.1460 C.2     1  UNL1       -0.0041
      4 C         -23.9890   -4.5490   28.8530 C.2     1  UNL1       -0.0003
      5 C         -25.1370   -5.2800   29.2050 C.2     1  UNL1       -0.0000
      6 C         -26.2320   -4.6110   29.7840 C.2     1  UNL1       -0.0003
      7 C         -26.1550   -3.2320   30.0650 C.2     1  UNL1       -0.0041
      8 C         -25.3870   -0.6790   31.5710 C.3     1  UNL1        0.0806
      9 C         -25.1890    0.7730   32.0280 C.3     1  UNL1        0.0193
     10 C         -25.3360    0.6840   33.5440 C.3     1  UNL1        0.0202
     11 C         -24.8290   -0.7150   33.9050 C.3     1  UNL1        0.0887
     12 N         -24.7580   -1.4810   32.6460 N.3     1  UNL1       -0.2190
     13 C         -25.6880    1.6140   26.4610 C.3     1  UNL1        0.1335
     14 C         -26.2500    2.9200   26.3950 C.2     1  UNL1        0.0698
     15 C         -25.6420    4.0930   27.1230 C.2     1  UNL1        0.2637
     16 N         -25.6140    5.2520   26.4490 N.am    1  UNL1       -0.2000
     17 C         -25.0260    6.4790   26.9630 C.3     1  UNL1        0.1388
     18 O         -25.1430    3.9660   28.2430 O.2     1  UNL1       -0.2686
     19 C         -27.4380    3.0910   25.6450 C.2     1  UNL1        0.1035
     20 N         -28.0750    2.0890   25.0030 N.2     1  UNL1       -0.2118
     21 C         -27.5430    0.8490   25.0790 C.2     1  UNL1        0.2355
     22 O         -28.1930   -0.2080   24.4770 O.2     1  UNL1       -0.4585
     23 C         -29.4600    0.0050   23.8660 C.3     1  UNL1        0.2423
     24 C         -30.0650   -1.3770   23.5730 C.3     1  UNL1        0.2292
     25 O         -30.7290   -1.8780   24.7210 O.3     1  UNL1       -0.2162
     26 C         -26.3540    0.5760   25.7770 C.3     1  UNL1        0.2548
     27 F         -25.8600   -0.6810   25.7950 F       1  UNL1       -0.2254
     28 F         -22.9799    0.9215   25.0653 F       1  UNL1       -0.1857
     29 N         -22.6998   -0.0990   29.4238 N.3     1  UNL1       -0.0340
     30 O         -28.5619    2.1748   30.8487 O.3     1  UNL1       -0.2176
     31 C         -23.2460    1.8445   26.1192 C.3     1  UNL1        0.3411
     32 C         -23.7735    1.1907   27.8173 C.3     1  UNL1        0.1809
     33 O         -23.3668    3.1053   25.4834 O.3     1  UNL1       -0.1694
     34 N         -23.9274    0.3177   28.7447 N.3     1  UNL1       -0.1448
     35 C         -25.3818   -0.0475   28.9834 C.3     1  UNL1        0.1981
     36 C         -28.8945    2.0165   29.6142 C.3     1  UNL1        0.2141
     37 F         -21.1981    1.7810   27.4203 F       1  UNL1       -0.2269
     38 N         -24.3627    1.4102   26.8831 N.3     1  UNL1       -0.2013
     39 O         -26.8522    0.6886   29.3422 O.3     1  UNL1       -0.3363
     40 C         -22.5917    1.8632   27.4368 C.3     1  UNL1        0.2659
     41 C         -28.2505    0.8096   28.9540 C.3     1  UNL1        0.1793
@<TRIPOS>BOND
     1     1    35    1
     2     2     7    1
     3     2     1    1
     4     3     2    2
     5     4     3    1
     6     4     5    2
     7     5     6    1
     8     6     7    2
     9     8     1    1
    10     8     9    1
    11     8    12    1
    12     9    10    1
    13    10    11    1
    14    12    11    1
    15    13    14    1
    16    14    15    1
    17    15    18    2
    18    16    17    1
    19    16    15    1
    20    19    14    2
    21    20    21    2
    22    20    19    1
    23    21    26    1
    24    22    21    1
    25    23    22    1
    26    24    23    1
    27    24    25    1
    28    26    27    1
    29    26    13    1
    30    31    28    1
    31    31    38    1
    32    31    40    1
    33    32    34    1
    34    33    31    1
    35    34    35    1
    36    34    29    1
    37    35    39    1
    38    36    30    1
    39    38    13    1
    40    38    32    1
    41    40    37    1
    42    40    32    1
    43    41    39    1
    44    41    36    1
