@<TRIPOS>MOLECULE
outputs/IAG933/test6/raw/output_9045_IAG933_linker_design_.xyz
 40 43 0 0 0
SMALL
GASTEIGER

@<TRIPOS>ATOM
      1 C         -24.8550   -1.0120   30.1430 C.3     1  UNL1        0.0658
      2 C         -24.9730   -2.5050   29.7880 C.2     1  UNL1       -0.0189
      3 C         -23.9060   -3.1730   29.1460 C.2     1  UNL1       -0.0042
      4 C         -23.9890   -4.5490   28.8530 C.2     1  UNL1       -0.0003
      5 C         -25.1370   -5.2800   29.2050 C.2     1  UNL1       -0.0000
      6 C         -26.2320   -4.6110   29.7840 C.2     1  UNL1       -0.0003
      7 C         -26.1550   -3.2320   30.0650 C.2     1  UNL1       -0.0042
      8 C         -25.3870   -0.6790   31.5710 C.3     1  UNL1        0.0790
      9 C         -25.1890    0.7730   32.0280 C.3     1  UNL1        0.0193
     10 C         -25.3360    0.6840   33.5440 C.3     1  UNL1        0.0202
     11 C         -24.8290   -0.7150   33.9050 C.3     1  UNL1        0.0887
     12 N         -24.7580   -1.4810   32.6460 N.3     1  UNL1       -0.2191
     13 C         -25.6880    1.6140   26.4610 C.2     1  UNL1        0.0380
     14 C         -26.2500    2.9200   26.3950 C.2     1  UNL1        0.0765
     15 C         -25.6420    4.0930   27.1230 C.2     1  UNL1        0.2664
     16 N         -25.6140    5.2520   26.4490 N.am    1  UNL1       -0.1997
     17 C         -25.0260    6.4790   26.9630 C.3     1  UNL1        0.1388
     18 O         -25.1430    3.9660   28.2430 O.2     1  UNL1       -0.2683
     19 C         -27.4380    3.0910   25.6450 C.2     1  UNL1        0.1067
     20 N         -28.0750    2.0890   25.0030 N.2     1  UNL1       -0.2081
     21 C         -27.5430    0.8490   25.0790 C.2     1  UNL1        0.2533
     22 O         -28.1930   -0.2080   24.4770 O.2     1  UNL1       -0.4558
     23 C         -29.4600    0.0050   23.8660 C.3     1  UNL1        0.2426
     24 C         -30.0650   -1.3770   23.5730 C.3     1  UNL1        0.2292
     25 O         -30.7290   -1.8780   24.7210 O.3     1  UNL1       -0.2162
     26 C         -26.3540    0.5760   25.7770 C.2     1  UNL1        0.1930
     27 F         -25.8600   -0.6810   25.7950 F       1  UNL1       -0.1992
     28 F         -20.5562    1.5012   27.8719 F       1  UNL1       -0.1994
     29 C         -25.0661   -0.0090   29.1390 C.3     1  UNL1        0.1452
     30 F         -21.4191    2.5892   25.6722 F       1  UNL1       -0.2017
     31 C         -24.4471    1.4446   27.0106 C.2     1  UNL1        0.0049
     32 C         -22.7232    0.8428   28.5352 C.2     1  UNL1        0.1675
     33 N         -26.3597    0.3039   28.7170 N.2     1  UNL1       -0.1900
     34 O         -27.6304   -1.5918   28.1285 O.2     1  UNL1       -0.2102
     35 C         -22.2153    2.0639   26.4900 C.2     1  UNL1        0.1696
     36 C         -21.8254    1.4865   27.6780 C.2     1  UNL1        0.1943
     37 C         -23.5793    2.0891   26.1540 C.2     1  UNL1        0.0319
     38 C         -27.1064   -0.6697   28.4621 C.1     1  UNL1        0.2355
     39 C         -24.2080    0.8050   28.2563 C.2     1  UNL1        0.0310
     40 F         -22.2299    0.2851   29.6422 F       1  UNL1       -0.2020
@<TRIPOS>BOND
     1     1    29    1
     2     2     7    1
     3     2     1    1
     4     3     2    2
     5     4     3    1
     6     4     5    2
     7     5     6    1
     8     6     7    2
     9     8     1    1
    10     8     9    1
    11     8    12    1
    12     9    10    1
    13    10    11    1
    14    12    11    1
    15    13    31    1
    16    14    13    1
    17    14    15    1
    18    15    18    2
    19    16    17    1
    20    16    15    1
    21    19    14    2
    22    20    21    2
    23    20    19    1
    24    21    26    1
    25    22    21    1
    26    23    22    1
    27    24    23    1
    28    24    25    1
    29    26    27    1
    30    26    13    2
    31    29    33    1
    32    30    35    1
    33    31    39    1
    34    32    40    1
    35    34    38    2
    36    35    36    2
    37    36    28    1
    38    36    32    1
    39    37    35    1
    40    37    31    2
    41    38    33    2
    42    39    32    2
    43    39    29    1
