@<TRIPOS>MOLECULE
No_905-gen_results/8p0m/2024-11-27-11-27-31/
 17 18 0 0 0
SMALL
GASTEIGER

@<TRIPOS>ATOM
      1 C         -28.0162   -0.8135   28.8779 C.ar    1  UNL1       -0.0000
      2 C         -27.0636   -0.1189   28.6079 C.ar    1  UNL1       -0.0000
      3 C         -26.9287    1.1713   29.0083 C.ar    1  UNL1       -0.0001
      4 C         -25.7702    2.0341   28.6884 C.ar    1  UNL1        0.0039
      5 C         -24.7141    1.4431   27.9188 C.ar    1  UNL1        0.0714
      6 C         -24.8590    0.0783   27.5836 C.ar    1  UNL1        0.0039
      7 C         -25.9647   -0.6606   27.9164 C.ar    1  UNL1       -0.0001
      8 C         -28.6576   -0.6023   30.2546 C.ar    1  UNL1       -0.0000
      9 C         -28.9108    0.6988   30.5389 C.ar    1  UNL1       -0.0000
     10 C         -27.7732    1.5979   30.1492 C.ar    1  UNL1       -0.0003
     11 C         -23.5610    2.1844   27.4572 C.3     1  UNL1        0.4186
     12 F         -22.5373    1.5431   27.4377 F       1  UNL1       -0.1659
     13 F         -23.3640    3.2461   28.3624 F       1  UNL1       -0.1659
     14 F         -23.8151    2.8200   26.3138 F       1  UNL1       -0.1659
     15 C         -27.7124    2.9851   30.6535 C.2     1  UNL1       -0.0046
     16 C         -28.5627    3.4016   31.5234 C.2     1  UNL1       -0.0258
     17 C         -29.4457    2.7625   32.0508 C.3     1  UNL1        0.0307
@<TRIPOS>BOND
     1     5    11    1
     2    11    12    1
     3    11    13    1
     4    11    14    1
     5    10    15    1
     6    15    16    2
     7    16    17    1
     8     3     4   ar
     9     4     5   ar
    10     5     6   ar
    11     6     7   ar
    12     7     2   ar
    13     1     2   ar
    14     2     3   ar
    15     3    10   ar
    16    10     9   ar
    17     9     8   ar
    18     8     1   ar
