@<TRIPOS>MOLECULE
outputs/IAG933/test6/raw/output_9055_IAG933_linker_design_.xyz
 42 45 0 0 0
SMALL
GASTEIGER

@<TRIPOS>ATOM
      1 C         -24.8550   -1.0120   30.1430 C.3     1  UNL1        0.1267
      2 C         -24.9730   -2.5050   29.7880 C.2     1  UNL1       -0.0041
      3 C         -23.9060   -3.1730   29.1460 C.2     1  UNL1       -0.0029
      4 C         -23.9890   -4.5490   28.8530 C.2     1  UNL1       -0.0003
      5 C         -25.1370   -5.2800   29.2050 C.2     1  UNL1       -0.0000
      6 C         -26.2320   -4.6110   29.7840 C.2     1  UNL1       -0.0003
      7 C         -26.1550   -3.2320   30.0650 C.2     1  UNL1       -0.0029
      8 C         -25.3870   -0.6790   31.5710 C.3     1  UNL1        0.0940
      9 C         -25.1890    0.7730   32.0280 C.3     1  UNL1        0.0207
     10 C         -25.3360    0.6840   33.5440 C.3     1  UNL1        0.0203
     11 C         -24.8290   -0.7150   33.9050 C.3     1  UNL1        0.0888
     12 N         -24.7580   -1.4810   32.6460 N.3     1  UNL1       -0.2177
     13 C         -25.6880    1.6140   26.4610 C.3     1  UNL1        0.0771
     14 C         -26.2500    2.9200   26.3950 C.2     1  UNL1        0.0552
     15 C         -25.6420    4.0930   27.1230 C.2     1  UNL1        0.2625
     16 N         -25.6140    5.2520   26.4490 N.am    1  UNL1       -0.2000
     17 C         -25.0260    6.4790   26.9630 C.3     1  UNL1        0.1388
     18 O         -25.1430    3.9660   28.2430 O.2     1  UNL1       -0.2687
     19 C         -27.4380    3.0910   25.6450 C.2     1  UNL1        0.1022
     20 N         -28.0750    2.0890   25.0030 N.2     1  UNL1       -0.2119
     21 C         -27.5430    0.8490   25.0790 C.2     1  UNL1        0.2341
     22 O         -28.1930   -0.2080   24.4770 O.2     1  UNL1       -0.4585
     23 C         -29.4600    0.0050   23.8660 C.3     1  UNL1        0.2423
     24 C         -30.0650   -1.3770   23.5730 C.3     1  UNL1        0.2292
     25 O         -30.7290   -1.8780   24.7210 O.3     1  UNL1       -0.2162
     26 C         -26.3540    0.5760   25.7770 C.3     1  UNL1        0.2404
     27 F         -25.8600   -0.6810   25.7950 F       1  UNL1       -0.2269
     28 O         -24.8914    3.4460   30.8735 O.3     1  UNL1       -0.2649
     29 C         -25.1377    1.3192   28.8591 C.3     1  UNL1        0.1934
     30 N         -21.4173    2.0125   26.2650 N.2     1  UNL1       -0.1579
     31 C         -25.6302    4.7144   31.2954 C.3     1  UNL1        0.1683
     32 C         -24.7004    1.3331   27.4487 C.3     1  UNL1        0.0684
     33 N         -21.2629    1.5827   27.6168 N.pl3   1  UNL1       -0.1218
     34 O         -26.6548   -0.3359   28.8432 O.3     1  UNL1       -0.1163
     35 C         -24.2768    5.0161   33.3390 C.3     1  UNL1        0.0027
     36 C         -22.7001    1.8842   25.9188 C.2     1  UNL1        0.1164
     37 N         -25.6005    2.3387   29.9352 N.3     1  UNL1       -0.0659
     38 C         -25.6702    4.6577   32.8122 C.3     1  UNL1        0.0343
     39 C         -22.3619    1.1885   28.1611 C.2     1  UNL1        0.0671
     40 N         -25.4047    0.0174   29.2147 N.3     1  UNL1       -0.1111
     41 C         -22.6179    0.6778   29.4988 C.3     1  UNL1        0.0508
     42 C         -23.3289    1.4675   27.1124 C.2     1  UNL1        0.0144
@<TRIPOS>BOND
     1     1    40    1
     2     2     7    1
     3     2     1    1
     4     3     2    2
     5     4     3    1
     6     4     5    2
     7     5     6    1
     8     6     7    2
     9     8     1    1
    10     8     9    1
    11     8    12    1
    12     9    10    1
    13    10    11    1
    14    12    11    1
    15    13    32    1
    16    14    13    1
    17    14    15    1
    18    15    18    2
    19    16    17    1
    20    16    15    1
    21    19    14    2
    22    20    21    2
    23    20    19    1
    24    21    26    1
    25    22    21    1
    26    23    22    1
    27    24    23    1
    28    24    25    1
    29    26    27    1
    30    26    13    1
    31    28    31    1
    32    29    40    1
    33    29    37    1
    34    30    33    1
    35    31    38    1
    36    32    29    1
    37    33    39    1
    38    34    40    1
    39    36    30    2
    40    36    42    1
    41    37    28    1
    42    38    35    1
    43    39    41    1
    44    42    32    1
    45    42    39    2
