@<TRIPOS>MOLECULE
outputs/IAG933/test6/raw/output_9064_IAG933_linker_design_.xyz
 37 40 0 0 0
SMALL
GASTEIGER

@<TRIPOS>ATOM
      1 C         -24.8550   -1.0120   30.1430 C.3     1  UNL1        0.2060
      2 C         -24.9730   -2.5050   29.7880 C.2     1  UNL1        0.0218
      3 C         -23.9060   -3.1730   29.1460 C.2     1  UNL1       -0.0004
      4 C         -23.9890   -4.5490   28.8530 C.2     1  UNL1       -0.0002
      5 C         -25.1370   -5.2800   29.2050 C.2     1  UNL1       -0.0000
      6 C         -26.2320   -4.6110   29.7840 C.2     1  UNL1       -0.0002
      7 C         -26.1550   -3.2320   30.0650 C.2     1  UNL1       -0.0004
      8 C         -25.3870   -0.6790   31.5710 C.3     1  UNL1        0.1202
      9 C         -25.1890    0.7730   32.0280 C.3     1  UNL1        0.0233
     10 C         -25.3360    0.6840   33.5440 C.3     1  UNL1        0.0204
     11 C         -24.8290   -0.7150   33.9050 C.3     1  UNL1        0.0889
     12 N         -24.7580   -1.4810   32.6460 N.3     1  UNL1       -0.2150
     13 C         -25.6880    1.6140   26.4610 C.3     1  UNL1        0.0854
     14 C         -26.2500    2.9200   26.3950 C.2     1  UNL1        0.0557
     15 C         -25.6420    4.0930   27.1230 C.2     1  UNL1        0.2625
     16 N         -25.6140    5.2520   26.4490 N.am    1  UNL1       -0.2000
     17 C         -25.0260    6.4790   26.9630 C.3     1  UNL1        0.1388
     18 O         -25.1430    3.9660   28.2430 O.2     1  UNL1       -0.2687
     19 C         -27.4380    3.0910   25.6450 C.2     1  UNL1        0.1022
     20 N         -28.0750    2.0890   25.0030 N.2     1  UNL1       -0.2119
     21 C         -27.5430    0.8490   25.0790 C.2     1  UNL1        0.2341
     22 O         -28.1930   -0.2080   24.4770 O.2     1  UNL1       -0.4585
     23 C         -29.4600    0.0050   23.8660 C.3     1  UNL1        0.2423
     24 C         -30.0650   -1.3770   23.5730 C.3     1  UNL1        0.2292
     25 O         -30.7290   -1.8780   24.7210 O.3     1  UNL1       -0.2162
     26 C         -26.3540    0.5760   25.7770 C.3     1  UNL1        0.2409
     27 F         -25.8600   -0.6810   25.7950 F       1  UNL1       -0.2269
     28 O         -25.8960    1.7370   29.1902 O.2     1  UNL1       -0.2464
     29 C         -25.1190    0.9879   28.7465 C.2     1  UNL1        0.3179
     30 C         -23.2961    1.1536   27.6798 C.2     1  UNL1        0.0746
     31 C         -22.2204    1.6502   26.9483 C.2     1  UNL1        0.0154
     32 C         -24.7041    1.2860   27.4612 C.3     1  UNL1        0.1385
     33 N         -22.0662    0.3556   29.5798 N.2     1  UNL1        0.1933
     34 C         -23.1966    0.4725   28.9179 C.2     1  UNL1        0.3789
     35 C         -22.3288    2.2635   25.7468 C.3     1  UNL1        0.2195
     36 F         -23.2405    1.9136   24.8891 F       1  UNL1       -0.2291
     37 N         -24.3572    0.0927   29.3112 N.am    1  UNL1       -0.1358
@<TRIPOS>BOND
     1     1     2    1
     2     2     7    1
     3     3     2    2
     4     4     3    1
     5     4     5    2
     6     5     6    1
     7     6     7    2
     8     8     1    1
     9     8     9    1
    10     8    12    1
    11     9    10    1
    12    10    11    1
    13    12    11    1
    14    13    14    1
    15    13    32    1
    16    14    15    1
    17    15    18    2
    18    16    17    1
    19    16    15    1
    20    19    14    2
    21    20    21    2
    22    20    19    1
    23    21    26    1
    24    22    21    1
    25    23    22    1
    26    24    23    1
    27    24    25    1
    28    26    27    1
    29    26    13    1
    30    29    28    2
    31    29    37   am
    32    30    34    1
    33    31    30    2
    34    32    30    1
    35    32    29    1
    36    34    37    1
    37    34    33    2
    38    35    31    1
    39    36    35    1
    40    37     1    1
