@<TRIPOS>MOLECULE
outputs/IAG933/test6/raw/output_9065_IAG933_linker_design_.xyz
 45 49 0 0 0
SMALL
GASTEIGER

@<TRIPOS>ATOM
      1 C         -24.8550   -1.0120   30.1430 C.3     1  UNL1        0.0384
      2 C         -24.9730   -2.5050   29.7880 C.2     1  UNL1       -0.0212
      3 C         -23.9060   -3.1730   29.1460 C.2     1  UNL1       -0.0042
      4 C         -23.9890   -4.5490   28.8530 C.2     1  UNL1       -0.0003
      5 C         -25.1370   -5.2800   29.2050 C.2     1  UNL1       -0.0000
      6 C         -26.2320   -4.6110   29.7840 C.2     1  UNL1       -0.0003
      7 C         -26.1550   -3.2320   30.0650 C.2     1  UNL1       -0.0042
      8 C         -25.3870   -0.6790   31.5710 C.3     1  UNL1        0.0768
      9 C         -25.1890    0.7730   32.0280 C.3     1  UNL1        0.0192
     10 C         -25.3360    0.6840   33.5440 C.3     1  UNL1        0.0202
     11 C         -24.8290   -0.7150   33.9050 C.3     1  UNL1        0.0887
     12 N         -24.7580   -1.4810   32.6460 N.3     1  UNL1       -0.2191
     13 C         -25.6880    1.6140   26.4610 C.2     1  UNL1        0.0407
     14 C         -26.2500    2.9200   26.3950 C.2     1  UNL1        0.0744
     15 C         -25.6420    4.0930   27.1230 C.2     1  UNL1        0.2231
     16 N         -25.6140    5.2520   26.4490 N.2     1  UNL1       -0.2356
     17 C         -25.0260    6.4790   26.9630 C.3     1  UNL1        0.1550
     18 O         -25.1430    3.9660   28.2430 O.2     1  UNL1       -0.4467
     19 C         -27.4380    3.0910   25.6450 C.2     1  UNL1        0.1068
     20 N         -28.0750    2.0890   25.0030 N.2     1  UNL1       -0.2081
     21 C         -27.5430    0.8490   25.0790 C.2     1  UNL1        0.2533
     22 O         -28.1930   -0.2080   24.4770 O.2     1  UNL1       -0.4558
     23 C         -29.4600    0.0050   23.8660 C.3     1  UNL1        0.2426
     24 C         -30.0650   -1.3770   23.5730 C.3     1  UNL1        0.2292
     25 O         -30.7290   -1.8780   24.7210 O.3     1  UNL1       -0.2162
     26 C         -26.3540    0.5760   25.7770 C.2     1  UNL1        0.1931
     27 F         -25.8600   -0.6810   25.7950 F       1  UNL1       -0.1992
     28 O         -27.2888    3.8975   33.9356 O.3     1  UNL1       -0.2049
     29 O         -21.6324    0.1272   28.4652 O.co2   1  UNL1       -0.2457
     30 C         -22.8755    2.0014   28.9927 C.3     1  UNL1        0.1141
     31 C         -27.5215    6.0766   32.0232 C.3     1  UNL1        0.0350
     32 C         -25.2989    3.1194   30.6343 C.3     1  UNL1        0.0629
     33 C         -24.1180    5.3214   32.7949 C.3     1  UNL1        0.0917
     34 C         -23.5906   -0.3400   29.6294 C.3     1  UNL1        0.0063
     35 C         -26.1628    4.1666   33.2494 C.3     1  UNL1        0.2141
     36 C         -24.9853    1.7525   29.8187 C.3     1  UNL1        0.0059
     37 C         -21.8058    1.2622   28.2133 C.2     1  UNL1        0.3649
     38 C         -26.1562    4.0107   31.7836 C.3     1  UNL1        0.0674
     39 N         -26.2220    5.4078   29.8060 N.3     1  UNL1       -0.1815
     40 C         -26.6902    5.2288   31.1279 C.3     1  UNL1        0.0816
     41 N         -25.5046    5.3683   33.4319 N.3     1  UNL1       -0.2469
     42 O         -21.1163    1.9447   27.1863 O.co2   1  UNL1       -0.2457
     43 C         -25.9511    3.9707   29.4443 C.3     1  UNL1        0.2428
     44 C         -26.7151    6.4189   33.3138 C.3     1  UNL1        0.0758
     45 C         -23.5661    1.1524   29.8045 C.3     1  UNL1        0.0118
@<TRIPOS>BOND
     1     1    34    1
     2     2     7    1
     3     2     1    1
     4     3     2    2
     5     4     3    1
     6     4     5    2
     7     5     6    1
     8     6     7    2
     9     8     1    1
    10     8     9    1
    11     8    12    1
    12     9    10    1
    13    10    11    1
    14    12    11    1
    15    14    13    1
    16    14    15    1
    17    15    18    1
    18    16    17    1
    19    16    15    2
    20    18    43    1
    21    19    14    2
    22    20    21    2
    23    20    19    1
    24    21    26    1
    25    22    21    1
    26    23    22    1
    27    24    23    1
    28    24    25    1
    29    26    27    1
    30    26    13    2
    31    30    45    1
    32    31    44    1
    33    32    36    1
    34    32    38    1
    35    33    41    1
    36    34    45    1
    37    35    41    1
    38    35    28    1
    39    37    29   ar
    40    37    30    1
    41    38    35    1
    42    39    40    1
    43    40    38    1
    44    40    31    1
    45    42    37   ar
    46    43    39    1
    47    43    32    1
    48    44    41    1
    49    45    36    1
