@<TRIPOS>MOLECULE
outputs/IAG933/test6/raw/output_9069_IAG933_linker_design_.xyz
 42 46 0 0 0
SMALL
GASTEIGER

@<TRIPOS>ATOM
      1 C         -24.8550   -1.0120   30.1430 C.3     1  UNL1        0.1117
      2 C         -24.9730   -2.5050   29.7880 C.2     1  UNL1       -0.0030
      3 C         -23.9060   -3.1730   29.1460 C.2     1  UNL1       -0.0026
      4 C         -23.9890   -4.5490   28.8530 C.2     1  UNL1       -0.0003
      5 C         -25.1370   -5.2800   29.2050 C.2     1  UNL1       -0.0000
      6 C         -26.2320   -4.6110   29.7840 C.2     1  UNL1       -0.0003
      7 C         -26.1550   -3.2320   30.0650 C.2     1  UNL1       -0.0026
      8 C         -25.3870   -0.6790   31.5710 C.3     1  UNL1        0.0950
      9 C         -25.1890    0.7730   32.0280 C.3     1  UNL1        0.0209
     10 C         -25.3360    0.6840   33.5440 C.3     1  UNL1        0.0203
     11 C         -24.8290   -0.7150   33.9050 C.3     1  UNL1        0.0888
     12 N         -24.7580   -1.4810   32.6460 N.3     1  UNL1       -0.2174
     13 C         -25.6880    1.6140   26.4610 C.2     1  UNL1        0.0425
     14 C         -26.2500    2.9200   26.3950 C.2     1  UNL1        0.0767
     15 C         -25.6420    4.0930   27.1230 C.2     1  UNL1        0.2664
     16 N         -25.6140    5.2520   26.4490 N.am    1  UNL1       -0.1997
     17 C         -25.0260    6.4790   26.9630 C.3     1  UNL1        0.1388
     18 O         -25.1430    3.9660   28.2430 O.2     1  UNL1       -0.2683
     19 C         -27.4380    3.0910   25.6450 C.2     1  UNL1        0.1067
     20 N         -28.0750    2.0890   25.0030 N.2     1  UNL1       -0.2081
     21 C         -27.5430    0.8490   25.0790 C.2     1  UNL1        0.2533
     22 O         -28.1930   -0.2080   24.4770 O.2     1  UNL1       -0.4558
     23 C         -29.4600    0.0050   23.8660 C.3     1  UNL1        0.2426
     24 C         -30.0650   -1.3770   23.5730 C.3     1  UNL1        0.2292
     25 O         -30.7290   -1.8780   24.7210 O.3     1  UNL1       -0.2162
     26 C         -26.3540    0.5760   25.7770 C.2     1  UNL1        0.1932
     27 F         -25.8600   -0.6810   25.7950 F       1  UNL1       -0.1992
     28 C         -23.3311    1.6607   26.0997 C.ar    1  UNL1        0.2279
     29 O         -28.3072   -1.0318   28.9625 O.2     1  UNL1       -0.2864
     30 F         -20.3728    1.3745   28.0607 F       1  UNL1       -0.1983
     31 C         -24.0438    0.5735   28.2265 C.ar    1  UNL1        0.0818
     32 C         -22.1339    1.8226   26.5570 C.ar    1  UNL1        0.2538
     33 O         -22.4132    2.3631   24.3644 O.3     1  UNL1        0.0427
     34 C         -27.4925   -0.2245   28.5112 C.2     1  UNL1        0.2290
     35 N         -25.0503   -0.1487   28.9392 N.pl3   1  UNL1       -0.2954
     36 C         -24.3375    1.2432   26.9960 C.ar    1  UNL1        0.0594
     37 F         -22.1959    0.1066   29.7997 F       1  UNL1       -0.2004
     38 O         -23.5401    1.9076   24.8369 O.3     1  UNL1       -0.2933
     39 C         -22.6467    0.6228   28.6147 C.ar    1  UNL1        0.1839
     40 O         -21.3872    2.3412   25.5540 O.3     1  UNL1       -0.2910
     41 C         -21.6854    1.2646   27.7785 C.ar    1  UNL1        0.2095
     42 C         -26.3082   -0.0137   28.4628 C.3     1  UNL1        0.1643
@<TRIPOS>BOND
     1     1    35    1
     2     2     7    1
     3     2     1    1
     4     3     2    2
     5     4     3    1
     6     4     5    2
     7     5     6    1
     8     6     7    2
     9     8     1    1
    10     8     9    1
    11     8    12    1
    12     9    10    1
    13    10    11    1
    14    12    11    1
    15    13    36    1
    16    14    13    1
    17    14    15    1
    18    15    18    2
    19    16    17    1
    20    16    15    1
    21    19    14    2
    22    20    21    2
    23    20    19    1
    24    21    26    1
    25    22    21    1
    26    23    22    1
    27    24    23    1
    28    24    25    1
    29    26    27    1
    30    26    13    2
    31    28    32   ar
    32    28    36   ar
    33    31    39   ar
    34    31    35    1
    35    32    41   ar
    36    33    38    1
    37    33    40    1
    38    34    29    2
    39    36    31   ar
    40    38    28    1
    41    39    37    1
    42    40    32    1
    43    41    30    1
    44    41    39   ar
    45    42    34    1
    46    42    35    1
