@<TRIPOS>MOLECULE
No_907-gen_results/8p0m/2024-11-27-11-27-31/
 9 9 0 0 0
SMALL
GASTEIGER

@<TRIPOS>ATOM
      1 C         -28.0162   -0.8135   28.8779 C.ar    1  UNL1        0.0066
      2 C         -27.0636   -0.1189   28.6079 C.ar    1  UNL1        0.0798
      3 C         -25.7923   -0.4302   29.0761 C.ar    1  UNL1        0.0066
      4 C         -25.5756   -1.5654   29.9363 C.ar    1  UNL1        0.0002
      5 C         -26.7354   -2.3004   30.2173 C.ar    1  UNL1        0.0000
      6 C         -27.9184   -1.9537   29.7629 C.ar    1  UNL1        0.0002
      7 C         -27.1057    1.1023   27.7593 C.2     1  UNL1        0.3878
      8 O         -27.0311    2.0658   28.1483 O.co2   1  UNL1       -0.2406
      9 O         -27.3109    0.7495   26.4597 O.co2   1  UNL1       -0.2406
@<TRIPOS>BOND
     1     2     7    1
     2     7     8   ar
     3     7     9   ar
     4     1     2   ar
     5     2     3   ar
     6     3     4   ar
     7     4     5   ar
     8     5     6   ar
     9     6     1   ar
