@<TRIPOS>MOLECULE
outputs/IAG933/test6/raw/output_9071_IAG933_linker_design_.xyz
 39 43 0 0 0
SMALL
GASTEIGER

@<TRIPOS>ATOM
      1 C         -24.8550   -1.0120   30.1430 C.3     1  UNL1        0.1180
      2 C         -24.9730   -2.5050   29.7880 C.2     1  UNL1       -0.0028
      3 C         -23.9060   -3.1730   29.1460 C.2     1  UNL1       -0.0026
      4 C         -23.9890   -4.5490   28.8530 C.2     1  UNL1       -0.0003
      5 C         -25.1370   -5.2800   29.2050 C.2     1  UNL1       -0.0000
      6 C         -26.2320   -4.6110   29.7840 C.2     1  UNL1       -0.0003
      7 C         -26.1550   -3.2320   30.0650 C.2     1  UNL1       -0.0026
      8 C         -25.3870   -0.6790   31.5710 C.3     1  UNL1        0.0953
      9 C         -25.1890    0.7730   32.0280 C.3     1  UNL1        0.0209
     10 C         -25.3360    0.6840   33.5440 C.3     1  UNL1        0.0203
     11 C         -24.8290   -0.7150   33.9050 C.3     1  UNL1        0.0888
     12 N         -24.7580   -1.4810   32.6460 N.3     1  UNL1       -0.2174
     13 C         -25.6880    1.6140   26.4610 C.3     1  UNL1        0.1513
     14 C         -26.2500    2.9200   26.3950 C.2     1  UNL1        0.0735
     15 C         -25.6420    4.0930   27.1230 C.2     1  UNL1        0.2640
     16 N         -25.6140    5.2520   26.4490 N.am    1  UNL1       -0.1999
     17 C         -25.0260    6.4790   26.9630 C.3     1  UNL1        0.1388
     18 O         -25.1430    3.9660   28.2430 O.2     1  UNL1       -0.2686
     19 C         -27.4380    3.0910   25.6450 C.2     1  UNL1        0.1038
     20 N         -28.0750    2.0890   25.0030 N.2     1  UNL1       -0.2118
     21 C         -27.5430    0.8490   25.0790 C.2     1  UNL1        0.2359
     22 O         -28.1930   -0.2080   24.4770 O.2     1  UNL1       -0.4585
     23 C         -29.4600    0.0050   23.8660 C.3     1  UNL1        0.2423
     24 C         -30.0650   -1.3770   23.5730 C.3     1  UNL1        0.2292
     25 O         -30.7290   -1.8780   24.7210 O.3     1  UNL1       -0.2162
     26 C         -26.3540    0.5760   25.7770 C.3     1  UNL1        0.2585
     27 F         -25.8600   -0.6810   25.7950 F       1  UNL1       -0.2250
     28 C         -23.0855    0.0223   29.0499 C.3     1  UNL1        0.2705
     29 F         -20.2698    1.3253   28.1644 F       1  UNL1       -0.1630
     30 N         -24.8041    1.0675   27.4052 N.am    1  UNL1       -0.2343
     31 C         -23.5233    1.2897   27.1066 C.2     1  UNL1        0.0988
     32 N         -24.3470   -0.1271   29.2420 N.am    1  UNL1       -0.2301
     33 C         -22.8555    1.9450   25.9759 C.2     1  UNL1        0.1970
     34 C         -22.6131    0.7853   27.9851 C.2     1  UNL1        0.1098
     35 C         -21.3804    1.3851   27.4719 C.2     1  UNL1        0.2893
     36 F         -22.1628   -0.5505   29.8196 F       1  UNL1       -0.2093
     37 O         -26.5582    0.1739   28.6907 O.2     1  UNL1       -0.2519
     38 C         -25.3208    0.3001   28.5086 C.2     1  UNL1        0.3136
     39 O         -21.4931    2.0808   26.2986 O.2     1  UNL1       -0.4248
@<TRIPOS>BOND
     1     1     2    1
     2     2     7    1
     3     3     2    2
     4     4     3    1
     5     4     5    2
     6     5     6    1
     7     6     7    2
     8     8     1    1
     9     8     9    1
    10     8    12    1
    11     9    10    1
    12    10    11    1
    13    12    11    1
    14    13    30    1
    15    14    13    1
    16    14    15    1
    17    15    18    2
    18    16    17    1
    19    16    15    1
    20    19    14    2
    21    20    21    2
    22    20    19    1
    23    21    26    1
    24    22    21    1
    25    23    22    1
    26    24    23    1
    27    24    25    1
    28    26    27    1
    29    26    13    1
    30    28    32    1
    31    28    36    1
    32    30    38   am
    33    31    30    1
    34    31    34    1
    35    32     1    1
    36    33    39    1
    37    33    31    2
    38    34    28    1
    39    35    34    2
    40    35    29    1
    41    38    37    2
    42    38    32   am
    43    39    35    1
