@<TRIPOS>MOLECULE
outputs/IAG933/test6/raw/output_9073_IAG933_linker_design_.xyz
 45 50 0 0 0
SMALL
GASTEIGER

@<TRIPOS>ATOM
      1 C         -24.8550   -1.0120   30.1430 C.3     1  UNL1        0.0438
      2 C         -24.9730   -2.5050   29.7880 C.2     1  UNL1       -0.0208
      3 C         -23.9060   -3.1730   29.1460 C.2     1  UNL1       -0.0042
      4 C         -23.9890   -4.5490   28.8530 C.2     1  UNL1       -0.0003
      5 C         -25.1370   -5.2800   29.2050 C.2     1  UNL1       -0.0000
      6 C         -26.2320   -4.6110   29.7840 C.2     1  UNL1       -0.0003
      7 C         -26.1550   -3.2320   30.0650 C.2     1  UNL1       -0.0042
      8 C         -25.3870   -0.6790   31.5710 C.3     1  UNL1        0.0785
      9 C         -25.1890    0.7730   32.0280 C.3     1  UNL1        0.0353
     10 C         -25.3360    0.6840   33.5440 C.3     1  UNL1        0.0216
     11 C         -24.8290   -0.7150   33.9050 C.3     1  UNL1        0.0887
     12 N         -24.7580   -1.4810   32.6460 N.3     1  UNL1       -0.2191
     13 C         -25.6880    1.6140   26.4610 C.2     1  UNL1        0.0334
     14 C         -26.2500    2.9200   26.3950 C.2     1  UNL1        0.0739
     15 C         -25.6420    4.0930   27.1230 C.2     1  UNL1        0.2662
     16 N         -25.6140    5.2520   26.4490 N.am    1  UNL1       -0.1997
     17 C         -25.0260    6.4790   26.9630 C.3     1  UNL1        0.1388
     18 O         -25.1430    3.9660   28.2430 O.2     1  UNL1       -0.2683
     19 C         -27.4380    3.0910   25.6450 C.2     1  UNL1        0.1065
     20 N         -28.0750    2.0890   25.0030 N.2     1  UNL1       -0.2081
     21 C         -27.5430    0.8490   25.0790 C.2     1  UNL1        0.2530
     22 O         -28.1930   -0.2080   24.4770 O.2     1  UNL1       -0.4558
     23 C         -29.4600    0.0050   23.8660 C.3     1  UNL1        0.2426
     24 C         -30.0650   -1.3770   23.5730 C.3     1  UNL1        0.2292
     25 O         -30.7290   -1.8780   24.7210 O.3     1  UNL1       -0.2162
     26 C         -26.3540    0.5760   25.7770 C.2     1  UNL1        0.1905
     27 F         -25.8600   -0.6810   25.7950 F       1  UNL1       -0.1995
     28 N         -23.0009    1.9793   26.5498 N.3     1  UNL1       -0.1465
     29 N         -26.7811    2.9863   32.0165 N.3     1  UNL1       -0.2526
     30 C         -27.4750    3.6807   30.9651 C.3     1  UNL1        0.0953
     31 C         -22.6182    1.1597   28.4380 C.3     1  UNL1        0.0933
     32 C         -25.6323    1.7978   30.9278 C.3     1  UNL1        0.0918
     33 O         -25.6450    6.3882   33.9474 O.2     1  UNL1       -0.2490
     34 C         -26.6737    5.0064   30.7336 C.3     1  UNL1        0.1136
     35 N         -27.7046    6.8966   33.5932 N.am    1  UNL1       -0.0691
     36 C         -21.3673    1.2305   27.8885 C.3     1  UNL1        0.0394
     37 N         -23.5294    1.2572   27.3753 N.3     1  UNL1       -0.1993
     38 C         -23.4277    1.6932   29.6421 C.3     1  UNL1        0.1061
     39 C         -24.3840    1.2556   26.9943 C.3     1  UNL1        0.1189
     40 C         -26.6063    6.2093   33.2195 C.2     1  UNL1        0.3439
     41 N         -24.9424    1.7352   29.6027 N.3     1  UNL1       -0.2165
     42 C         -25.6228    3.0990   31.4790 C.3     1  UNL1        0.1090
     43 C         -21.6118    1.9030   26.6262 C.3     1  UNL1        0.1094
     44 C         -25.8318    3.7610   32.6304 C.3     1  UNL1        0.1541
     45 N         -26.5167    5.3972   32.1791 N.am    1  UNL1       -0.2470
@<TRIPOS>BOND
     1     2     7    1
     2     2     1    1
     3     3     2    2
     4     4     3    1
     5     4     5    2
     6     5     6    1
     7     6     7    2
     8     8     1    1
     9     8     9    1
    10     8    12    1
    11     9    32    1
    12     9    10    1
    13    10    11    1
    14    12    11    1
    15    13    39    1
    16    14    13    1
    17    14    15    1
    18    15    18    2
    19    16    17    1
    20    16    15    1
    21    19    14    2
    22    20    21    2
    23    20    19    1
    24    21    26    1
    25    22    21    1
    26    23    22    1
    27    24    23    1
    28    24    25    1
    29    26    27    1
    30    26    13    2
    31    28    43    1
    32    28    37    1
    33    29    30    1
    34    29    44    1
    35    31    38    1
    36    32    41    1
    37    34    30    1
    38    34    45    1
    39    36    31    1
    40    37    31    1
    41    39    37    1
    42    40    35    1
    43    40    33    2
    44    41    38    1
    45    42    32    1
    46    42    29    1
    47    42    44    1
    48    43    36    1
    49    44    45    1
    50    45    40   am
