@<TRIPOS>MOLECULE
No_908-gen_results/8p0m/2024-11-27-11-27-31/
 15 16 0 0 0
SMALL
GASTEIGER

@<TRIPOS>ATOM
      1 C         -28.0162   -0.8135   28.8779 C.ar    1  UNL1       -0.0040
      2 C         -28.4690   -0.7850   29.8287 C.ar    1  UNL1       -0.0003
      3 C         -27.0871    0.2903   28.6377 C.ar    1  UNL1       -0.0190
      4 C         -26.2516    0.4114   27.4223 C.3     1  UNL1        0.0377
      5 C         -28.3913    0.1041   30.9805 C.ar    1  UNL1       -0.0000
      6 C         -27.5332    1.1666   30.7866 C.ar    1  UNL1       -0.0003
      7 C         -26.7557    1.3057   29.6122 C.ar    1  UNL1       -0.0040
      8 C         -24.9324    0.3145   27.6221 C.ar    1  UNL1       -0.0190
      9 C         -24.0545    1.1650   26.8146 C.ar    1  UNL1       -0.0040
     10 C         -22.6595    1.3260   27.1726 C.ar    1  UNL1       -0.0003
     11 C         -22.1693    0.6539   28.3022 C.ar    1  UNL1       -0.0000
     12 C         -24.2683   -0.2350   28.7732 C.ar    1  UNL1       -0.0040
     13 C         -22.9519   -0.1459   29.0440 C.ar    1  UNL1       -0.0003
     14 C         -26.6579   -0.6595   26.3706 C.3     1  UNL1        0.0088
     15 C         -26.7154    1.7806   26.7693 C.3     1  UNL1        0.0088
@<TRIPOS>BOND
     1     3     4    1
     2     4     8    1
     3     4    14    1
     4     4    15    1
     5     1     2   ar
     6     2     5   ar
     7     5     6   ar
     8     6     7   ar
     9     7     3   ar
    10     3     1   ar
    11     8     9   ar
    12     9    10   ar
    13    10    11   ar
    14    11    13   ar
    15    13    12   ar
    16    12     8   ar
