@<TRIPOS>MOLECULE
outputs/IAG933/test6/raw/output_9085_IAG933_linker_design_.xyz
 48 52 0 0 0
SMALL
GASTEIGER

@<TRIPOS>ATOM
      1 C         -24.8550   -1.0120   30.1430 C.3     1  UNL1        0.1553
      2 C         -24.9730   -2.5050   29.7880 C.2     1  UNL1        0.0060
      3 C         -23.9060   -3.1730   29.1460 C.2     1  UNL1       -0.0019
      4 C         -23.9890   -4.5490   28.8530 C.2     1  UNL1       -0.0002
      5 C         -25.1370   -5.2800   29.2050 C.2     1  UNL1       -0.0000
      6 C         -26.2320   -4.6110   29.7840 C.2     1  UNL1       -0.0002
      7 C         -26.1550   -3.2320   30.0650 C.2     1  UNL1       -0.0019
      8 C         -25.3870   -0.6790   31.5710 C.3     1  UNL1        0.1042
      9 C         -25.1890    0.7730   32.0280 C.3     1  UNL1        0.0217
     10 C         -25.3360    0.6840   33.5440 C.3     1  UNL1        0.0203
     11 C         -24.8290   -0.7150   33.9050 C.3     1  UNL1        0.0888
     12 N         -24.7580   -1.4810   32.6460 N.3     1  UNL1       -0.2166
     13 C         -25.6880    1.6140   26.4610 C.2     1  UNL1        0.0407
     14 C         -26.2500    2.9200   26.3950 C.2     1  UNL1        0.0746
     15 C         -25.6420    4.0930   27.1230 C.2     1  UNL1        0.2264
     16 N         -25.6140    5.2520   26.4490 N.2     1  UNL1       -0.2355
     17 C         -25.0260    6.4790   26.9630 C.3     1  UNL1        0.1550
     18 O         -25.1430    3.9660   28.2430 O.2     1  UNL1       -0.4131
     19 C         -27.4380    3.0910   25.6450 C.2     1  UNL1        0.1068
     20 N         -28.0750    2.0890   25.0030 N.2     1  UNL1       -0.2081
     21 C         -27.5430    0.8490   25.0790 C.2     1  UNL1        0.2533
     22 O         -28.1930   -0.2080   24.4770 O.2     1  UNL1       -0.4558
     23 C         -29.4600    0.0050   23.8660 C.3     1  UNL1        0.2426
     24 C         -30.0650   -1.3770   23.5730 C.3     1  UNL1        0.2292
     25 O         -30.7290   -1.8780   24.7210 O.3     1  UNL1       -0.2162
     26 C         -26.3540    0.5760   25.7770 C.2     1  UNL1        0.1931
     27 F         -25.8600   -0.6810   25.7950 F       1  UNL1       -0.1992
     28 N         -27.5216    7.0700   30.5929 N.2     1  UNL1       -0.1445
     29 C         -24.2295    0.9569   29.0765 C.3     1  UNL1        0.2772
     30 N         -23.9495    4.7407   33.0703 N.pl3   1  UNL1        0.2164
     31 O         -24.8415   -0.2293   29.1755 O.3     1  UNL1       -0.3289
     32 N         -25.0237    1.9678   29.5439 N.3     1  UNL1       -0.1026
     33 O         -20.8407    0.6457   28.2887 O.2     1  UNL1       -0.3249
     34 C         -21.1870    1.5711   27.2581 C.3     1  UNL1        0.4530
     35 C         -27.5496    4.0936   29.8889 C.2     1  UNL1        0.0129
     36 C         -24.6658    6.0030   33.1159 C.2     1  UNL1        0.4338
     37 N         -24.6942    8.0446   33.5807 N.2     1  UNL1       -0.0416
     38 C         -26.5405    4.9035   30.4475 C.2     1  UNL1        0.1591
     39 O         -22.4701    1.8122   27.5557 O.2     1  UNL1       -0.4176
     40 C         -25.7332    6.5620   32.1861 C.2     1  UNL1        0.1359
     41 N         -24.1920    6.9175   33.9592 N.pl3   1  UNL1        0.1157
     42 C         -25.2355    3.3368   29.4171 C.3     1  UNL1        0.4363
     43 C         -26.6491    6.1937   31.0656 C.2     1  UNL1        0.1454
     44 C         -25.6719    7.8846   32.4240 C.2     1  UNL1        0.1561
     45 O         -25.3321    4.3107   30.3621 O.2     1  UNL1       -0.4284
     46 C         -27.5986    2.8314   29.4107 C.3     1  UNL1        0.0340
     47 N         -21.9066    0.1927   29.0215 N.2     1  UNL1       -0.0410
     48 C         -22.9307    0.9841   28.6079 C.2     1  UNL1        0.2847
@<TRIPOS>BOND
     1     1    31    1
     2     2     7    1
     3     2     1    1
     4     3     2    2
     5     4     3    1
     6     4     5    2
     7     5     6    1
     8     6     7    2
     9     8     1    1
    10     8     9    1
    11     8    12    1
    12     9    10    1
    13    10    11    1
    14    12    11    1
    15    14    13    1
    16    14    15    1
    17    15    18    1
    18    16    17    1
    19    16    15    2
    20    19    14    2
    21    20    21    2
    22    20    19    1
    23    21    26    1
    24    22    21    1
    25    23    22    1
    26    24    23    1
    27    24    25    1
    28    26    27    1
    29    26    13    2
    30    28    43    2
    31    29    31    1
    32    29    32    1
    33    30    36    1
    34    33    47    1
    35    34    39    1
    36    34    33    1
    37    35    38    2
    38    36    41    1
    39    37    41    1
    40    38    43    1
    41    39    48    1
    42    40    44    1
    43    40    36    2
    44    42    18    1
    45    42    32    1
    46    42    45    1
    47    43    40    1
    48    44    37    2
    49    45    38    1
    50    46    35    1
    51    48    47    2
    52    48    29    1
