@<TRIPOS>MOLECULE
outputs/IAG933/test6/raw/output_909_IAG933_linker_design_.xyz
 41 44 0 0 0
SMALL
GASTEIGER

@<TRIPOS>ATOM
      1 C         -24.8550   -1.0120   30.1430 C.3     1  UNL1        0.0698
      2 C         -24.9730   -2.5050   29.7880 C.2     1  UNL1       -0.0184
      3 C         -23.9060   -3.1730   29.1460 C.2     1  UNL1       -0.0041
      4 C         -23.9890   -4.5490   28.8530 C.2     1  UNL1       -0.0003
      5 C         -25.1370   -5.2800   29.2050 C.2     1  UNL1       -0.0000
      6 C         -26.2320   -4.6110   29.7840 C.2     1  UNL1       -0.0003
      7 C         -26.1550   -3.2320   30.0650 C.2     1  UNL1       -0.0041
      8 C         -25.3870   -0.6790   31.5710 C.3     1  UNL1        0.0795
      9 C         -25.1890    0.7730   32.0280 C.3     1  UNL1        0.0193
     10 C         -25.3360    0.6840   33.5440 C.3     1  UNL1        0.0202
     11 C         -24.8290   -0.7150   33.9050 C.3     1  UNL1        0.0887
     12 N         -24.7580   -1.4810   32.6460 N.3     1  UNL1       -0.2190
     13 C         -25.6880    1.6140   26.4610 C.2     1  UNL1        0.0385
     14 C         -26.2500    2.9200   26.3950 C.2     1  UNL1        0.0765
     15 C         -25.6420    4.0930   27.1230 C.2     1  UNL1        0.2664
     16 N         -25.6140    5.2520   26.4490 N.am    1  UNL1       -0.1997
     17 C         -25.0260    6.4790   26.9630 C.3     1  UNL1        0.1388
     18 O         -25.1430    3.9660   28.2430 O.2     1  UNL1       -0.2683
     19 C         -27.4380    3.0910   25.6450 C.2     1  UNL1        0.1067
     20 N         -28.0750    2.0890   25.0030 N.2     1  UNL1       -0.2081
     21 C         -27.5430    0.8490   25.0790 C.2     1  UNL1        0.2533
     22 O         -28.1930   -0.2080   24.4770 O.2     1  UNL1       -0.4558
     23 C         -29.4600    0.0050   23.8660 C.3     1  UNL1        0.2426
     24 C         -30.0650   -1.3770   23.5730 C.3     1  UNL1        0.2292
     25 O         -30.7290   -1.8780   24.7210 O.3     1  UNL1       -0.2162
     26 C         -26.3540    0.5760   25.7770 C.2     1  UNL1        0.1931
     27 F         -25.8600   -0.6810   25.7950 F       1  UNL1       -0.1992
     28 O         -26.3641   -0.1168   28.2534 O.3     1  UNL1       -0.3419
     29 C         -23.2380    1.6756   26.6950 C.2     1  UNL1        0.0423
     30 O         -22.2796   -0.2214   29.4862 O.2     1  UNL1       -0.2912
     31 C         -25.1743   -0.1243   28.9812 C.3     1  UNL1        0.1461
     32 O         -28.6410    0.4891   30.7327 O.2     1  UNL1       -0.2689
     33 C         -20.7282    1.5771   27.6167 C.3     1  UNL1        0.0138
     34 C         -22.8807    0.5174   28.5158 C.2     1  UNL1        0.1759
     35 C         -27.7092   -0.1509   28.6523 C.3     1  UNL1        0.2306
     36 CL        -22.7932    2.4017   25.1713 Cl      1  UNL1       -0.0865
     37 C         -27.8738    0.7530   29.8437 C.2     1  UNL1        0.2909
     38 C         -24.4563    1.2625   27.1209 C.2     1  UNL1        0.0105
     39 C         -22.2703    1.3235   27.6167 C.3     1  UNL1        0.0946
     40 C         -24.2469    0.5205   28.2286 C.2     1  UNL1        0.0406
     41 N         -27.0738    1.8495   29.8992 N.am    1  UNL1       -0.0856
@<TRIPOS>BOND
     1     1    31    1
     2     2     7    1
     3     2     1    1
     4     3     2    2
     5     4     3    1
     6     4     5    2
     7     5     6    1
     8     6     7    2
     9     8     1    1
    10     8     9    1
    11     8    12    1
    12     9    10    1
    13    10    11    1
    14    12    11    1
    15    13    38    1
    16    14    13    1
    17    14    15    1
    18    15    18    2
    19    16    17    1
    20    16    15    1
    21    19    14    2
    22    20    21    2
    23    20    19    1
    24    21    26    1
    25    22    21    1
    26    23    22    1
    27    24    23    1
    28    24    25    1
    29    26    27    1
    30    26    13    2
    31    28    35    1
    32    29    38    2
    33    29    39    1
    34    31    28    1
    35    34    30    1
    36    35    37    1
    37    36    29    1
    38    37    41    1
    39    37    32    2
    40    38    40    1
    41    39    33    1
    42    39    34    1
    43    40    34    2
    44    40    31    1
