@<TRIPOS>MOLECULE
outputs/IAG933/test6/raw/output_9096_IAG933_linker_design_.xyz
 40 44 0 0 0
SMALL
GASTEIGER

@<TRIPOS>ATOM
      1 C         -24.8550   -1.0120   30.1430 C.3     1  UNL1        0.0586
      2 C         -24.9730   -2.5050   29.7880 C.2     1  UNL1       -0.0197
      3 C         -23.9060   -3.1730   29.1460 C.2     1  UNL1       -0.0042
      4 C         -23.9890   -4.5490   28.8530 C.2     1  UNL1       -0.0003
      5 C         -25.1370   -5.2800   29.2050 C.2     1  UNL1       -0.0000
      6 C         -26.2320   -4.6110   29.7840 C.2     1  UNL1       -0.0003
      7 C         -26.1550   -3.2320   30.0650 C.2     1  UNL1       -0.0042
      8 C         -25.3870   -0.6790   31.5710 C.3     1  UNL1        0.0783
      9 C         -25.1890    0.7730   32.0280 C.3     1  UNL1        0.0192
     10 C         -25.3360    0.6840   33.5440 C.3     1  UNL1        0.0202
     11 C         -24.8290   -0.7150   33.9050 C.3     1  UNL1        0.0887
     12 N         -24.7580   -1.4810   32.6460 N.3     1  UNL1       -0.2191
     13 C         -25.6880    1.6140   26.4610 C.3     1  UNL1        0.1069
     14 C         -26.2500    2.9200   26.3950 C.2     1  UNL1        0.0580
     15 C         -25.6420    4.0930   27.1230 C.2     1  UNL1        0.2204
     16 N         -25.6140    5.2520   26.4490 N.2     1  UNL1       -0.2359
     17 C         -25.0260    6.4790   26.9630 C.3     1  UNL1        0.1550
     18 O         -25.1430    3.9660   28.2430 O.2     1  UNL1       -0.4353
     19 C         -27.4380    3.0910   25.6450 C.2     1  UNL1        0.1026
     20 N         -28.0750    2.0890   25.0030 N.2     1  UNL1       -0.2118
     21 C         -27.5430    0.8490   25.0790 C.2     1  UNL1        0.2345
     22 O         -28.1930   -0.2080   24.4770 O.2     1  UNL1       -0.4585
     23 C         -29.4600    0.0050   23.8660 C.3     1  UNL1        0.2423
     24 C         -30.0650   -1.3770   23.5730 C.3     1  UNL1        0.2292
     25 O         -30.7290   -1.8780   24.7210 O.3     1  UNL1       -0.2162
     26 C         -26.3540    0.5760   25.7770 C.3     1  UNL1        0.2453
     27 F         -25.8600   -0.6810   25.7950 F       1  UNL1       -0.2265
     28 O         -24.8371    2.2778   29.7260 O.3     1  UNL1       -0.2247
     29 C         -27.1895    4.6351   30.4994 C.3     1  UNL1        0.1887
     30 C         -22.6070    0.5875   28.3416 C.3     1  UNL1        0.1109
     31 C         -21.8794    2.1889   26.7198 C.3     1  UNL1        0.0289
     32 C         -25.6630    3.1883   29.3849 C.3     1  UNL1        0.3099
     33 C         -23.2367    2.3302   26.2806 C.2     1  UNL1       -0.0142
     34 C         -26.9039    3.2801   29.9408 C.3     1  UNL1        0.1135
     35 C         -21.5443    1.3819   27.8380 C.3     1  UNL1        0.0278
     36 C         -24.2732    1.6397   26.9365 C.2     1  UNL1        0.0448
     37 N         -25.2536    1.1708   28.9794 N.3     1  UNL1       -0.0883
     38 O         -26.0957    5.5725   30.3524 O.3     1  UNL1       -0.2202
     39 C         -25.6973   -0.1913   29.1546 C.3     1  UNL1        0.1286
     40 N         -24.0242    1.0556   28.1993 N.pl3   1  UNL1       -0.2328
@<TRIPOS>BOND
     1     1    39    1
     2     2     7    1
     3     2     1    1
     4     3     2    2
     5     4     3    1
     6     4     5    2
     7     5     6    1
     8     6     7    2
     9     8     1    1
    10     8     9    1
    11     8    12    1
    12     9    10    1
    13    10    11    1
    14    12    11    1
    15    13    14    1
    16    13    36    1
    17    14    15    1
    18    15    18    1
    19    16    17    1
    20    16    15    2
    21    18    32    1
    22    19    14    2
    23    20    21    2
    24    20    19    1
    25    21    26    1
    26    22    21    1
    27    23    22    1
    28    24    23    1
    29    24    25    1
    30    26    27    1
    31    26    13    1
    32    31    35    1
    33    32    28    1
    34    32    34    1
    35    33    31    1
    36    33    36    2
    37    34    29    1
    38    35    30    1
    39    36    40    1
    40    37    39    1
    41    37    28    1
    42    38    29    1
    43    40    30    1
    44    40    37    1
