@<TRIPOS>MOLECULE
outputs/IAG933/test6/raw/output_9097_IAG933_linker_design_.xyz
 38 41 0 0 0
SMALL
GASTEIGER

@<TRIPOS>ATOM
      1 C         -24.8550   -1.0120   30.1430 C.3     1  UNL1        0.1505
      2 C         -24.9730   -2.5050   29.7880 C.2     1  UNL1        0.0017
      3 C         -23.9060   -3.1730   29.1460 C.2     1  UNL1       -0.0023
      4 C         -23.9890   -4.5490   28.8530 C.2     1  UNL1       -0.0003
      5 C         -25.1370   -5.2800   29.2050 C.2     1  UNL1       -0.0000
      6 C         -26.2320   -4.6110   29.7840 C.2     1  UNL1       -0.0003
      7 C         -26.1550   -3.2320   30.0650 C.2     1  UNL1       -0.0023
      8 C         -25.3870   -0.6790   31.5710 C.3     1  UNL1        0.0999
      9 C         -25.1890    0.7730   32.0280 C.3     1  UNL1        0.0212
     10 C         -25.3360    0.6840   33.5440 C.3     1  UNL1        0.0203
     11 C         -24.8290   -0.7150   33.9050 C.3     1  UNL1        0.0888
     12 N         -24.7580   -1.4810   32.6460 N.3     1  UNL1       -0.2171
     13 C         -25.6880    1.6140   26.4610 C.2     1  UNL1        0.0410
     14 C         -26.2500    2.9200   26.3950 C.2     1  UNL1        0.0766
     15 C         -25.6420    4.0930   27.1230 C.2     1  UNL1        0.2664
     16 N         -25.6140    5.2520   26.4490 N.am    1  UNL1       -0.1997
     17 C         -25.0260    6.4790   26.9630 C.3     1  UNL1        0.1388
     18 O         -25.1430    3.9660   28.2430 O.2     1  UNL1       -0.2683
     19 C         -27.4380    3.0910   25.6450 C.2     1  UNL1        0.1067
     20 N         -28.0750    2.0890   25.0030 N.2     1  UNL1       -0.2081
     21 C         -27.5430    0.8490   25.0790 C.2     1  UNL1        0.2533
     22 O         -28.1930   -0.2080   24.4770 O.2     1  UNL1       -0.4558
     23 C         -29.4600    0.0050   23.8660 C.3     1  UNL1        0.2426
     24 C         -30.0650   -1.3770   23.5730 C.3     1  UNL1        0.2292
     25 O         -30.7290   -1.8780   24.7210 O.3     1  UNL1       -0.2162
     26 C         -26.3540    0.5760   25.7770 C.2     1  UNL1        0.1931
     27 F         -25.8600   -0.6810   25.7950 F       1  UNL1       -0.1992
     28 N         -21.6284    0.6971   28.3978 N.2     1  UNL1       -0.2138
     29 C         -21.9843    1.4631   27.2860 C.2     1  UNL1        0.2372
     30 C         -24.4131    1.2241   27.3451 C.2     1  UNL1        0.0404
     31 C         -23.2920    1.8192   26.9085 C.2     1  UNL1        0.1127
     32 O         -26.4305    0.1274   28.6262 O.3     1  UNL1       -0.0838
     33 C         -22.7092    0.1373   29.0449 C.2     1  UNL1        0.1205
     34 N         -25.2687   -0.1208   29.0570 N.3     1  UNL1       -0.2016
     35 C         -24.0909    0.3466   28.5759 C.2     1  UNL1        0.1059
     36 C         -22.9071    2.4391   24.7155 C.3     1  UNL1        0.1356
     37 N         -23.4622    2.7223   26.0151 N.pl3   1  UNL1       -0.2318
     38 F         -21.0177    1.8207   26.4104 F       1  UNL1       -0.1818
@<TRIPOS>BOND
     1     1    34    1
     2     2     7    1
     3     2     1    1
     4     3     2    2
     5     4     3    1
     6     4     5    2
     7     5     6    1
     8     6     7    2
     9     8     1    1
    10     8     9    1
    11     8    12    1
    12     9    10    1
    13    10    11    1
    14    12    11    1
    15    13    30    1
    16    14    13    1
    17    14    15    1
    18    15    18    2
    19    16    17    1
    20    16    15    1
    21    19    14    2
    22    20    21    2
    23    20    19    1
    24    21    26    1
    25    22    21    1
    26    23    22    1
    27    24    23    1
    28    24    25    1
    29    26    27    1
    30    26    13    2
    31    28    33    1
    32    29    28    2
    33    30    35    1
    34    31    29    1
    35    31    30    2
    36    32    34    1
    37    35    33    2
    38    35    34    1
    39    36    37    1
    40    37    31    1
    41    38    29    1
