@<TRIPOS>MOLECULE
outputs/IAG933/test6/raw/output_9098_IAG933_linker_design_.xyz
 42 47 0 0 0
SMALL
GASTEIGER

@<TRIPOS>ATOM
      1 C         -24.8550   -1.0120   30.1430 C.3     1  UNL1        0.0963
      2 C         -24.9730   -2.5050   29.7880 C.2     1  UNL1       -0.0064
      3 C         -23.9060   -3.1730   29.1460 C.2     1  UNL1       -0.0029
      4 C         -23.9890   -4.5490   28.8530 C.2     1  UNL1       -0.0003
      5 C         -25.1370   -5.2800   29.2050 C.2     1  UNL1       -0.0000
      6 C         -26.2320   -4.6110   29.7840 C.2     1  UNL1       -0.0003
      7 C         -26.1550   -3.2320   30.0650 C.2     1  UNL1       -0.0029
      8 C         -25.3870   -0.6790   31.5710 C.3     1  UNL1        0.0916
      9 C         -25.1890    0.7730   32.0280 C.3     1  UNL1        0.0206
     10 C         -25.3360    0.6840   33.5440 C.3     1  UNL1        0.0203
     11 C         -24.8290   -0.7150   33.9050 C.3     1  UNL1        0.0888
     12 N         -24.7580   -1.4810   32.6460 N.3     1  UNL1       -0.2178
     13 C         -25.6880    1.6140   26.4610 C.2     1  UNL1        0.0209
     14 C         -26.2500    2.9200   26.3950 C.2     1  UNL1        0.0729
     15 C         -25.6420    4.0930   27.1230 C.2     1  UNL1        0.2661
     16 N         -25.6140    5.2520   26.4490 N.am    1  UNL1       -0.1997
     17 C         -25.0260    6.4790   26.9630 C.3     1  UNL1        0.1388
     18 O         -25.1430    3.9660   28.2430 O.2     1  UNL1       -0.2683
     19 C         -27.4380    3.0910   25.6450 C.2     1  UNL1        0.1064
     20 N         -28.0750    2.0890   25.0030 N.2     1  UNL1       -0.2081
     21 C         -27.5430    0.8490   25.0790 C.2     1  UNL1        0.2530
     22 O         -28.1930   -0.2080   24.4770 O.2     1  UNL1       -0.4558
     23 C         -29.4600    0.0050   23.8660 C.3     1  UNL1        0.2426
     24 C         -30.0650   -1.3770   23.5730 C.3     1  UNL1        0.2292
     25 O         -30.7290   -1.8780   24.7210 O.3     1  UNL1       -0.2162
     26 C         -26.3540    0.5760   25.7770 C.2     1  UNL1        0.1895
     27 F         -25.8600   -0.6810   25.7950 F       1  UNL1       -0.1996
     28 N         -24.4057    0.0547   29.3680 N.3     1  UNL1       -0.2673
     29 C         -22.4679    1.1819   28.1817 C.3     1  UNL1        0.2043
     30 C         -22.9001    0.4659   29.4401 C.3     1  UNL1        0.1112
     31 C         -27.5348   -0.1967   28.5234 C.3     1  UNL1        0.1435
     32 C         -28.6702    1.2972   29.7190 C.3     1  UNL1        0.1423
     33 C         -22.6311    1.8426   26.0770 C.2     1  UNL1        0.3154
     34 O         -21.1928    1.4829   27.6475 O.3     1  UNL1       -0.1672
     35 C         -27.3421    1.7736   29.5621 C.3     1  UNL1        0.0359
     36 C         -24.6826    1.2574   27.4200 C.3     1  UNL1        0.0657
     37 O         -21.3780    1.9000   26.3313 O.2     1  UNL1       -0.3037
     38 O         -28.8786    0.0928   29.1332 O.3     1  UNL1       -0.3537
     39 F         -23.1672    2.0655   24.9000 F       1  UNL1       -0.1604
     40 C         -25.1288    0.7758   28.5481 C.3     1  UNL1        0.0684
     41 C         -23.3288    1.4330   27.2099 C.2     1  UNL1        0.0596
     42 C         -26.6576    0.7479   28.9914 C.3     1  UNL1        0.0474
@<TRIPOS>BOND
     1     1     2    1
     2     2     7    1
     3     3     2    2
     4     4     3    1
     5     4     5    2
     6     5     6    1
     7     6     7    2
     8     8     1    1
     9     8     9    1
    10     8    12    1
    11     9    10    1
    12    10    11    1
    13    12    11    1
    14    14    13    1
    15    14    15    1
    16    15    18    2
    17    16    17    1
    18    16    15    1
    19    19    14    2
    20    20    21    2
    21    20    19    1
    22    21    26    1
    23    22    21    1
    24    23    22    1
    25    24    23    1
    26    24    25    1
    27    26    27    1
    28    26    13    2
    29    28    30    1
    30    28     1    1
    31    29    30    1
    32    31    38    1
    33    33    37    1
    34    33    41    2
    35    34    29    1
    36    35    32    1
    37    36    13    1
    38    36    40    1
    39    37    34    1
    40    38    32    1
    41    39    33    1
    42    40    42    1
    43    40    28    1
    44    41    36    1
    45    41    29    1
    46    42    31    1
    47    42    35    1
