@<TRIPOS>MOLECULE
outputs/IAG933/test6/raw/output_9099_IAG933_linker_design_.xyz
 40 44 0 0 0
SMALL
GASTEIGER

@<TRIPOS>ATOM
      1 C         -24.8550   -1.0120   30.1430 C.3     1  UNL1        0.0454
      2 C         -24.9730   -2.5050   29.7880 C.2     1  UNL1       -0.0207
      3 C         -23.9060   -3.1730   29.1460 C.2     1  UNL1       -0.0042
      4 C         -23.9890   -4.5490   28.8530 C.2     1  UNL1       -0.0003
      5 C         -25.1370   -5.2800   29.2050 C.2     1  UNL1       -0.0000
      6 C         -26.2320   -4.6110   29.7840 C.2     1  UNL1       -0.0003
      7 C         -26.1550   -3.2320   30.0650 C.2     1  UNL1       -0.0042
      8 C         -25.3870   -0.6790   31.5710 C.3     1  UNL1        0.0989
      9 C         -25.1890    0.7730   32.0280 C.3     1  UNL1        0.1468
     10 C         -25.3360    0.6840   33.5440 C.3     1  UNL1        0.0438
     11 C         -24.8290   -0.7150   33.9050 C.3     1  UNL1        0.0905
     12 N         -24.7580   -1.4810   32.6460 N.3     1  UNL1       -0.2173
     13 C         -25.6880    1.6140   26.4610 C.2     1  UNL1        0.0316
     14 C         -26.2500    2.9200   26.3950 C.2     1  UNL1        0.0739
     15 C         -25.6420    4.0930   27.1230 C.2     1  UNL1        0.2662
     16 N         -25.6140    5.2520   26.4490 N.am    1  UNL1       -0.1997
     17 C         -25.0260    6.4790   26.9630 C.3     1  UNL1        0.1388
     18 O         -25.1430    3.9660   28.2430 O.2     1  UNL1       -0.2683
     19 C         -27.4380    3.0910   25.6450 C.2     1  UNL1        0.1065
     20 N         -28.0750    2.0890   25.0030 N.2     1  UNL1       -0.2081
     21 C         -27.5430    0.8490   25.0790 C.2     1  UNL1        0.2530
     22 O         -28.1930   -0.2080   24.4770 O.2     1  UNL1       -0.4558
     23 C         -29.4600    0.0050   23.8660 C.3     1  UNL1        0.2426
     24 C         -30.0650   -1.3770   23.5730 C.3     1  UNL1        0.2292
     25 O         -30.7290   -1.8780   24.7210 O.3     1  UNL1       -0.2162
     26 C         -26.3540    0.5760   25.7770 C.2     1  UNL1        0.1904
     27 F         -25.8600   -0.6810   25.7950 F       1  UNL1       -0.1995
     28 O         -22.5590    3.3020   26.4510 O.2     1  UNL1       -0.2960
     29 N         -24.1928    1.7274   28.3360 N.3     1  UNL1       -0.2673
     30 C         -25.0409    2.4730   30.1714 C.3     1  UNL1        0.1681
     31 C         -24.3212    1.3730   27.0133 C.3     1  UNL1        0.0975
     32 C         -23.8563    0.5283   27.9336 C.3     1  UNL1        0.0771
     33 C         -22.4726    0.1071   28.6092 C.3     1  UNL1        0.0254
     34 C         -22.1085    2.2818   26.9437 C.2     1  UNL1        0.1511
     35 S         -25.5949    2.4589   31.7912 S.O2    1  UNL1       -0.0089
     36 O         -24.7252    3.0352   32.8306 O.2     1  UNL1       -0.1729
     37 C         -20.9116    1.4449   26.8976 C.3     1  UNL1        0.0718
     38 O         -26.9187    3.0217   31.7993 O.2     1  UNL1       -0.1729
     39 C         -23.7427    2.1372   29.6565 C.3     1  UNL1        0.0979
     40 C         -21.6082    1.3213   28.1193 C.3     1  UNL1        0.0663
@<TRIPOS>BOND
     1     2     7    1
     2     2     1    1
     3     3     2    2
     4     4     3    1
     5     4     5    2
     6     5     6    1
     7     6     7    2
     8     8     1    1
     9     8     9    1
    10     8    12    1
    11     9    35    1
    12     9    10    1
    13    10    11    1
    14    12    11    1
    15    14    13    1
    16    14    15    1
    17    15    18    2
    18    16    17    1
    19    16    15    1
    20    19    14    2
    21    20    21    2
    22    20    19    1
    23    21    26    1
    24    22    21    1
    25    23    22    1
    26    24    23    1
    27    24    25    1
    28    26    27    1
    29    26    13    2
    30    28    34    2
    31    29    39    1
    32    30    35    1
    33    31    13    1
    34    31    32    1
    35    31    29    1
    36    32    29    1
    37    32    33    1
    38    34    40    1
    39    35    38    2
    40    35    36    2
    41    37    34    1
    42    37    40    1
    43    39    30    1
    44    40    33    1
