@<TRIPOS>MOLECULE
outputs/IAG933/test6/raw/output_910_IAG933_linker_design_.xyz
 40 44 0 0 0
SMALL
GASTEIGER

@<TRIPOS>ATOM
      1 C         -24.8550   -1.0120   30.1430 C.3     1  UNL1        0.1138
      2 C         -24.9730   -2.5050   29.7880 C.2     1  UNL1       -0.0029
      3 C         -23.9060   -3.1730   29.1460 C.2     1  UNL1       -0.0026
      4 C         -23.9890   -4.5490   28.8530 C.2     1  UNL1       -0.0003
      5 C         -25.1370   -5.2800   29.2050 C.2     1  UNL1       -0.0000
      6 C         -26.2320   -4.6110   29.7840 C.2     1  UNL1       -0.0003
      7 C         -26.1550   -3.2320   30.0650 C.2     1  UNL1       -0.0026
      8 C         -25.3870   -0.6790   31.5710 C.3     1  UNL1        0.0951
      9 C         -25.1890    0.7730   32.0280 C.3     1  UNL1        0.0209
     10 C         -25.3360    0.6840   33.5440 C.3     1  UNL1        0.0203
     11 C         -24.8290   -0.7150   33.9050 C.3     1  UNL1        0.0888
     12 N         -24.7580   -1.4810   32.6460 N.3     1  UNL1       -0.2174
     13 C         -25.6880    1.6140   26.4610 C.3     1  UNL1        0.0757
     14 C         -26.2500    2.9200   26.3950 C.2     1  UNL1        0.0550
     15 C         -25.6420    4.0930   27.1230 C.2     1  UNL1        0.2624
     16 N         -25.6140    5.2520   26.4490 N.am    1  UNL1       -0.2000
     17 C         -25.0260    6.4790   26.9630 C.3     1  UNL1        0.1388
     18 O         -25.1430    3.9660   28.2430 O.2     1  UNL1       -0.2687
     19 C         -27.4380    3.0910   25.6450 C.2     1  UNL1        0.1021
     20 N         -28.0750    2.0890   25.0030 N.2     1  UNL1       -0.2119
     21 C         -27.5430    0.8490   25.0790 C.2     1  UNL1        0.2341
     22 O         -28.1930   -0.2080   24.4770 O.2     1  UNL1       -0.4585
     23 C         -29.4600    0.0050   23.8660 C.3     1  UNL1        0.2423
     24 C         -30.0650   -1.3770   23.5730 C.3     1  UNL1        0.2292
     25 O         -30.7290   -1.8780   24.7210 O.3     1  UNL1       -0.2162
     26 C         -26.3540    0.5760   25.7770 C.3     1  UNL1        0.2402
     27 F         -25.8600   -0.6810   25.7950 F       1  UNL1       -0.2269
     28 C         -22.3116    1.1948   27.6231 C.3     1  UNL1        0.1559
     29 C         -23.1247    1.8328   25.6454 C.3     1  UNL1        0.2697
     30 C         -21.6836    0.7876   28.9255 C.3     1  UNL1        0.1700
     31 O         -23.0137    3.0927   25.0787 O.3     1  UNL1       -0.1899
     32 O         -22.1801    1.8626   29.7654 O.3     1  UNL1       -0.2214
     33 C         -24.2467    1.5547   26.5595 C.3     1  UNL1        0.0779
     34 O         -21.7867    1.4908   26.3463 O.3     1  UNL1       -0.3279
     35 C         -24.4210    0.2886   28.4364 C.2     1  UNL1        0.2281
     36 N         -23.7608   -0.3487   29.4545 N.am    1  UNL1       -0.2734
     37 O         -25.6728    0.1350   28.2248 O.2     1  UNL1       -0.2748
     38 C         -23.6849    0.9422   27.6235 C.3     1  UNL1        0.1117
     39 C         -20.2866    0.3277   28.4943 C.3     1  UNL1        0.0373
     40 C         -22.3582   -0.4351   29.5420 C.3     1  UNL1        0.1264
@<TRIPOS>BOND
     1     1     2    1
     2     2     7    1
     3     3     2    2
     4     4     3    1
     5     4     5    2
     6     5     6    1
     7     6     7    2
     8     8     1    1
     9     8     9    1
    10     8    12    1
    11     9    10    1
    12    10    11    1
    13    12    11    1
    14    13    14    1
    15    14    15    1
    16    15    18    2
    17    16    17    1
    18    16    15    1
    19    19    14    2
    20    20    21    2
    21    20    19    1
    22    21    26    1
    23    22    21    1
    24    23    22    1
    25    24    23    1
    26    24    25    1
    27    26    27    1
    28    26    13    1
    29    28    34    1
    30    28    38    1
    31    28    30    1
    32    29    31    1
    33    29    34    1
    34    29    33    1
    35    30    39    1
    36    30    40    1
    37    30    32    1
    38    33    13    1
    39    33    38    1
    40    35    36   am
    41    36    40    1
    42    36     1    1
    43    37    35    2
    44    38    35    1
