@<TRIPOS>MOLECULE
outputs/IAG933/test6/raw/output_9108_IAG933_linker_design_.xyz
 44 47 0 0 0
SMALL
GASTEIGER

@<TRIPOS>ATOM
      1 C         -24.8550   -1.0120   30.1430 C.3     1  UNL1        0.1121
      2 C         -24.9730   -2.5050   29.7880 C.2     1  UNL1       -0.0030
      3 C         -23.9060   -3.1730   29.1460 C.2     1  UNL1       -0.0026
      4 C         -23.9890   -4.5490   28.8530 C.2     1  UNL1       -0.0003
      5 C         -25.1370   -5.2800   29.2050 C.2     1  UNL1       -0.0000
      6 C         -26.2320   -4.6110   29.7840 C.2     1  UNL1       -0.0003
      7 C         -26.1550   -3.2320   30.0650 C.2     1  UNL1       -0.0026
      8 C         -25.3870   -0.6790   31.5710 C.3     1  UNL1        0.0951
      9 C         -25.1890    0.7730   32.0280 C.3     1  UNL1        0.0209
     10 C         -25.3360    0.6840   33.5440 C.3     1  UNL1        0.0203
     11 C         -24.8290   -0.7150   33.9050 C.3     1  UNL1        0.0888
     12 N         -24.7580   -1.4810   32.6460 N.3     1  UNL1       -0.2174
     13 C         -25.6880    1.6140   26.4610 C.2     1  UNL1        0.1085
     14 C         -26.2500    2.9200   26.3950 C.2     1  UNL1        0.0918
     15 C         -25.6420    4.0930   27.1230 C.2     1  UNL1        0.2677
     16 N         -25.6140    5.2520   26.4490 N.am    1  UNL1       -0.1997
     17 C         -25.0260    6.4790   26.9630 C.3     1  UNL1        0.1388
     18 O         -25.1430    3.9660   28.2430 O.2     1  UNL1       -0.2683
     19 C         -27.4380    3.0910   25.6450 C.2     1  UNL1        0.1080
     20 N         -28.0750    2.0890   25.0030 N.2     1  UNL1       -0.2080
     21 C         -27.5430    0.8490   25.0790 C.2     1  UNL1        0.2546
     22 O         -28.1930   -0.2080   24.4770 O.2     1  UNL1       -0.4558
     23 C         -29.4600    0.0050   23.8660 C.3     1  UNL1        0.2426
     24 C         -30.0650   -1.3770   23.5730 C.3     1  UNL1        0.2292
     25 O         -30.7290   -1.8780   24.7210 O.3     1  UNL1       -0.2162
     26 C         -26.3540    0.5760   25.7770 C.2     1  UNL1        0.2082
     27 F         -25.8600   -0.6810   25.7950 F       1  UNL1       -0.1978
     28 C         -26.4955    0.5651   28.9545 C.3     1  UNL1        0.1687
     29 N         -24.9986    0.1021   29.1534 N.pl3   1  UNL1       -0.2919
     30 C         -22.3799    0.4446   29.1859 C.2     1  UNL1        0.0160
     31 C         -21.2903    1.0893   28.5785 C.2     1  UNL1        0.0037
     32 C         -27.3203    4.1011   31.1391 C.3     1  UNL1        0.1402
     33 C         -27.0048    1.9119   29.6659 C.1     1  UNL1       -0.0687
     34 O         -27.4757    3.4616   33.3166 O.3     1  UNL1       -0.1888
     35 C         -25.2460    4.5237   34.2446 C.3     1  UNL1        0.1770
     36 N         -24.6090    1.3273   26.9746 N.pl3   1  UNL1       -0.2063
     37 C         -21.4378    1.8687   27.3812 C.2     1  UNL1        0.0311
     38 F         -22.6869    2.5386   25.4890 F       1  UNL1       -0.2028
     39 C         -26.5026    3.8035   32.3740 C.3     1  UNL1        0.2821
     40 O         -25.6601    4.7501   32.8673 O.3     1  UNL1       -0.3250
     41 C         -23.5889    1.2755   27.3957 C.2     1  UNL1        0.1112
     42 C         -23.6743    0.6346   28.5338 C.2     1  UNL1        0.0664
     43 C         -27.3049    3.0088   30.3018 C.1     1  UNL1       -0.0839
     44 C         -22.5724    1.9521   26.6854 C.2     1  UNL1        0.1564
@<TRIPOS>BOND
     1     1    29    1
     2     2     7    1
     3     2     1    1
     4     3     2    2
     5     4     3    1
     6     4     5    2
     7     5     6    1
     8     6     7    2
     9     8     1    1
    10     8     9    1
    11     8    12    1
    12     9    10    1
    13    10    11    1
    14    12    11    1
    15    13    36    1
    16    14    13    1
    17    14    15    1
    18    15    18    2
    19    16    17    1
    20    16    15    1
    21    19    14    2
    22    20    21    2
    23    20    19    1
    24    21    26    1
    25    22    21    1
    26    23    22    1
    27    24    23    1
    28    24    25    1
    29    26    27    1
    30    26    13    2
    31    28    29    1
    32    28    33    1
    33    31    30    1
    34    32    39    1
    35    33    43    3
    36    36    41    1
    37    37    31    2
    38    38    44    1
    39    39    40    1
    40    39    34    1
    41    40    35    1
    42    41    42    1
    43    42    29    1
    44    42    30    2
    45    43    32    1
    46    44    37    1
    47    44    41    2
