@<TRIPOS>MOLECULE
outputs/IAG933/test6/raw/output_9109_IAG933_linker_design_.xyz
 45 48 0 0 0
SMALL
GASTEIGER

@<TRIPOS>ATOM
      1 C         -24.8550   -1.0120   30.1430 C.3     1  UNL1        0.0774
      2 C         -24.9730   -2.5050   29.7880 C.2     1  UNL1       -0.0178
      3 C         -23.9060   -3.1730   29.1460 C.2     1  UNL1       -0.0041
      4 C         -23.9890   -4.5490   28.8530 C.2     1  UNL1       -0.0003
      5 C         -25.1370   -5.2800   29.2050 C.2     1  UNL1       -0.0000
      6 C         -26.2320   -4.6110   29.7840 C.2     1  UNL1       -0.0003
      7 C         -26.1550   -3.2320   30.0650 C.2     1  UNL1       -0.0041
      8 C         -25.3870   -0.6790   31.5710 C.3     1  UNL1        0.0802
      9 C         -25.1890    0.7730   32.0280 C.3     1  UNL1        0.0193
     10 C         -25.3360    0.6840   33.5440 C.3     1  UNL1        0.0202
     11 C         -24.8290   -0.7150   33.9050 C.3     1  UNL1        0.0887
     12 N         -24.7580   -1.4810   32.6460 N.3     1  UNL1       -0.2190
     13 C         -25.6880    1.6140   26.4610 C.3     1  UNL1        0.1469
     14 C         -26.2500    2.9200   26.3950 C.2     1  UNL1        0.0732
     15 C         -25.6420    4.0930   27.1230 C.2     1  UNL1        0.2640
     16 N         -25.6140    5.2520   26.4490 N.am    1  UNL1       -0.1999
     17 C         -25.0260    6.4790   26.9630 C.3     1  UNL1        0.1388
     18 O         -25.1430    3.9660   28.2430 O.2     1  UNL1       -0.2686
     19 C         -27.4380    3.0910   25.6450 C.2     1  UNL1        0.1038
     20 N         -28.0750    2.0890   25.0030 N.2     1  UNL1       -0.2118
     21 C         -27.5430    0.8490   25.0790 C.2     1  UNL1        0.2358
     22 O         -28.1930   -0.2080   24.4770 O.2     1  UNL1       -0.4585
     23 C         -29.4600    0.0050   23.8660 C.3     1  UNL1        0.2423
     24 C         -30.0650   -1.3770   23.5730 C.3     1  UNL1        0.2292
     25 O         -30.7290   -1.8780   24.7210 O.3     1  UNL1       -0.2162
     26 C         -26.3540    0.5760   25.7770 C.3     1  UNL1        0.2581
     27 F         -25.8600   -0.6810   25.7950 F       1  UNL1       -0.2251
     28 O         -28.2318    0.9117   29.8432 O.2     1  UNL1       -0.2682
     29 C         -30.3332   -1.1542   28.9794 C.2     1  UNL1        0.1394
     30 N         -26.7282   -0.1762   28.5138 N.am    1  UNL1       -0.1824
     31 N         -31.3313   -2.5812   30.3466 N.3     1  UNL1       -0.0853
     32 CL        -22.8644    2.4686   25.6447 Cl      1  UNL1       -0.1052
     33 C         -23.3980    0.8552   27.5679 C.2     1  UNL1        0.2419
     34 C         -30.4198   -1.3255   30.3583 C.3     1  UNL1        0.1474
     35 C         -21.2729    1.4683   27.6070 C.3     1  UNL1        0.0273
     36 C         -25.4387   -0.0350   28.7508 C.3     1  UNL1        0.1779
     37 C         -32.4518   -2.1812   29.5618 C.3     1  UNL1        0.3119
     38 C         -22.6423    1.8421   27.3235 C.3     1  UNL1        0.1560
     39 O         -23.0318   -0.3520   27.8475 O.2     1  UNL1       -0.2735
     40 C         -30.6838   -1.1580   31.9407 C.3     1  UNL1        0.0282
     41 C         -27.9991    0.1263   28.9136 C.2     1  UNL1        0.2692
     42 O         -30.5866   -3.6421   29.8765 O.3     1  UNL1       -0.1143
     43 N         -24.9130    0.8913   27.7370 N.am    1  UNL1       -0.2567
     44 C         -29.1858   -0.5521   28.1868 C.2     1  UNL1        0.0933
     45 O         -31.8702   -1.7306   28.4366 O.2     1  UNL1       -0.4593
@<TRIPOS>BOND
     1     1    36    1
     2     2     7    1
     3     2     1    1
     4     3     2    2
     5     4     3    1
     6     4     5    2
     7     5     6    1
     8     6     7    2
     9     8     1    1
    10     8     9    1
    11     8    12    1
    12     9    10    1
    13    10    11    1
    14    12    11    1
    15    13    43    1
    16    14    13    1
    17    14    15    1
    18    15    18    2
    19    16    17    1
    20    16    15    1
    21    19    14    2
    22    20    21    2
    23    20    19    1
    24    21    26    1
    25    22    21    1
    26    23    22    1
    27    24    23    1
    28    24    25    1
    29    26    27    1
    30    26    13    1
    31    29    34    1
    32    30    41    1
    33    31    34    1
    34    32    38    1
    35    33    43   am
    36    33    39    2
    37    34    40    1
    38    36    30    1
    39    37    31    1
    40    38    33    1
    41    38    35    1
    42    41    28    2
    43    42    31    1
    44    43    36    1
    45    44    41    1
    46    44    29    2
    47    45    29    1
    48    45    37    1
