@<TRIPOS>MOLECULE
outputs/IAG933/test6/raw/output_911_IAG933_linker_design_.xyz
 42 46 0 0 0
SMALL
GASTEIGER

@<TRIPOS>ATOM
      1 C         -24.8550   -1.0120   30.1430 C.3     1  UNL1        0.1155
      2 C         -24.9730   -2.5050   29.7880 C.2     1  UNL1       -0.0029
      3 C         -23.9060   -3.1730   29.1460 C.2     1  UNL1       -0.0026
      4 C         -23.9890   -4.5490   28.8530 C.2     1  UNL1       -0.0003
      5 C         -25.1370   -5.2800   29.2050 C.2     1  UNL1       -0.0000
      6 C         -26.2320   -4.6110   29.7840 C.2     1  UNL1       -0.0003
      7 C         -26.1550   -3.2320   30.0650 C.2     1  UNL1       -0.0026
      8 C         -25.3870   -0.6790   31.5710 C.3     1  UNL1        0.0952
      9 C         -25.1890    0.7730   32.0280 C.3     1  UNL1        0.0209
     10 C         -25.3360    0.6840   33.5440 C.3     1  UNL1        0.0203
     11 C         -24.8290   -0.7150   33.9050 C.3     1  UNL1        0.0888
     12 N         -24.7580   -1.4810   32.6460 N.3     1  UNL1       -0.2174
     13 C         -25.6880    1.6140   26.4610 C.3     1  UNL1        0.0776
     14 C         -26.2500    2.9200   26.3950 C.2     1  UNL1        0.0552
     15 C         -25.6420    4.0930   27.1230 C.2     1  UNL1        0.2625
     16 N         -25.6140    5.2520   26.4490 N.am    1  UNL1       -0.2000
     17 C         -25.0260    6.4790   26.9630 C.3     1  UNL1        0.1388
     18 O         -25.1430    3.9660   28.2430 O.2     1  UNL1       -0.2687
     19 C         -27.4380    3.0910   25.6450 C.2     1  UNL1        0.1022
     20 N         -28.0750    2.0890   25.0030 N.2     1  UNL1       -0.2119
     21 C         -27.5430    0.8490   25.0790 C.2     1  UNL1        0.2341
     22 O         -28.1930   -0.2080   24.4770 O.2     1  UNL1       -0.4585
     23 C         -29.4600    0.0050   23.8660 C.3     1  UNL1        0.2423
     24 C         -30.0650   -1.3770   23.5730 C.3     1  UNL1        0.2292
     25 O         -30.7290   -1.8780   24.7210 O.3     1  UNL1       -0.2162
     26 C         -26.3540    0.5760   25.7770 C.3     1  UNL1        0.2404
     27 F         -25.8600   -0.6810   25.7950 F       1  UNL1       -0.2269
     28 C         -23.0064    0.2570   29.2887 C.2     1  UNL1        0.2533
     29 C         -24.7142    1.3669   27.4300 C.3     1  UNL1        0.0722
     30 C         -28.8684    3.6272   30.9791 C.3     1  UNL1        0.0101
     31 C         -23.3744    1.5673   27.2703 C.2     1  UNL1        0.0263
     32 C         -28.0810    2.6280   30.4083 C.3     1  UNL1        0.0869
     33 O         -22.2899   -0.2043   30.1116 O.2     1  UNL1       -0.2698
     34 C         -26.6670    2.7282   30.4184 C.2     1  UNL1        0.2428
     35 C         -25.1246    1.0177   28.7407 C.3     1  UNL1        0.1769
     36 C         -22.6970    2.4499   26.3601 C.2     1  UNL1        0.1757
     37 C         -21.1777    1.5591   27.9191 C.2     1  UNL1        0.1839
     38 N         -24.3693    0.0862   29.3958 N.am    1  UNL1       -0.2562
     39 N         -25.8430    1.9558   29.5405 N.am    1  UNL1       -0.1863
     40 O         -26.0697    3.4320   31.2139 O.2     1  UNL1       -0.2733
     41 O         -21.3263    2.3683   26.7708 O.2     1  UNL1       -0.4475
     42 C         -22.4816    1.0783   28.2170 C.2     1  UNL1        0.0903
@<TRIPOS>BOND
     1     1     2    1
     2     2     7    1
     3     3     2    2
     4     4     3    1
     5     4     5    2
     6     5     6    1
     7     6     7    2
     8     8     1    1
     9     8     9    1
    10     8    12    1
    11     9    10    1
    12    10    11    1
    13    12    11    1
    14    13    14    1
    15    13    29    1
    16    14    15    1
    17    15    18    2
    18    16    17    1
    19    16    15    1
    20    19    14    2
    21    20    21    2
    22    20    19    1
    23    21    26    1
    24    22    21    1
    25    23    22    1
    26    24    23    1
    27    24    25    1
    28    26    27    1
    29    26    13    1
    30    28    38   am
    31    28    33    2
    32    29    31    1
    33    29    35    1
    34    31    42    1
    35    32    34    1
    36    32    30    1
    37    34    40    2
    38    35    38    1
    39    35    39    1
    40    36    41    1
    41    36    31    2
    42    37    42    2
    43    38     1    1
    44    39    34    1
    45    41    37    1
    46    42    28    1
