@<TRIPOS>MOLECULE
outputs/IAG933/test6/raw/output_9112_IAG933_linker_design_.xyz
 45 48 0 0 0
SMALL
GASTEIGER

@<TRIPOS>ATOM
      1 C         -24.8550   -1.0120   30.1430 C.3     1  UNL1        0.0401
      2 C         -24.9730   -2.5050   29.7880 C.2     1  UNL1       -0.0211
      3 C         -23.9060   -3.1730   29.1460 C.2     1  UNL1       -0.0042
      4 C         -23.9890   -4.5490   28.8530 C.2     1  UNL1       -0.0003
      5 C         -25.1370   -5.2800   29.2050 C.2     1  UNL1       -0.0000
      6 C         -26.2320   -4.6110   29.7840 C.2     1  UNL1       -0.0003
      7 C         -26.1550   -3.2320   30.0650 C.2     1  UNL1       -0.0042
      8 C         -25.3870   -0.6790   31.5710 C.3     1  UNL1        0.0769
      9 C         -25.1890    0.7730   32.0280 C.3     1  UNL1        0.0192
     10 C         -25.3360    0.6840   33.5440 C.3     1  UNL1        0.0202
     11 C         -24.8290   -0.7150   33.9050 C.3     1  UNL1        0.0887
     12 N         -24.7580   -1.4810   32.6460 N.3     1  UNL1       -0.2191
     13 C         -25.6880    1.6140   26.4610 C.2     1  UNL1        0.0159
     14 C         -26.2500    2.9200   26.3950 C.2     1  UNL1        0.0726
     15 C         -25.6420    4.0930   27.1230 C.2     1  UNL1        0.2661
     16 N         -25.6140    5.2520   26.4490 N.am    1  UNL1       -0.1997
     17 C         -25.0260    6.4790   26.9630 C.3     1  UNL1        0.1388
     18 O         -25.1430    3.9660   28.2430 O.2     1  UNL1       -0.2683
     19 C         -27.4380    3.0910   25.6450 C.2     1  UNL1        0.1064
     20 N         -28.0750    2.0890   25.0030 N.2     1  UNL1       -0.2081
     21 C         -27.5430    0.8490   25.0790 C.2     1  UNL1        0.2530
     22 O         -28.1930   -0.2080   24.4770 O.2     1  UNL1       -0.4558
     23 C         -29.4600    0.0050   23.8660 C.3     1  UNL1        0.2426
     24 C         -30.0650   -1.3770   23.5730 C.3     1  UNL1        0.2292
     25 O         -30.7290   -1.8780   24.7210 O.3     1  UNL1       -0.2162
     26 C         -26.3540    0.5760   25.7770 C.2     1  UNL1        0.1891
     27 F         -25.8600   -0.6810   25.7950 F       1  UNL1       -0.1996
     28 N         -28.5761    3.0569   29.5467 N.am    1  UNL1       -0.2483
     29 C         -27.7563    4.2393   30.0006 C.3     1  UNL1        0.1722
     30 O         -28.7602    1.3334   27.9370 O.2     1  UNL1       -0.2507
     31 N         -20.6111    1.1022   28.1748 N.am    1  UNL1       -0.0878
     32 N         -26.8796    1.3184   29.2206 N.am    1  UNL1       -0.1884
     33 C         -30.5342    4.6949   29.2002 C.3     1  UNL1        0.0390
     34 O         -21.9725    2.3771   26.9459 O.2     1  UNL1       -0.2717
     35 C         -29.4031    5.5126   28.6034 C.3     1  UNL1        0.0754
     36 C         -30.0364    3.3087   29.7095 C.3     1  UNL1        0.0978
     37 C         -25.0143   -0.2061   28.8213 C.3     1  UNL1        0.0280
     38 C         -28.0756    1.8258   28.8719 C.2     1  UNL1        0.3242
     39 C         -26.5395   -0.0444   28.7369 C.3     1  UNL1        0.1171
     40 C         -29.0360    6.4280   30.7639 C.3     1  UNL1        0.0910
     41 N         -28.4151    5.5817   29.7293 N.3     1  UNL1       -0.2543
     42 C         -21.8958    1.5090   27.9109 C.2     1  UNL1        0.2607
     43 C         -24.3064    1.3550   26.9935 C.3     1  UNL1        0.0295
     44 C         -24.3489    1.1269   28.4763 C.3     1  UNL1        0.0157
     45 C         -22.8860    0.8569   28.8156 C.3     1  UNL1        0.0889
@<TRIPOS>BOND
     1     1    37    1
     2     2     7    1
     3     2     1    1
     4     3     2    2
     5     4     3    1
     6     4     5    2
     7     5     6    1
     8     6     7    2
     9     8     1    1
    10     8     9    1
    11     8    12    1
    12     9    10    1
    13    10    11    1
    14    12    11    1
    15    13    43    1
    16    14    13    1
    17    14    15    1
    18    15    18    2
    19    16    17    1
    20    16    15    1
    21    19    14    2
    22    20    21    2
    23    20    19    1
    24    21    26    1
    25    22    21    1
    26    23    22    1
    27    24    23    1
    28    24    25    1
    29    26    27    1
    30    26    13    2
    31    28    36    1
    32    28    29    1
    33    30    38    2
    34    33    36    1
    35    34    42    2
    36    35    33    1
    37    35    41    1
    38    37    39    1
    39    38    32    1
    40    38    28   am
    41    39    32    1
    42    41    29    1
    43    41    40    1
    44    42    31    1
    45    42    45    1
    46    44    43    1
    47    44    45    1
    48    44    37    1
