@<TRIPOS>MOLECULE
outputs/IAG933/test6/raw/output_9114_IAG933_linker_design_.xyz
 45 49 0 0 0
SMALL
GASTEIGER

@<TRIPOS>ATOM
      1 C         -24.8550   -1.0120   30.1430 C.3     1  UNL1        0.0734
      2 C         -24.9730   -2.5050   29.7880 C.2     1  UNL1       -0.0181
      3 C         -23.9060   -3.1730   29.1460 C.2     1  UNL1       -0.0041
      4 C         -23.9890   -4.5490   28.8530 C.2     1  UNL1       -0.0003
      5 C         -25.1370   -5.2800   29.2050 C.2     1  UNL1       -0.0000
      6 C         -26.2320   -4.6110   29.7840 C.2     1  UNL1       -0.0003
      7 C         -26.1550   -3.2320   30.0650 C.2     1  UNL1       -0.0041
      8 C         -25.3870   -0.6790   31.5710 C.3     1  UNL1        0.0798
      9 C         -25.1890    0.7730   32.0280 C.3     1  UNL1        0.0193
     10 C         -25.3360    0.6840   33.5440 C.3     1  UNL1        0.0202
     11 C         -24.8290   -0.7150   33.9050 C.3     1  UNL1        0.0887
     12 N         -24.7580   -1.4810   32.6460 N.3     1  UNL1       -0.2190
     13 C         -25.6880    1.6140   26.4610 C.2     1  UNL1        0.0340
     14 C         -26.2500    2.9200   26.3950 C.2     1  UNL1        0.0741
     15 C         -25.6420    4.0930   27.1230 C.2     1  UNL1        0.2662
     16 N         -25.6140    5.2520   26.4490 N.am    1  UNL1       -0.1997
     17 C         -25.0260    6.4790   26.9630 C.3     1  UNL1        0.1388
     18 O         -25.1430    3.9660   28.2430 O.2     1  UNL1       -0.2683
     19 C         -27.4380    3.0910   25.6450 C.2     1  UNL1        0.1065
     20 N         -28.0750    2.0890   25.0030 N.2     1  UNL1       -0.2081
     21 C         -27.5430    0.8490   25.0790 C.2     1  UNL1        0.2530
     22 O         -28.1930   -0.2080   24.4770 O.2     1  UNL1       -0.4558
     23 C         -29.4600    0.0050   23.8660 C.3     1  UNL1        0.2426
     24 C         -30.0650   -1.3770   23.5730 C.3     1  UNL1        0.2292
     25 O         -30.7290   -1.8780   24.7210 O.3     1  UNL1       -0.2162
     26 C         -26.3540    0.5760   25.7770 C.2     1  UNL1        0.1907
     27 F         -25.8600   -0.6810   25.7950 F       1  UNL1       -0.1995
     28 C         -29.2768   -0.4059   30.7980 C.3     1  UNL1        0.0362
     29 O         -22.7508    0.6670   29.9012 O.2     1  UNL1       -0.2719
     30 C         -25.4202   -0.1391   28.9390 C.3     1  UNL1        0.1574
     31 C         -28.5126   -0.3861   29.6168 C.3     1  UNL1        0.0507
     32 C         -23.1084    0.8126   28.7509 C.2     1  UNL1        0.2595
     33 C         -29.1220    0.7888   31.3369 C.3     1  UNL1        0.1439
     34 N         -26.4759    0.9197   29.2727 N.3     1  UNL1       -0.1731
     35 O         -28.4320    1.7350   30.5513 O.3     1  UNL1       -0.3396
     36 N         -24.3483    0.5853   28.1819 N.am    1  UNL1       -0.2619
     37 C         -22.2496    1.3479   27.7343 C.3     1  UNL1        0.2385
     38 C         -23.0693    1.8382   26.7401 C.3     1  UNL1        0.0693
     39 O         -28.8083    2.2663   33.1650 O.3     1  UNL1       -0.3511
     40 C         -27.8081    0.9029   29.5213 C.3     1  UNL1        0.1906
     41 C         -29.3483    1.1299   32.6700 C.3     1  UNL1        0.1424
     42 C         -28.9589    3.4729   32.4729 C.3     1  UNL1        0.1741
     43 C         -30.1411    0.2261   33.5034 C.3     1  UNL1        0.0346
     44 C         -24.3791    1.3867   27.0635 C.3     1  UNL1        0.1049
     45 F         -20.8612    1.5306   27.6486 F       1  UNL1       -0.2273
@<TRIPOS>BOND
     1     1    30    1
     2     2     7    1
     3     2     1    1
     4     3     2    2
     5     4     3    1
     6     4     5    2
     7     5     6    1
     8     6     7    2
     9     8     1    1
    10     8     9    1
    11     8    12    1
    12     9    10    1
    13    10    11    1
    14    12    11    1
    15    14    13    1
    16    14    15    1
    17    15    18    2
    18    16    17    1
    19    16    15    1
    20    19    14    2
    21    20    21    2
    22    20    19    1
    23    21    26    1
    24    22    21    1
    25    23    22    1
    26    24    23    1
    27    24    25    1
    28    26    27    1
    29    26    13    2
    30    28    33    1
    31    30    34    1
    32    31    28    1
    33    32    29    2
    34    33    41    1
    35    35    33    1
    36    36    32   am
    37    36    30    1
    38    37    45    1
    39    37    32    1
    40    38    44    1
    41    38    37    1
    42    40    34    1
    43    40    31    1
    44    40    35    1
    45    41    39    1
    46    41    43    1
    47    42    39    1
    48    44    13    1
    49    44    36    1
