@<TRIPOS>MOLECULE
outputs/IAG933/test6/raw/output_912_IAG933_linker_design_.xyz
 41 44 0 0 0
SMALL
GASTEIGER

@<TRIPOS>ATOM
      1 C         -24.8550   -1.0120   30.1430 C.3     1  UNL1        0.0619
      2 C         -24.9730   -2.5050   29.7880 C.2     1  UNL1       -0.0170
      3 C         -23.9060   -3.1730   29.1460 C.2     1  UNL1       -0.0039
      4 C         -23.9890   -4.5490   28.8530 C.2     1  UNL1       -0.0003
      5 C         -25.1370   -5.2800   29.2050 C.2     1  UNL1       -0.0000
      6 C         -26.2320   -4.6110   29.7840 C.2     1  UNL1       -0.0003
      7 C         -26.1550   -3.2320   30.0650 C.2     1  UNL1       -0.0039
      8 C         -25.3870   -0.6790   31.5710 C.3     1  UNL1        0.0809
      9 C         -25.1890    0.7730   32.0280 C.3     1  UNL1        0.0195
     10 C         -25.3360    0.6840   33.5440 C.3     1  UNL1        0.0203
     11 C         -24.8290   -0.7150   33.9050 C.3     1  UNL1        0.0887
     12 N         -24.7580   -1.4810   32.6460 N.3     1  UNL1       -0.2188
     13 C         -25.6880    1.6140   26.4610 C.2     1  UNL1        0.0425
     14 C         -26.2500    2.9200   26.3950 C.2     1  UNL1        0.0767
     15 C         -25.6420    4.0930   27.1230 C.2     1  UNL1        0.2664
     16 N         -25.6140    5.2520   26.4490 N.am    1  UNL1       -0.1997
     17 C         -25.0260    6.4790   26.9630 C.3     1  UNL1        0.1388
     18 O         -25.1430    3.9660   28.2430 O.2     1  UNL1       -0.2683
     19 C         -27.4380    3.0910   25.6450 C.2     1  UNL1        0.1067
     20 N         -28.0750    2.0890   25.0030 N.2     1  UNL1       -0.2081
     21 C         -27.5430    0.8490   25.0790 C.2     1  UNL1        0.2533
     22 O         -28.1930   -0.2080   24.4770 O.2     1  UNL1       -0.4558
     23 C         -29.4600    0.0050   23.8660 C.3     1  UNL1        0.2426
     24 C         -30.0650   -1.3770   23.5730 C.3     1  UNL1        0.2292
     25 O         -30.7290   -1.8780   24.7210 O.3     1  UNL1       -0.2162
     26 C         -26.3540    0.5760   25.7770 C.2     1  UNL1        0.1932
     27 F         -25.8600   -0.6810   25.7950 F       1  UNL1       -0.1992
     28 N         -27.3553    2.1512   29.7134 N.2     1  UNL1       -0.0898
     29 C         -22.3460    1.3537   28.0644 C.2     1  UNL1        0.2272
     30 O         -28.6319    0.2760   30.0424 O.2     1  UNL1       -0.4434
     31 C         -25.0186    0.3985   28.2429 C.2     1  UNL1        0.0748
     32 O         -21.0690    1.8976   27.8210 O.2     1  UNL1       -0.2886
     33 F         -20.2597    1.0259   28.1729 F       1  UNL1        0.0139
     34 C         -24.7025    1.2861   27.2910 C.2     1  UNL1        0.0598
     35 O         -23.0817    2.7202   26.1465 O.2     1  UNL1       -0.2831
     36 C         -27.3219    0.9808   29.3874 C.2     1  UNL1        0.3271
     37 C         -24.1842   -0.0266   29.2006 C.2     1  UNL1        0.0017
     38 N         -26.4543    0.2912   28.4975 N.pl3   1  UNL1       -0.1609
     39 C         -22.7913    0.4474   29.0249 C.2     1  UNL1        0.0420
     40 C         -23.2925    1.7781   27.0424 C.2     1  UNL1        0.2347
     41 C         -28.8287   -0.7509   29.1680 C.3     1  UNL1        0.2557
@<TRIPOS>BOND
     1     1    37    1
     2     2     7    1
     3     2     1    1
     4     3     2    2
     5     4     3    1
     6     4     5    2
     7     5     6    1
     8     6     7    2
     9     8     1    1
    10     8     9    1
    11     8    12    1
    12     9    10    1
    13    10    11    1
    14    12    11    1
    15    13    34    1
    16    14    13    1
    17    14    15    1
    18    15    18    2
    19    16    17    1
    20    16    15    1
    21    19    14    2
    22    20    21    2
    23    20    19    1
    24    21    26    1
    25    22    21    1
    26    23    22    1
    27    24    23    1
    28    24    25    1
    29    26    27    1
    30    26    13    2
    31    29    39    1
    32    31    38    1
    33    31    37    1
    34    32    29    1
    35    32    33    1
    36    34    31    2
    37    35    40    1
    38    36    28    2
    39    36    30    1
    40    38    36    1
    41    39    37    2
    42    40    34    1
    43    40    29    2
    44    41    30    1
