@<TRIPOS>MOLECULE
outputs/IAG933/test6/raw/output_9121_IAG933_linker_design_.xyz
 44 48 0 0 0
SMALL
GASTEIGER

@<TRIPOS>ATOM
      1 C         -24.8550   -1.0120   30.1430 C.3     1  UNL1        0.0582
      2 C         -24.9730   -2.5050   29.7880 C.2     1  UNL1       -0.0195
      3 C         -23.9060   -3.1730   29.1460 C.2     1  UNL1       -0.0042
      4 C         -23.9890   -4.5490   28.8530 C.2     1  UNL1       -0.0003
      5 C         -25.1370   -5.2800   29.2050 C.2     1  UNL1       -0.0000
      6 C         -26.2320   -4.6110   29.7840 C.2     1  UNL1       -0.0003
      7 C         -26.1550   -3.2320   30.0650 C.2     1  UNL1       -0.0042
      8 C         -25.3870   -0.6790   31.5710 C.3     1  UNL1        0.0820
      9 C         -25.1890    0.7730   32.0280 C.3     1  UNL1        0.0616
     10 C         -25.3360    0.6840   33.5440 C.3     1  UNL1        0.0239
     11 C         -24.8290   -0.7150   33.9050 C.3     1  UNL1        0.0888
     12 N         -24.7580   -1.4810   32.6460 N.3     1  UNL1       -0.2190
     13 C         -25.6880    1.6140   26.4610 C.2     1  UNL1        0.0537
     14 C         -26.2500    2.9200   26.3950 C.2     1  UNL1        0.0778
     15 C         -25.6420    4.0930   27.1230 C.2     1  UNL1        0.2665
     16 N         -25.6140    5.2520   26.4490 N.am    1  UNL1       -0.1997
     17 C         -25.0260    6.4790   26.9630 C.3     1  UNL1        0.1388
     18 O         -25.1430    3.9660   28.2430 O.2     1  UNL1       -0.2683
     19 C         -27.4380    3.0910   25.6450 C.2     1  UNL1        0.1068
     20 N         -28.0750    2.0890   25.0030 N.2     1  UNL1       -0.2081
     21 C         -27.5430    0.8490   25.0790 C.2     1  UNL1        0.2533
     22 O         -28.1930   -0.2080   24.4770 O.2     1  UNL1       -0.4558
     23 C         -29.4600    0.0050   23.8660 C.3     1  UNL1        0.2426
     24 C         -30.0650   -1.3770   23.5730 C.3     1  UNL1        0.2292
     25 O         -30.7290   -1.8780   24.7210 O.3     1  UNL1       -0.2162
     26 C         -26.3540    0.5760   25.7770 C.2     1  UNL1        0.1943
     27 F         -25.8600   -0.6810   25.7950 F       1  UNL1       -0.1992
     28 C         -23.3808    1.1050   29.1404 C.3     1  UNL1        0.1199
     29 C         -24.4517    1.3448   27.1502 C.2     1  UNL1        0.0807
     30 C         -24.6827    6.3624   33.8181 C.2     1  UNL1        0.0031
     31 F         -23.2056    2.1491   25.2797 F       1  UNL1       -0.2005
     32 F         -20.9555    2.1052   26.7256 F       1  UNL1       -0.2020
     33 C         -22.1177    1.7616   27.2643 C.2     1  UNL1        0.1660
     34 O         -25.6659    3.2300   32.3050 O.2     1  UNL1       -0.4754
     35 C         -25.4386    5.4674   31.2908 C.2     1  UNL1        0.0369
     36 C         -23.2612    1.7484   26.5488 C.2     1  UNL1        0.1803
     37 C         -24.9484    5.0061   33.6117 C.2     1  UNL1        0.0369
     38 C         -24.8303    7.2880   32.7578 C.2     1  UNL1        0.0002
     39 C         -25.3938   -0.1544   28.9803 C.3     1  UNL1        0.0968
     40 C         -25.3639    4.5409   32.3573 C.2     1  UNL1        0.1386
     41 C         -25.1744    6.8167   31.4868 C.2     1  UNL1        0.0031
     42 N         -24.3863    0.7811   28.3877 N.pl3   1  UNL1       -0.3013
     43 C         -22.1707    1.4856   28.5793 C.2     1  UNL1        0.0273
     44 C         -25.0280    2.2036   31.5583 C.3     1  UNL1        0.2067
@<TRIPOS>BOND
     1     1    39    1
     2     2     7    1
     3     2     1    1
     4     3     2    2
     5     4     3    1
     6     4     5    2
     7     5     6    1
     8     6     7    2
     9     8     1    1
    10     8     9    1
    11     8    12    1
    12     9    44    1
    13     9    10    1
    14    10    11    1
    15    12    11    1
    16    13    29    1
    17    14    13    1
    18    14    15    1
    19    15    18    2
    20    16    17    1
    21    16    15    1
    22    19    14    2
    23    20    21    2
    24    20    19    1
    25    21    26    1
    26    22    21    1
    27    23    22    1
    28    24    23    1
    29    24    25    1
    30    26    27    1
    31    26    13    2
    32    29    42    1
    33    31    36    1
    34    32    33    1
    35    33    43    2
    36    34    40    1
    37    35    41    2
    38    35    40    1
    39    36    29    2
    40    36    33    1
    41    37    30    1
    42    38    30    2
    43    40    37    2
    44    41    38    1
    45    42    39    1
    46    42    28    1
    47    43    28    1
    48    44    34    1
