@<TRIPOS>MOLECULE
outputs/IAG933/test6/raw/output_9122_IAG933_linker_design_.xyz
 38 42 0 0 0
SMALL
GASTEIGER

@<TRIPOS>ATOM
      1 C         -24.8550   -1.0120   30.1430 C.3     1  UNL1        0.2430
      2 C         -24.9730   -2.5050   29.7880 C.2     1  UNL1        0.0254
      3 C         -23.9060   -3.1730   29.1460 C.2     1  UNL1       -0.0003
      4 C         -23.9890   -4.5490   28.8530 C.2     1  UNL1       -0.0002
      5 C         -25.1370   -5.2800   29.2050 C.2     1  UNL1       -0.0000
      6 C         -26.2320   -4.6110   29.7840 C.2     1  UNL1       -0.0002
      7 C         -26.1550   -3.2320   30.0650 C.2     1  UNL1       -0.0003
      8 C         -25.3870   -0.6790   31.5710 C.3     1  UNL1        0.1239
      9 C         -25.1890    0.7730   32.0280 C.3     1  UNL1        0.0235
     10 C         -25.3360    0.6840   33.5440 C.3     1  UNL1        0.0204
     11 C         -24.8290   -0.7150   33.9050 C.3     1  UNL1        0.0889
     12 N         -24.7580   -1.4810   32.6460 N.3     1  UNL1       -0.2149
     13 C         -25.6880    1.6140   26.4610 C.3     1  UNL1        0.0948
     14 C         -26.2500    2.9200   26.3950 C.2     1  UNL1        0.0588
     15 C         -25.6420    4.0930   27.1230 C.2     1  UNL1        0.2627
     16 N         -25.6140    5.2520   26.4490 N.am    1  UNL1       -0.2000
     17 C         -25.0260    6.4790   26.9630 C.3     1  UNL1        0.1388
     18 O         -25.1430    3.9660   28.2430 O.2     1  UNL1       -0.2686
     19 C         -27.4380    3.0910   25.6450 C.2     1  UNL1        0.1025
     20 N         -28.0750    2.0890   25.0030 N.2     1  UNL1       -0.2118
     21 C         -27.5430    0.8490   25.0790 C.2     1  UNL1        0.2344
     22 O         -28.1930   -0.2080   24.4770 O.2     1  UNL1       -0.4585
     23 C         -29.4600    0.0050   23.8660 C.3     1  UNL1        0.2423
     24 C         -30.0650   -1.3770   23.5730 C.3     1  UNL1        0.2292
     25 O         -30.7290   -1.8780   24.7210 O.3     1  UNL1       -0.2162
     26 C         -26.3540    0.5760   25.7770 C.3     1  UNL1        0.2439
     27 F         -25.8600   -0.6810   25.7950 F       1  UNL1       -0.2265
     28 C         -23.8395    0.3750   28.7908 C.2     1  UNL1        0.3864
     29 O         -21.8501    2.5261   25.8520 O.2     1  UNL1       -0.4416
     30 C         -23.3886    1.2017   27.7535 C.2     1  UNL1        0.1086
     31 C         -24.1103    1.7146   26.6379 C.2     1  UNL1        0.0457
     32 C         -23.2380    2.5116   25.7561 C.3     1  UNL1        0.3480
     33 N         -24.9845   -0.1235   28.9890 N.pl3   1  UNL1       -0.0278
     34 N         -22.6800    0.1090   29.5930 N.2     1  UNL1        0.0734
     35 C         -21.9896    1.3692   27.9087 C.2     1  UNL1        0.1603
     36 F         -23.7366    3.3008   24.8863 F       1  UNL1       -0.1836
     37 N         -21.5442    0.6798   29.0442 N.pl3   1  UNL1       -0.0002
     38 C         -21.1580    1.9990   26.9517 C.2     1  UNL1        0.1961
@<TRIPOS>BOND
     1     1    33    1
     2     2     7    1
     3     2     1    1
     4     3     2    2
     5     4     3    1
     6     4     5    2
     7     5     6    1
     8     6     7    2
     9     8     1    1
    10     8     9    1
    11     8    12    1
    12     9    10    1
    13    10    11    1
    14    12    11    1
    15    13    31    1
    16    14    13    1
    17    14    15    1
    18    15    18    2
    19    16    17    1
    20    16    15    1
    21    19    14    2
    22    20    21    2
    23    20    19    1
    24    21    26    1
    25    22    21    1
    26    23    22    1
    27    24    23    1
    28    24    25    1
    29    26    27    1
    30    26    13    1
    31    28    33    1
    32    28    34    2
    33    29    38    1
    34    30    35    1
    35    30    28    1
    36    31    30    2
    37    32    36    1
    38    32    29    1
    39    32    31    1
    40    35    37    1
    41    37    34    1
    42    38    35    2
