@<TRIPOS>MOLECULE
outputs/IAG933/test6/raw/output_9125_IAG933_linker_design_.xyz
 40 44 0 0 0
SMALL
GASTEIGER

@<TRIPOS>ATOM
      1 C         -24.8550   -1.0120   30.1430 C.3     1  UNL1        0.1148
      2 C         -24.9730   -2.5050   29.7880 C.2     1  UNL1       -0.0089
      3 C         -23.9060   -3.1730   29.1460 C.2     1  UNL1       -0.0033
      4 C         -23.9890   -4.5490   28.8530 C.2     1  UNL1       -0.0003
      5 C         -25.1370   -5.2800   29.2050 C.2     1  UNL1       -0.0000
      6 C         -26.2320   -4.6110   29.7840 C.2     1  UNL1       -0.0003
      7 C         -26.1550   -3.2320   30.0650 C.2     1  UNL1       -0.0033
      8 C         -25.3870   -0.6790   31.5710 C.3     1  UNL1        0.0891
      9 C         -25.1890    0.7730   32.0280 C.3     1  UNL1        0.0201
     10 C         -25.3360    0.6840   33.5440 C.3     1  UNL1        0.0203
     11 C         -24.8290   -0.7150   33.9050 C.3     1  UNL1        0.0887
     12 N         -24.7580   -1.4810   32.6460 N.3     1  UNL1       -0.2182
     13 C         -25.6880    1.6140   26.4610 C.2     1  UNL1        0.0391
     14 C         -26.2500    2.9200   26.3950 C.2     1  UNL1        0.0766
     15 C         -25.6420    4.0930   27.1230 C.2     1  UNL1        0.2664
     16 N         -25.6140    5.2520   26.4490 N.am    1  UNL1       -0.1997
     17 C         -25.0260    6.4790   26.9630 C.3     1  UNL1        0.1388
     18 O         -25.1430    3.9660   28.2430 O.2     1  UNL1       -0.2683
     19 C         -27.4380    3.0910   25.6450 C.2     1  UNL1        0.1067
     20 N         -28.0750    2.0890   25.0030 N.2     1  UNL1       -0.2081
     21 C         -27.5430    0.8490   25.0790 C.2     1  UNL1        0.2533
     22 O         -28.1930   -0.2080   24.4770 O.2     1  UNL1       -0.4558
     23 C         -29.4600    0.0050   23.8660 C.3     1  UNL1        0.2426
     24 C         -30.0650   -1.3770   23.5730 C.3     1  UNL1        0.2292
     25 O         -30.7290   -1.8780   24.7210 O.3     1  UNL1       -0.2162
     26 C         -26.3540    0.5760   25.7770 C.2     1  UNL1        0.1931
     27 F         -25.8600   -0.6810   25.7950 F       1  UNL1       -0.1992
     28 C         -23.1735    1.7326   26.5971 C.2     1  UNL1        0.0418
     29 C         -22.0711   -0.1373   29.5986 C.3     1  UNL1        0.0550
     30 C         -20.7150    1.4762   27.6533 C.3     1  UNL1        0.1514
     31 CL        -22.7962    2.5350   25.2118 Cl      1  UNL1       -0.0865
     32 C         -24.3765    0.7272   28.3123 C.2     1  UNL1        0.0429
     33 C         -20.9610   -0.6645   28.6120 C.3     1  UNL1        0.1465
     34 S         -25.8704    0.0976   29.0193 S.3     1  UNL1        0.0322
     35 O         -20.0342    0.3091   28.2875 O.3     1  UNL1       -0.3527
     36 C         -24.4695    1.3803   27.0476 C.2     1  UNL1        0.0164
     37 N         -26.7756    1.1858   29.6200 N.3     1  UNL1       -0.0488
     38 C         -22.9521    0.6416   28.6190 C.2     1  UNL1       -0.0271
     39 C         -22.2473    1.3061   27.5676 C.3     1  UNL1        0.0815
     40 O         -26.6381   -0.8526   28.3237 O.3     1  UNL1       -0.1499
@<TRIPOS>BOND
     1     1    34    1
     2     2     7    1
     3     2     1    1
     4     3     2    2
     5     4     3    1
     6     4     5    2
     7     5     6    1
     8     6     7    2
     9     8     1    1
    10     8     9    1
    11     8    12    1
    12     9    10    1
    13    10    11    1
    14    12    11    1
    15    13    36    1
    16    14    13    1
    17    14    15    1
    18    15    18    2
    19    16    17    1
    20    16    15    1
    21    19    14    2
    22    20    21    2
    23    20    19    1
    24    21    26    1
    25    22    21    1
    26    23    22    1
    27    24    23    1
    28    24    25    1
    29    26    27    1
    30    26    13    2
    31    28    36    2
    32    28    39    1
    33    30    35    1
    34    31    28    1
    35    32    38    2
    36    32    34    1
    37    33    29    1
    38    34    40    1
    39    34    37    1
    40    35    33    1
    41    36    32    1
    42    38    29    1
    43    39    30    1
    44    39    38    1
