@<TRIPOS>MOLECULE
outputs/IAG933/test6/raw/output_9131_IAG933_linker_design_.xyz
 45 49 0 0 0
SMALL
GASTEIGER

@<TRIPOS>ATOM
      1 C         -24.8550   -1.0120   30.1430 C.3     1  UNL1        0.0809
      2 C         -24.9730   -2.5050   29.7880 C.2     1  UNL1       -0.0176
      3 C         -23.9060   -3.1730   29.1460 C.2     1  UNL1       -0.0041
      4 C         -23.9890   -4.5490   28.8530 C.2     1  UNL1       -0.0003
      5 C         -25.1370   -5.2800   29.2050 C.2     1  UNL1       -0.0000
      6 C         -26.2320   -4.6110   29.7840 C.2     1  UNL1       -0.0003
      7 C         -26.1550   -3.2320   30.0650 C.2     1  UNL1       -0.0041
      8 C         -25.3870   -0.6790   31.5710 C.3     1  UNL1        0.0804
      9 C         -25.1890    0.7730   32.0280 C.3     1  UNL1        0.0193
     10 C         -25.3360    0.6840   33.5440 C.3     1  UNL1        0.0202
     11 C         -24.8290   -0.7150   33.9050 C.3     1  UNL1        0.0887
     12 N         -24.7580   -1.4810   32.6460 N.3     1  UNL1       -0.2190
     13 C         -25.6880    1.6140   26.4610 C.3     1  UNL1        0.0953
     14 C         -26.2500    2.9200   26.3950 C.2     1  UNL1        0.0590
     15 C         -25.6420    4.0930   27.1230 C.2     1  UNL1        0.2628
     16 N         -25.6140    5.2520   26.4490 N.am    1  UNL1       -0.2000
     17 C         -25.0260    6.4790   26.9630 C.3     1  UNL1        0.1388
     18 O         -25.1430    3.9660   28.2430 O.2     1  UNL1       -0.2686
     19 C         -27.4380    3.0910   25.6450 C.2     1  UNL1        0.1025
     20 N         -28.0750    2.0890   25.0030 N.2     1  UNL1       -0.2118
     21 C         -27.5430    0.8490   25.0790 C.2     1  UNL1        0.2344
     22 O         -28.1930   -0.2080   24.4770 O.2     1  UNL1       -0.4585
     23 C         -29.4600    0.0050   23.8660 C.3     1  UNL1        0.2423
     24 C         -30.0650   -1.3770   23.5730 C.3     1  UNL1        0.2292
     25 O         -30.7290   -1.8780   24.7210 O.3     1  UNL1       -0.2162
     26 C         -26.3540    0.5760   25.7770 C.3     1  UNL1        0.2441
     27 F         -25.8600   -0.6810   25.7950 F       1  UNL1       -0.2265
     28 C         -22.3454    1.1128   28.0644 C.2     1  UNL1        0.1226
     29 N         -21.8571    0.4285   29.2101 N.pl3   1  UNL1       -0.1249
     30 C         -24.8446    4.2351   33.1495 C.3     1  UNL1        0.1742
     31 O         -25.3389    3.7510   31.0171 O.3     1  UNL1       -0.3484
     32 C         -26.7668    0.3002   29.3455 C.3     1  UNL1        0.1859
     33 C         -21.4576    1.5700   27.0662 C.2     1  UNL1        0.0211
     34 C         -21.9856    2.0614   25.8605 C.2     1  UNL1        0.0013
     35 C         -23.7340    1.2698   27.8882 C.2     1  UNL1        0.1514
     36 C         -27.0273    4.2453   32.4771 C.3     1  UNL1        0.1742
     37 C         -24.2557    1.6372   26.6406 C.2     1  UNL1        0.0203
     38 C         -23.3861    2.0915   25.6154 C.2     1  UNL1       -0.0008
     39 C         -27.5422    2.7413   30.5360 C.3     1  UNL1        0.1743
     40 C         -25.3270   -0.1176   29.0246 C.3     1  UNL1        0.2006
     41 O         -27.0459    1.6051   29.7870 O.3     1  UNL1       -0.3473
     42 C         -26.6647    3.9114   31.0806 C.3     1  UNL1        0.1742
     43 C         -24.6837    4.5952   31.7153 C.3     1  UNL1        0.1742
     44 O         -24.5261    1.0429   28.9259 O.2     1  UNL1       -0.4751
     45 O         -26.1994    4.0372   33.3931 O.3     1  UNL1       -0.3484
@<TRIPOS>BOND
     1     1    40    1
     2     2     7    1
     3     2     1    1
     4     3     2    2
     5     4     3    1
     6     4     5    2
     7     5     6    1
     8     6     7    2
     9     8     1    1
    10     8     9    1
    11     8    12    1
    12     9    10    1
    13    10    11    1
    14    12    11    1
    15    13    37    1
    16    14    13    1
    17    14    15    1
    18    15    18    2
    19    16    17    1
    20    16    15    1
    21    19    14    2
    22    20    21    2
    23    20    19    1
    24    21    26    1
    25    22    21    1
    26    23    22    1
    27    24    23    1
    28    24    25    1
    29    26    27    1
    30    26    13    1
    31    28    29    1
    32    30    45    1
    33    31    42    1
    34    31    43    1
    35    32    41    1
    36    33    28    2
    37    34    33    1
    38    35    28    1
    39    35    44    1
    40    36    45    1
    41    37    35    2
    42    38    34    2
    43    38    37    1
    44    40    32    1
    45    41    39    1
    46    42    39    1
    47    42    36    1
    48    43    30    1
    49    44    40    1
