@<TRIPOS>MOLECULE
outputs/IAG933/test6/raw/output_9137_IAG933_linker_design_.xyz
 44 48 0 0 0
SMALL
GASTEIGER

@<TRIPOS>ATOM
      1 C         -24.8550   -1.0120   30.1430 C.3     1  UNL1        0.0492
      2 C         -24.9730   -2.5050   29.7880 C.2     1  UNL1       -0.0204
      3 C         -23.9060   -3.1730   29.1460 C.2     1  UNL1       -0.0042
      4 C         -23.9890   -4.5490   28.8530 C.2     1  UNL1       -0.0003
      5 C         -25.1370   -5.2800   29.2050 C.2     1  UNL1       -0.0000
      6 C         -26.2320   -4.6110   29.7840 C.2     1  UNL1       -0.0003
      7 C         -26.1550   -3.2320   30.0650 C.2     1  UNL1       -0.0042
      8 C         -25.3870   -0.6790   31.5710 C.3     1  UNL1        0.0775
      9 C         -25.1890    0.7730   32.0280 C.3     1  UNL1        0.0192
     10 C         -25.3360    0.6840   33.5440 C.3     1  UNL1        0.0202
     11 C         -24.8290   -0.7150   33.9050 C.3     1  UNL1        0.0887
     12 N         -24.7580   -1.4810   32.6460 N.3     1  UNL1       -0.2191
     13 C         -25.6880    1.6140   26.4610 C.2     1  UNL1        0.0384
     14 C         -26.2500    2.9200   26.3950 C.2     1  UNL1        0.0765
     15 C         -25.6420    4.0930   27.1230 C.2     1  UNL1        0.2664
     16 N         -25.6140    5.2520   26.4490 N.am    1  UNL1       -0.1997
     17 C         -25.0260    6.4790   26.9630 C.3     1  UNL1        0.1388
     18 O         -25.1430    3.9660   28.2430 O.2     1  UNL1       -0.2683
     19 C         -27.4380    3.0910   25.6450 C.2     1  UNL1        0.1067
     20 N         -28.0750    2.0890   25.0030 N.2     1  UNL1       -0.2081
     21 C         -27.5430    0.8490   25.0790 C.2     1  UNL1        0.2533
     22 O         -28.1930   -0.2080   24.4770 O.2     1  UNL1       -0.4558
     23 C         -29.4600    0.0050   23.8660 C.3     1  UNL1        0.2426
     24 C         -30.0650   -1.3770   23.5730 C.3     1  UNL1        0.2292
     25 O         -30.7290   -1.8780   24.7210 O.3     1  UNL1       -0.2162
     26 C         -26.3540    0.5760   25.7770 C.2     1  UNL1        0.1931
     27 F         -25.8600   -0.6810   25.7950 F       1  UNL1       -0.1992
     28 C         -28.2345   -0.1839   29.2577 C.2     1  UNL1        0.0282
     29 O         -27.1160    1.6696   28.9787 O.2     1  UNL1       -0.4746
     30 C         -31.4152    0.0411   31.0685 C.3     1  UNL1        0.0047
     31 C         -30.7355   -0.0937   29.6875 C.3     1  UNL1        0.0222
     32 CL        -22.8031    2.5204   25.5864 Cl      1  UNL1       -0.0803
     33 C         -29.4245    0.5253   29.5671 C.2     1  UNL1       -0.0205
     34 C         -24.4892    0.3931   28.2847 C.2     1  UNL1       -0.0294
     35 C         -23.1393    0.2852   28.6367 C.3     1  UNL1        0.0798
     36 C         -25.5983   -0.1499   29.0864 C.3     1  UNL1        0.0809
     37 F         -20.9885    1.4257   27.6743 F       1  UNL1       -0.2076
     38 C         -31.7537    0.3313   28.6456 C.3     1  UNL1        0.0047
     39 C         -22.3543    1.1015   27.7278 C.2     1  UNL1        0.1321
     40 C         -24.6133    1.1619   27.2062 C.2     1  UNL1        0.0079
     41 C         -28.0101    2.3670   29.6260 C.3     1  UNL1        0.2310
     42 C         -29.2862    1.8829   29.7676 C.2     1  UNL1        0.0165
     43 C         -23.3054    1.6398   26.8564 C.2     1  UNL1        0.0807
     44 C         -26.9550    0.3918   29.1176 C.2     1  UNL1        0.1199
@<TRIPOS>BOND
     1     1    36    1
     2     2     7    1
     3     2     1    1
     4     3     2    2
     5     4     3    1
     6     4     5    2
     7     5     6    1
     8     6     7    2
     9     8     1    1
    10     8     9    1
    11     8    12    1
    12     9    10    1
    13    10    11    1
    14    12    11    1
    15    13    40    1
    16    14    13    1
    17    14    15    1
    18    15    18    2
    19    16    17    1
    20    16    15    1
    21    19    14    2
    22    20    21    2
    23    20    19    1
    24    21    26    1
    25    22    21    1
    26    23    22    1
    27    24    23    1
    28    24    25    1
    29    26    27    1
    30    26    13    2
    31    28    33    1
    32    29    44    1
    33    29    41    1
    34    31    30    1
    35    32    43    1
    36    33    31    1
    37    33    42    2
    38    34    35    1
    39    36    34    1
    40    36    44    1
    41    37    39    1
    42    38    31    1
    43    39    35    1
    44    40    34    2
    45    41    42    1
    46    43    40    1
    47    43    39    2
    48    44    28    2
