@<TRIPOS>MOLECULE
outputs/IAG933/test6/raw/output_9139_IAG933_linker_design_.xyz
 42 45 0 0 0
SMALL
GASTEIGER

@<TRIPOS>ATOM
      1 C         -24.8550   -1.0120   30.1430 C.3     1  UNL1        0.1140
      2 C         -24.9730   -2.5050   29.7880 C.2     1  UNL1       -0.0029
      3 C         -23.9060   -3.1730   29.1460 C.2     1  UNL1       -0.0026
      4 C         -23.9890   -4.5490   28.8530 C.2     1  UNL1       -0.0003
      5 C         -25.1370   -5.2800   29.2050 C.2     1  UNL1       -0.0000
      6 C         -26.2320   -4.6110   29.7840 C.2     1  UNL1       -0.0003
      7 C         -26.1550   -3.2320   30.0650 C.2     1  UNL1       -0.0026
      8 C         -25.3870   -0.6790   31.5710 C.3     1  UNL1        0.0951
      9 C         -25.1890    0.7730   32.0280 C.3     1  UNL1        0.0209
     10 C         -25.3360    0.6840   33.5440 C.3     1  UNL1        0.0203
     11 C         -24.8290   -0.7150   33.9050 C.3     1  UNL1        0.0888
     12 N         -24.7580   -1.4810   32.6460 N.3     1  UNL1       -0.2174
     13 C         -25.6880    1.6140   26.4610 C.3     1  UNL1        0.0925
     14 C         -26.2500    2.9200   26.3950 C.2     1  UNL1        0.0568
     15 C         -25.6420    4.0930   27.1230 C.2     1  UNL1        0.2625
     16 N         -25.6140    5.2520   26.4490 N.am    1  UNL1       -0.2000
     17 C         -25.0260    6.4790   26.9630 C.3     1  UNL1        0.1388
     18 O         -25.1430    3.9660   28.2430 O.2     1  UNL1       -0.2687
     19 C         -27.4380    3.0910   25.6450 C.2     1  UNL1        0.1022
     20 N         -28.0750    2.0890   25.0030 N.2     1  UNL1       -0.2119
     21 C         -27.5430    0.8490   25.0790 C.2     1  UNL1        0.2341
     22 O         -28.1930   -0.2080   24.4770 O.2     1  UNL1       -0.4585
     23 C         -29.4600    0.0050   23.8660 C.3     1  UNL1        0.2423
     24 C         -30.0650   -1.3770   23.5730 C.3     1  UNL1        0.2292
     25 O         -30.7290   -1.8780   24.7210 O.3     1  UNL1       -0.2162
     26 C         -26.3540    0.5760   25.7770 C.3     1  UNL1        0.2419
     27 F         -25.8600   -0.6810   25.7950 F       1  UNL1       -0.2268
     28 O         -27.6462   -0.6052   28.8451 O.2     1  UNL1       -0.2748
     29 C         -21.3667    0.8726   28.4979 C.2     1  UNL1       -0.0003
     30 C         -23.2049    1.8970   26.6593 C.2     1  UNL1       -0.0027
     31 C         -20.9694    1.6762   27.4392 C.2     1  UNL1       -0.0000
     32 O         -29.0768    4.1260   29.6511 O.2     1  UNL1       -0.2716
     33 C         -22.7416    0.5780   28.6974 C.2     1  UNL1       -0.0027
     34 C         -25.1097    0.9493   27.8432 C.3     1  UNL1        0.1055
     35 C         -23.6571    1.1475   27.7545 C.2     1  UNL1       -0.0038
     36 C         -28.8719    3.3832   30.5394 C.2     1  UNL1        0.2612
     37 N         -28.8563    3.7235   31.7932 N.am    1  UNL1       -0.0878
     38 N         -25.4370   -0.0495   28.9945 N.am    1  UNL1       -0.2735
     39 C         -28.6450    1.8574   30.1909 C.3     1  UNL1        0.0981
     40 C         -21.8474    2.1567   26.5008 C.2     1  UNL1       -0.0003
     41 C         -26.8557    0.1865   29.2010 C.2     1  UNL1        0.2266
     42 C         -27.2048    1.5997   29.8054 C.3     1  UNL1        0.0950
@<TRIPOS>BOND
     1     1    38    1
     2     2     7    1
     3     2     1    1
     4     3     2    2
     5     4     3    1
     6     4     5    2
     7     5     6    1
     8     6     7    2
     9     8     1    1
    10     8     9    1
    11     8    12    1
    12     9    10    1
    13    10    11    1
    14    12    11    1
    15    13    34    1
    16    14    13    1
    17    14    15    1
    18    15    18    2
    19    16    17    1
    20    16    15    1
    21    19    14    2
    22    20    21    2
    23    20    19    1
    24    21    26    1
    25    22    21    1
    26    23    22    1
    27    24    23    1
    28    24    25    1
    29    26    27    1
    30    26    13    1
    31    28    41    2
    32    29    33    1
    33    30    35    1
    34    31    29    2
    35    32    36    2
    36    34    38    1
    37    35    34    1
    38    35    33    2
    39    36    37    1
    40    38    41   am
    41    39    36    1
    42    40    30    2
    43    40    31    1
    44    41    42    1
    45    42    39    1
