@<TRIPOS>MOLECULE
outputs/IAG933/test6/raw/output_914_IAG933_linker_design_.xyz
 43 47 0 0 0
SMALL
GASTEIGER

@<TRIPOS>ATOM
      1 C         -24.8550   -1.0120   30.1430 C.3     1  UNL1        0.0603
      2 C         -24.9730   -2.5050   29.7880 C.2     1  UNL1       -0.0171
      3 C         -23.9060   -3.1730   29.1460 C.2     1  UNL1       -0.0039
      4 C         -23.9890   -4.5490   28.8530 C.2     1  UNL1       -0.0003
      5 C         -25.1370   -5.2800   29.2050 C.2     1  UNL1       -0.0000
      6 C         -26.2320   -4.6110   29.7840 C.2     1  UNL1       -0.0003
      7 C         -26.1550   -3.2320   30.0650 C.2     1  UNL1       -0.0039
      8 C         -25.3870   -0.6790   31.5710 C.3     1  UNL1        0.0808
      9 C         -25.1890    0.7730   32.0280 C.3     1  UNL1        0.0195
     10 C         -25.3360    0.6840   33.5440 C.3     1  UNL1        0.0203
     11 C         -24.8290   -0.7150   33.9050 C.3     1  UNL1        0.0887
     12 N         -24.7580   -1.4810   32.6460 N.3     1  UNL1       -0.2188
     13 C         -25.6880    1.6140   26.4610 C.3     1  UNL1        0.0951
     14 C         -26.2500    2.9200   26.3950 C.2     1  UNL1        0.0590
     15 C         -25.6420    4.0930   27.1230 C.2     1  UNL1        0.2628
     16 N         -25.6140    5.2520   26.4490 N.am    1  UNL1       -0.2000
     17 C         -25.0260    6.4790   26.9630 C.3     1  UNL1        0.1388
     18 O         -25.1430    3.9660   28.2430 O.2     1  UNL1       -0.2686
     19 C         -27.4380    3.0910   25.6450 C.2     1  UNL1        0.1025
     20 N         -28.0750    2.0890   25.0030 N.2     1  UNL1       -0.2118
     21 C         -27.5430    0.8490   25.0790 C.2     1  UNL1        0.2344
     22 O         -28.1930   -0.2080   24.4770 O.2     1  UNL1       -0.4585
     23 C         -29.4600    0.0050   23.8660 C.3     1  UNL1        0.2423
     24 C         -30.0650   -1.3770   23.5730 C.3     1  UNL1        0.2292
     25 O         -30.7290   -1.8780   24.7210 O.3     1  UNL1       -0.2162
     26 C         -26.3540    0.5760   25.7770 C.3     1  UNL1        0.2441
     27 F         -25.8600   -0.6810   25.7950 F       1  UNL1       -0.2265
     28 C         -22.9380    0.1614   29.3224 C.2     1  UNL1        0.0181
     29 N         -28.2468    1.6250   29.0373 N.am    1  UNL1       -0.1445
     30 O         -29.6284    3.4294   28.1721 O.2     1  UNL1       -0.2729
     31 O         -22.8368    2.0000   26.2221 O.2     1  UNL1       -0.4315
     32 C         -24.8067    1.0419   27.4221 C.2     1  UNL1        0.0173
     33 C         -23.4526    1.2799   27.2003 C.2     1  UNL1        0.1609
     34 C         -29.3973    2.4053   28.9349 C.2     1  UNL1        0.2484
     35 C         -25.3544    0.3863   28.5619 C.2     1  UNL1       -0.0172
     36 C         -21.4929    1.8681   26.4593 C.2     1  UNL1        0.2851
     37 C         -26.7563   -0.2087   28.4873 C.3     1  UNL1        0.1130
     38 C         -22.5649    0.7915   28.0972 C.2     1  UNL1        0.1184
     39 C         -30.5046    1.9862   29.6542 C.3     1  UNL1        0.0969
     40 O         -29.0750   -0.0360   27.8176 O.2     1  UNL1       -0.2725
     41 N         -21.3287    1.0865   27.6383 N.2     1  UNL1       -0.2043
     42 C         -28.2070    0.4042   28.4307 C.2     1  UNL1        0.2523
     43 C         -24.4050   -0.1200   29.4138 C.2     1  UNL1       -0.0191
@<TRIPOS>BOND
     1     1    43    1
     2     2     7    1
     3     2     1    1
     4     3     2    2
     5     4     3    1
     6     4     5    2
     7     5     6    1
     8     6     7    2
     9     8     1    1
    10     8     9    1
    11     8    12    1
    12     9    10    1
    13    10    11    1
    14    12    11    1
    15    13    32    1
    16    14    13    1
    17    14    15    1
    18    15    18    2
    19    16    17    1
    20    16    15    1
    21    19    14    2
    22    20    21    2
    23    20    19    1
    24    21    26    1
    25    22    21    1
    26    23    22    1
    27    24    23    1
    28    24    25    1
    29    26    27    1
    30    26    13    1
    31    28    43    1
    32    30    34    2
    33    31    36    1
    34    31    33    1
    35    32    35    1
    36    33    32    2
    37    33    38    1
    38    34    29    1
    39    34    39    1
    40    35    43    2
    41    36    41    2
    42    37    35    1
    43    38    28    2
    44    40    42    2
    45    41    38    1
    46    42    37    1
    47    42    29    1
