@<TRIPOS>MOLECULE
outputs/IAG933/test6/raw/output_9140_IAG933_linker_design_.xyz
 42 46 0 0 0
SMALL
GASTEIGER

@<TRIPOS>ATOM
      1 C         -24.8550   -1.0120   30.1430 C.3     1  UNL1        0.0401
      2 C         -24.9730   -2.5050   29.7880 C.2     1  UNL1       -0.0211
      3 C         -23.9060   -3.1730   29.1460 C.2     1  UNL1       -0.0042
      4 C         -23.9890   -4.5490   28.8530 C.2     1  UNL1       -0.0003
      5 C         -25.1370   -5.2800   29.2050 C.2     1  UNL1       -0.0000
      6 C         -26.2320   -4.6110   29.7840 C.2     1  UNL1       -0.0003
      7 C         -26.1550   -3.2320   30.0650 C.2     1  UNL1       -0.0042
      8 C         -25.3870   -0.6790   31.5710 C.3     1  UNL1        0.0782
      9 C         -25.1890    0.7730   32.0280 C.3     1  UNL1        0.0338
     10 C         -25.3360    0.6840   33.5440 C.3     1  UNL1        0.0216
     11 C         -24.8290   -0.7150   33.9050 C.3     1  UNL1        0.0887
     12 N         -24.7580   -1.4810   32.6460 N.3     1  UNL1       -0.2191
     13 C         -25.6880    1.6140   26.4610 C.3     1  UNL1        0.0952
     14 C         -26.2500    2.9200   26.3950 C.2     1  UNL1        0.0590
     15 C         -25.6420    4.0930   27.1230 C.2     1  UNL1        0.2628
     16 N         -25.6140    5.2520   26.4490 N.am    1  UNL1       -0.2000
     17 C         -25.0260    6.4790   26.9630 C.3     1  UNL1        0.1388
     18 O         -25.1430    3.9660   28.2430 O.2     1  UNL1       -0.2686
     19 C         -27.4380    3.0910   25.6450 C.2     1  UNL1        0.1025
     20 N         -28.0750    2.0890   25.0030 N.2     1  UNL1       -0.2118
     21 C         -27.5430    0.8490   25.0790 C.2     1  UNL1        0.2344
     22 O         -28.1930   -0.2080   24.4770 O.2     1  UNL1       -0.4585
     23 C         -29.4600    0.0050   23.8660 C.3     1  UNL1        0.2423
     24 C         -30.0650   -1.3770   23.5730 C.3     1  UNL1        0.2292
     25 O         -30.7290   -1.8780   24.7210 O.3     1  UNL1       -0.2162
     26 C         -26.3540    0.5760   25.7770 C.3     1  UNL1        0.2441
     27 F         -25.8600   -0.6810   25.7950 F       1  UNL1       -0.2265
     28 C         -23.3865    1.8616   25.6278 C.2     1  UNL1        0.1755
     29 N         -24.3483    1.8070   29.8937 N.3     1  UNL1       -0.2163
     30 C         -25.5232    3.7508   32.1910 C.3     1  UNL1        0.0883
     31 C         -24.2233    1.7041   31.3176 C.3     1  UNL1        0.0749
     32 C         -24.1931    7.1577   32.7691 C.3     1  UNL1        0.1385
     33 N         -24.9024    5.8391   33.0047 N.am    1  UNL1       -0.2035
     34 O         -24.8950    5.5436   30.7388 O.2     1  UNL1       -0.2733
     35 C         -22.0753    1.4008   27.3972 C.2     1  UNL1        0.1764
     36 C         -23.4408    1.1975   27.7789 C.2     1  UNL1        0.0306
     37 C         -24.4001    3.1595   31.6681 C.3     1  UNL1        0.0271
     38 O         -22.1416    1.8162   26.0492 O.2     1  UNL1       -0.4480
     39 C         -25.2808   -0.1984   28.9612 C.3     1  UNL1        0.0277
     40 C         -24.2196    1.5002   26.6860 C.2     1  UNL1        0.0229
     41 C         -25.1286    5.1501   31.8597 C.2     1  UNL1        0.2415
     42 C         -24.0022    0.6602   29.0569 C.3     1  UNL1        0.0981
@<TRIPOS>BOND
     1     1     2    1
     2     1     8    1
     3     2     7    1
     4     3     2    2
     5     4     3    1
     6     4     5    2
     7     5     6    1
     8     6     7    2
     9     8     9    1
    10     8    12    1
    11     9    10    1
    12    10    11    1
    13    12    11    1
    14    13    40    1
    15    14    13    1
    16    14    15    1
    17    15    18    2
    18    16    17    1
    19    16    15    1
    20    19    14    2
    21    20    21    2
    22    20    19    1
    23    21    26    1
    24    22    21    1
    25    23    22    1
    26    24    23    1
    27    24    25    1
    28    26    27    1
    29    26    13    1
    30    28    38    1
    31    28    40    2
    32    29    31    1
    33    31    37    1
    34    31     9    1
    35    32    33    1
    36    34    41    2
    37    35    36    2
    38    37    30    1
    39    38    35    1
    40    39    42    1
    41    39     1    1
    42    40    36    1
    43    41    30    1
    44    41    33    1
    45    42    36    1
    46    42    29    1
