@<TRIPOS>MOLECULE
outputs/IAG933/test6/raw/output_9146_IAG933_linker_design_.xyz
 41 44 0 0 0
SMALL
GASTEIGER

@<TRIPOS>ATOM
      1 C         -24.8550   -1.0120   30.1430 C.3     1  UNL1        0.0600
      2 C         -24.9730   -2.5050   29.7880 C.2     1  UNL1       -0.0194
      3 C         -23.9060   -3.1730   29.1460 C.2     1  UNL1       -0.0042
      4 C         -23.9890   -4.5490   28.8530 C.2     1  UNL1       -0.0003
      5 C         -25.1370   -5.2800   29.2050 C.2     1  UNL1       -0.0000
      6 C         -26.2320   -4.6110   29.7840 C.2     1  UNL1       -0.0003
      7 C         -26.1550   -3.2320   30.0650 C.2     1  UNL1       -0.0042
      8 C         -25.3870   -0.6790   31.5710 C.3     1  UNL1        0.0785
      9 C         -25.1890    0.7730   32.0280 C.3     1  UNL1        0.0192
     10 C         -25.3360    0.6840   33.5440 C.3     1  UNL1        0.0202
     11 C         -24.8290   -0.7150   33.9050 C.3     1  UNL1        0.0887
     12 N         -24.7580   -1.4810   32.6460 N.3     1  UNL1       -0.2191
     13 C         -25.6880    1.6140   26.4610 C.3     1  UNL1        0.0866
     14 C         -26.2500    2.9200   26.3950 C.2     1  UNL1        0.0562
     15 C         -25.6420    4.0930   27.1230 C.2     1  UNL1        0.2625
     16 N         -25.6140    5.2520   26.4490 N.am    1  UNL1       -0.2000
     17 C         -25.0260    6.4790   26.9630 C.3     1  UNL1        0.1388
     18 O         -25.1430    3.9660   28.2430 O.2     1  UNL1       -0.2687
     19 C         -27.4380    3.0910   25.6450 C.2     1  UNL1        0.1022
     20 N         -28.0750    2.0890   25.0030 N.2     1  UNL1       -0.2119
     21 C         -27.5430    0.8490   25.0790 C.2     1  UNL1        0.2341
     22 O         -28.1930   -0.2080   24.4770 O.2     1  UNL1       -0.4585
     23 C         -29.4600    0.0050   23.8660 C.3     1  UNL1        0.2423
     24 C         -30.0650   -1.3770   23.5730 C.3     1  UNL1        0.2292
     25 O         -30.7290   -1.8780   24.7210 O.3     1  UNL1       -0.2162
     26 C         -26.3540    0.5760   25.7770 C.3     1  UNL1        0.2414
     27 F         -25.8600   -0.6810   25.7950 F       1  UNL1       -0.2268
     28 C         -23.5506    0.8562   27.1193 C.3     1  UNL1        0.0992
     29 C         -29.8713   -0.5310   29.3752 C.2     1  UNL1        0.0147
     30 C         -27.2222   -0.5142   28.9342 C.2     1  UNL1        0.0747
     31 O         -22.2635    0.4282   28.9715 O.2     1  UNL1       -0.2788
     32 C         -29.2773   -1.7053   28.9580 C.2     1  UNL1        0.0025
     33 C         -24.7798    1.3336   27.5430 C.3     1  UNL1        0.0891
     34 N         -27.8507    0.6602   29.0427 N.2     1  UNL1       -0.2526
     35 N         -25.2935    0.9938   28.8019 N.3     1  UNL1       -0.2136
     36 C         -27.9536   -1.7195   28.6468 C.2     1  UNL1        0.0161
     37 CL        -21.1812    1.6767   26.9430 Cl      1  UNL1       -0.0427
     38 C         -29.8376    1.9063   29.4487 C.3     1  UNL1        0.0521
     39 C         -22.3933    0.9020   27.8123 C.2     1  UNL1        0.2320
     40 C         -25.7118   -0.2083   29.2245 C.3     1  UNL1        0.1178
     41 C         -29.1640    0.6523   29.3128 C.2     1  UNL1        0.0590
@<TRIPOS>BOND
     1     1    40    1
     2     2     7    1
     3     2     1    1
     4     3     2    2
     5     4     3    1
     6     4     5    2
     7     5     6    1
     8     6     7    2
     9     8     1    1
    10     8     9    1
    11     8    12    1
    12     9    10    1
    13    10    11    1
    14    12    11    1
    15    13    33    1
    16    14    13    1
    17    14    15    1
    18    15    18    2
    19    16    17    1
    20    16    15    1
    21    19    14    2
    22    20    21    2
    23    20    19    1
    24    21    26    1
    25    22    21    1
    26    23    22    1
    27    24    23    1
    28    24    25    1
    29    26    27    1
    30    26    13    1
    31    28    39    1
    32    30    34    1
    33    30    40    1
    34    32    29    2
    35    33    28    1
    36    33    35    1
    37    34    41    2
    38    36    30    2
    39    36    32    1
    40    37    39    1
    41    39    31    2
    42    40    35    1
    43    41    29    1
    44    41    38    1
