@<TRIPOS>MOLECULE
outputs/IAG933/test6/raw/output_9149_IAG933_linker_design_.xyz
 42 46 0 0 0
SMALL
GASTEIGER

@<TRIPOS>ATOM
      1 C         -24.8550   -1.0120   30.1430 C.3     1  UNL1        0.0547
      2 C         -24.9730   -2.5050   29.7880 C.2     1  UNL1       -0.0198
      3 C         -23.9060   -3.1730   29.1460 C.2     1  UNL1       -0.0042
      4 C         -23.9890   -4.5490   28.8530 C.2     1  UNL1       -0.0003
      5 C         -25.1370   -5.2800   29.2050 C.2     1  UNL1       -0.0000
      6 C         -26.2320   -4.6110   29.7840 C.2     1  UNL1       -0.0003
      7 C         -26.1550   -3.2320   30.0650 C.2     1  UNL1       -0.0042
      8 C         -25.3870   -0.6790   31.5710 C.3     1  UNL1        0.0782
      9 C         -25.1890    0.7730   32.0280 C.3     1  UNL1        0.0192
     10 C         -25.3360    0.6840   33.5440 C.3     1  UNL1        0.0202
     11 C         -24.8290   -0.7150   33.9050 C.3     1  UNL1        0.0887
     12 N         -24.7580   -1.4810   32.6460 N.3     1  UNL1       -0.2191
     13 C         -25.6880    1.6140   26.4610 C.2     1  UNL1        0.0159
     14 C         -26.2500    2.9200   26.3950 C.2     1  UNL1        0.0726
     15 C         -25.6420    4.0930   27.1230 C.2     1  UNL1        0.2661
     16 N         -25.6140    5.2520   26.4490 N.am    1  UNL1       -0.1997
     17 C         -25.0260    6.4790   26.9630 C.3     1  UNL1        0.1388
     18 O         -25.1430    3.9660   28.2430 O.2     1  UNL1       -0.2683
     19 C         -27.4380    3.0910   25.6450 C.2     1  UNL1        0.1064
     20 N         -28.0750    2.0890   25.0030 N.2     1  UNL1       -0.2081
     21 C         -27.5430    0.8490   25.0790 C.2     1  UNL1        0.2530
     22 O         -28.1930   -0.2080   24.4770 O.2     1  UNL1       -0.4558
     23 C         -29.4600    0.0050   23.8660 C.3     1  UNL1        0.2426
     24 C         -30.0650   -1.3770   23.5730 C.3     1  UNL1        0.2292
     25 O         -30.7290   -1.8780   24.7210 O.3     1  UNL1       -0.2162
     26 C         -26.3540    0.5760   25.7770 C.2     1  UNL1        0.1891
     27 F         -25.8600   -0.6810   25.7950 F       1  UNL1       -0.1996
     28 N         -27.8470   -0.7128   30.0882 N.pl3   1  UNL1       -0.1639
     29 C         -31.1947   -2.4856   30.7123 C.2     1  UNL1        0.0014
     30 C         -29.8910   -2.0574   31.0157 C.2     1  UNL1        0.0174
     31 C         -24.5350    0.7919   28.4472 C.3     1  UNL1        0.0212
     32 C         -28.8212   -0.2312   28.0896 C.3     1  UNL1        0.1213
     33 C         -22.2723    1.7397   28.5148 C.3     1  UNL1        0.0001
     34 C         -31.8063   -2.0474   29.5209 C.2     1  UNL1       -0.0002
     35 C         -31.1020   -1.2316   28.6377 C.2     1  UNL1       -0.0015
     36 C         -23.0916    0.4908   28.8400 C.3     1  UNL1        0.0017
     37 C         -25.5982   -0.2369   28.9714 C.3     1  UNL1        0.0835
     38 N         -27.2954   -0.2784   28.8186 N.3     1  UNL1       -0.1836
     39 C         -24.4461    1.2604   26.9946 C.3     1  UNL1        0.0304
     40 C         -29.1808   -1.2943   30.0374 C.2     1  UNL1        0.0812
     41 C         -21.7639    1.7594   27.0754 C.3     1  UNL1        0.0000
     42 C         -29.7754   -0.9020   28.9007 C.2     1  UNL1        0.0120
@<TRIPOS>BOND
     1     1    37    1
     2     2     7    1
     3     2     1    1
     4     3     2    2
     5     4     3    1
     6     4     5    2
     7     5     6    1
     8     6     7    2
     9     8     1    1
    10     8     9    1
    11     8    12    1
    12     9    10    1
    13    10    11    1
    14    12    11    1
    15    13    39    1
    16    14    13    1
    17    14    15    1
    18    15    18    2
    19    16    17    1
    20    16    15    1
    21    19    14    2
    22    20    21    2
    23    20    19    1
    24    21    26    1
    25    22    21    1
    26    23    22    1
    27    24    23    1
    28    24    25    1
    29    26    27    1
    30    26    13    2
    31    29    30    1
    32    31    39    1
    33    31    36    1
    34    32    38    1
    35    32    42    1
    36    33    36    1
    37    34    29    2
    38    35    42    2
    39    35    34    1
    40    37    31    1
    41    38    37    1
    42    38    28    1
    43    40    28    1
    44    40    30    2
    45    41    33    1
    46    42    40    1
