@<TRIPOS>MOLECULE
outputs/IAG933/test6/raw/output_9156_IAG933_linker_design_.xyz
 45 48 0 0 0
SMALL
GASTEIGER

@<TRIPOS>ATOM
      1 C         -24.8550   -1.0120   30.1430 C.3     1  UNL1        0.1248
      2 C         -24.9730   -2.5050   29.7880 C.2     1  UNL1       -0.0004
      3 C         -23.9060   -3.1730   29.1460 C.2     1  UNL1       -0.0024
      4 C         -23.9890   -4.5490   28.8530 C.2     1  UNL1       -0.0003
      5 C         -25.1370   -5.2800   29.2050 C.2     1  UNL1       -0.0000
      6 C         -26.2320   -4.6110   29.7840 C.2     1  UNL1       -0.0003
      7 C         -26.1550   -3.2320   30.0650 C.2     1  UNL1       -0.0024
      8 C         -25.3870   -0.6790   31.5710 C.3     1  UNL1        0.0977
      9 C         -25.1890    0.7730   32.0280 C.3     1  UNL1        0.0211
     10 C         -25.3360    0.6840   33.5440 C.3     1  UNL1        0.0203
     11 C         -24.8290   -0.7150   33.9050 C.3     1  UNL1        0.0888
     12 N         -24.7580   -1.4810   32.6460 N.3     1  UNL1       -0.2172
     13 C         -25.6880    1.6140   26.4610 C.3     1  UNL1        0.0981
     14 C         -26.2500    2.9200   26.3950 C.2     1  UNL1        0.0591
     15 C         -25.6420    4.0930   27.1230 C.2     1  UNL1        0.2628
     16 N         -25.6140    5.2520   26.4490 N.am    1  UNL1       -0.2000
     17 C         -25.0260    6.4790   26.9630 C.3     1  UNL1        0.1388
     18 O         -25.1430    3.9660   28.2430 O.2     1  UNL1       -0.2686
     19 C         -27.4380    3.0910   25.6450 C.2     1  UNL1        0.1025
     20 N         -28.0750    2.0890   25.0030 N.2     1  UNL1       -0.2118
     21 C         -27.5430    0.8490   25.0790 C.2     1  UNL1        0.2344
     22 O         -28.1930   -0.2080   24.4770 O.2     1  UNL1       -0.4585
     23 C         -29.4600    0.0050   23.8660 C.3     1  UNL1        0.2423
     24 C         -30.0650   -1.3770   23.5730 C.3     1  UNL1        0.2292
     25 O         -30.7290   -1.8780   24.7210 O.3     1  UNL1       -0.2162
     26 C         -26.3540    0.5760   25.7770 C.3     1  UNL1        0.2442
     27 F         -25.8600   -0.6810   25.7950 F       1  UNL1       -0.2265
     28 C         -23.2875    0.3894   28.6426 C.ar    1  UNL1        0.0721
     29 C         -21.7772    0.1451   28.9293 C.3     1  UNL1        0.0470
     30 C         -20.7067    0.9632   28.2457 C.3     1  UNL1        0.0067
     31 N         -26.8529    0.0307   28.5778 N.am    1  UNL1       -0.1622
     32 C         -28.1541   -0.1485   29.0954 C.2     1  UNL1        0.2483
     33 N         -24.4860   -0.1700   29.1737 N.ar    1  UNL1       -0.3122
     34 C         -25.5169    0.3041   28.3853 C.ar    1  UNL1        0.1351
     35 C         -29.5462   -0.6321   31.0672 C.3     1  UNL1        0.0983
     36 C         -23.5898    1.2424   27.5861 C.ar    1  UNL1        0.1493
     37 C         -22.9990    2.5837   25.6012 C.3     1  UNL1        0.2525
     38 C         -31.9392    2.1875   31.1306 C.3     1  UNL1        0.0188
     39 O         -28.8579   -0.7201   28.2820 O.2     1  UNL1       -0.2729
     40 C         -28.5718    0.2500   30.4396 C.3     1  UNL1        0.1060
     41 O         -22.6704    2.0360   26.8882 O.3     1  UNL1       -0.4705
     42 C         -29.7709    1.9767   29.8704 C.3     1  UNL1        0.0188
     43 C         -24.9063    1.2023   27.4510 C.ar    1  UNL1        0.0517
     44 N         -30.4828    0.3886   31.5860 N.3     1  UNL1       -0.2189
     45 C         -30.9314    1.2204   30.4643 C.3     1  UNL1        0.0729
@<TRIPOS>BOND
     1     1     2    1
     2     2     7    1
     3     3     2    2
     4     4     3    1
     5     4     5    2
     6     5     6    1
     7     6     7    2
     8     8     1    1
     9     8     9    1
    10     8    12    1
    11     9    10    1
    12    10    11    1
    13    12    11    1
    14    13    43    1
    15    14    13    1
    16    14    15    1
    17    15    18    2
    18    16    17    1
    19    16    15    1
    20    19    14    2
    21    20    21    2
    22    20    19    1
    23    21    26    1
    24    22    21    1
    25    23    22    1
    26    24    23    1
    27    24    25    1
    28    26    27    1
    29    26    13    1
    30    28    29    1
    31    28    33   ar
    32    30    29    1
    33    31    32    1
    34    32    40    1
    35    33     1    1
    36    34    31    1
    37    34    33   ar
    38    35    44    1
    39    36    28   ar
    40    37    41    1
    41    39    32    2
    42    40    35    1
    43    41    36    1
    44    42    45    1
    45    43    36   ar
    46    43    34   ar
    47    45    38    1
    48    45    44    1
