@<TRIPOS>MOLECULE
outputs/IAG933/test6/raw/output_9158_IAG933_linker_design_.xyz
 49 53 0 0 0
SMALL
GASTEIGER

@<TRIPOS>ATOM
      1 C         -24.8550   -1.0120   30.1430 C.3     1  UNL1        0.0583
      2 C         -24.9730   -2.5050   29.7880 C.2     1  UNL1       -0.0195
      3 C         -23.9060   -3.1730   29.1460 C.2     1  UNL1       -0.0042
      4 C         -23.9890   -4.5490   28.8530 C.2     1  UNL1       -0.0003
      5 C         -25.1370   -5.2800   29.2050 C.2     1  UNL1       -0.0000
      6 C         -26.2320   -4.6110   29.7840 C.2     1  UNL1       -0.0003
      7 C         -26.1550   -3.2320   30.0650 C.2     1  UNL1       -0.0042
      8 C         -25.3870   -0.6790   31.5710 C.3     1  UNL1        0.0785
      9 C         -25.1890    0.7730   32.0280 C.3     1  UNL1        0.0192
     10 C         -25.3360    0.6840   33.5440 C.3     1  UNL1        0.0202
     11 C         -24.8290   -0.7150   33.9050 C.3     1  UNL1        0.0887
     12 N         -24.7580   -1.4810   32.6460 N.3     1  UNL1       -0.2191
     13 C         -25.6880    1.6140   26.4610 C.3     1  UNL1        0.0702
     14 C         -26.2500    2.9200   26.3950 C.2     1  UNL1        0.0548
     15 C         -25.6420    4.0930   27.1230 C.2     1  UNL1        0.2624
     16 N         -25.6140    5.2520   26.4490 N.am    1  UNL1       -0.2000
     17 C         -25.0260    6.4790   26.9630 C.3     1  UNL1        0.1388
     18 O         -25.1430    3.9660   28.2430 O.2     1  UNL1       -0.2687
     19 C         -27.4380    3.0910   25.6450 C.2     1  UNL1        0.1021
     20 N         -28.0750    2.0890   25.0030 N.2     1  UNL1       -0.2119
     21 C         -27.5430    0.8490   25.0790 C.2     1  UNL1        0.2341
     22 O         -28.1930   -0.2080   24.4770 O.2     1  UNL1       -0.4585
     23 C         -29.4600    0.0050   23.8660 C.3     1  UNL1        0.2423
     24 C         -30.0650   -1.3770   23.5730 C.3     1  UNL1        0.2292
     25 O         -30.7290   -1.8780   24.7210 O.3     1  UNL1       -0.2162
     26 C         -26.3540    0.5760   25.7770 C.3     1  UNL1        0.2400
     27 F         -25.8600   -0.6810   25.7950 F       1  UNL1       -0.2269
     28 C         -22.1017    1.8286   28.0274 C.3     1  UNL1        0.0001
     29 C         -28.0447    4.3178   32.7675 C.3     1  UNL1        0.0040
     30 C         -24.2167    1.4206   26.8229 C.3     1  UNL1        0.0091
     31 C         -25.1090   -0.1831   28.8328 C.3     1  UNL1        0.1006
     32 N         -26.4414    0.5017   28.8087 N.am    1  UNL1       -0.2068
     33 O         -28.0555   -1.1812   28.9881 O.2     1  UNL1       -0.2733
     34 C         -25.1541    6.0760   32.0528 C.3     1  UNL1        0.0828
     35 C         -28.5515    3.2836   30.4989 C.3     1  UNL1        0.0180
     36 C         -24.2083    6.4248   33.0032 C.3     1  UNL1        0.1861
     37 C         -25.5208    4.4983   32.0207 C.3     1  UNL1        0.1883
     38 C         -23.0774    1.4242   29.1010 C.3     1  UNL1        0.0017
     39 C         -28.7804    1.0752   28.7576 C.3     1  UNL1        0.0869
     40 O         -24.2946    3.8163   31.8791 O.3     1  UNL1       -0.2077
     41 O         -23.9671    5.5377   34.0443 O.3     1  UNL1       -0.2203
     42 C         -28.7724    3.2453   31.9560 C.3     1  UNL1        0.0016
     43 C         -28.7153    1.7130   30.1740 C.3     1  UNL1        0.0110
     44 C         -24.2727    1.0665   28.2480 C.3     1  UNL1        0.0208
     45 C         -26.5244    4.1887   33.1913 C.3     1  UNL1        0.0474
     46 C         -27.7232   -0.0018   28.7572 C.2     1  UNL1        0.2413
     47 C         -27.1719    4.0278   30.1228 C.3     1  UNL1        0.0911
     48 C         -22.7012    1.7187   26.6400 C.3     1  UNL1        0.0005
     49 N         -26.0748    3.8743   30.7447 N.3     1  UNL1       -0.1925
@<TRIPOS>BOND
     1     1    31    1
     2     2     7    1
     3     2     1    1
     4     3     2    2
     5     4     3    1
     6     4     5    2
     7     5     6    1
     8     6     7    2
     9     8     1    1
    10     8     9    1
    11     8    12    1
    12     9    10    1
    13    10    11    1
    14    12    11    1
    15    13    14    1
    16    13    30    1
    17    14    15    1
    18    15    18    2
    19    16    17    1
    20    16    15    1
    21    19    14    2
    22    20    21    2
    23    20    19    1
    24    21    26    1
    25    22    21    1
    26    23    22    1
    27    24    23    1
    28    24    25    1
    29    26    27    1
    30    26    13    1
    31    28    38    1
    32    29    45    1
    33    30    48    1
    34    30    44    1
    35    31    32    1
    36    34    36    1
    37    35    43    1
    38    35    42    1
    39    36    41    1
    40    37    40    1
    41    37    34    1
    42    37    45    1
    43    39    43    1
    44    42    29    1
    45    44    31    1
    46    44    38    1
    47    46    39    1
    48    46    32    1
    49    46    33    2
    50    47    35    1
    51    47    49    1
    52    48    28    1
    53    49    37    1
