@<TRIPOS>MOLECULE
outputs/IAG933/test6/raw/output_916_IAG933_linker_design_.xyz
 42 46 0 0 0
SMALL
GASTEIGER

@<TRIPOS>ATOM
      1 C         -24.8550   -1.0120   30.1430 C.3     1  UNL1        0.0746
      2 C         -24.9730   -2.5050   29.7880 C.2     1  UNL1       -0.0183
      3 C         -23.9060   -3.1730   29.1460 C.2     1  UNL1       -0.0041
      4 C         -23.9890   -4.5490   28.8530 C.2     1  UNL1       -0.0003
      5 C         -25.1370   -5.2800   29.2050 C.2     1  UNL1       -0.0000
      6 C         -26.2320   -4.6110   29.7840 C.2     1  UNL1       -0.0003
      7 C         -26.1550   -3.2320   30.0650 C.2     1  UNL1       -0.0041
      8 C         -25.3870   -0.6790   31.5710 C.3     1  UNL1        0.0797
      9 C         -25.1890    0.7730   32.0280 C.3     1  UNL1        0.0193
     10 C         -25.3360    0.6840   33.5440 C.3     1  UNL1        0.0202
     11 C         -24.8290   -0.7150   33.9050 C.3     1  UNL1        0.0887
     12 N         -24.7580   -1.4810   32.6460 N.3     1  UNL1       -0.2190
     13 C         -25.6880    1.6140   26.4610 C.3     1  UNL1        0.0922
     14 C         -26.2500    2.9200   26.3950 C.2     1  UNL1        0.0589
     15 C         -25.6420    4.0930   27.1230 C.2     1  UNL1        0.2628
     16 N         -25.6140    5.2520   26.4490 N.am    1  UNL1       -0.2000
     17 C         -25.0260    6.4790   26.9630 C.3     1  UNL1        0.1388
     18 O         -25.1430    3.9660   28.2430 O.2     1  UNL1       -0.2686
     19 C         -27.4380    3.0910   25.6450 C.2     1  UNL1        0.1025
     20 N         -28.0750    2.0890   25.0030 N.2     1  UNL1       -0.2118
     21 C         -27.5430    0.8490   25.0790 C.2     1  UNL1        0.2344
     22 O         -28.1930   -0.2080   24.4770 O.2     1  UNL1       -0.4585
     23 C         -29.4600    0.0050   23.8660 C.3     1  UNL1        0.2423
     24 C         -30.0650   -1.3770   23.5730 C.3     1  UNL1        0.2292
     25 O         -30.7290   -1.8780   24.7210 O.3     1  UNL1       -0.2162
     26 C         -26.3540    0.5760   25.7770 C.3     1  UNL1        0.2440
     27 F         -25.8600   -0.6810   25.7950 F       1  UNL1       -0.2265
     28 N         -27.9779    1.4723   31.5485 N.pl3   1  UNL1        0.2185
     29 C         -28.1642    0.9692   30.1504 C.2     1  UNL1        0.4412
     30 C         -24.3506    1.5240   26.6651 C.2     1  UNL1       -0.0144
     31 C         -21.9755    2.0829   26.0148 C.2     1  UNL1        0.0020
     32 O         -26.0083    1.0142   28.9735 O.3     1  UNL1       -0.1724
     33 C         -21.5919    1.5471   27.2892 C.2     1  UNL1        0.0294
     34 C         -27.9192   -0.7324   28.4604 C.3     1  UNL1        0.4679
     35 C         -29.4501    0.3070   29.8182 C.2     1  UNL1        0.2735
     36 C         -22.6053    0.9281   28.2938 C.2     1  UNL1        0.1383
     37 N         -27.2515    0.3082   29.2913 N.3     1  UNL1       -0.0443
     38 C         -24.8933    0.0438   28.8256 C.3     1  UNL1        0.1969
     39 C         -24.0798    0.7540   27.9728 C.2     1  UNL1        0.0335
     40 O         -29.1430   -0.5645   28.7050 O.2     1  UNL1       -0.4210
     41 C         -23.4440    2.1288   25.7582 C.2     1  UNL1       -0.0039
     42 F         -22.2825    0.4871   29.4645 F       1  UNL1       -0.2044
@<TRIPOS>BOND
     1     1    38    1
     2     2     7    1
     3     2     1    1
     4     3     2    2
     5     4     3    1
     6     4     5    2
     7     5     6    1
     8     6     7    2
     9     8     1    1
    10     8     9    1
    11     8    12    1
    12     9    10    1
    13    10    11    1
    14    12    11    1
    15    13    30    1
    16    14    13    1
    17    14    15    1
    18    15    18    2
    19    16    17    1
    20    16    15    1
    21    19    14    2
    22    20    21    2
    23    20    19    1
    24    21    26    1
    25    22    21    1
    26    23    22    1
    27    24    23    1
    28    24    25    1
    29    26    27    1
    30    26    13    1
    31    29    28    1
    32    30    39    1
    33    31    33    2
    34    32    37    1
    35    33    36    1
    36    34    40    1
    37    34    37    1
    38    35    29    2
    39    36    42    1
    40    37    29    1
    41    38    32    1
    42    39    36    2
    43    39    38    1
    44    40    35    1
    45    41    31    1
    46    41    30    2
