@<TRIPOS>MOLECULE
outputs/IAG933/test6/raw/output_9161_IAG933_linker_design_.xyz
 41 44 0 0 0
SMALL
GASTEIGER

@<TRIPOS>ATOM
      1 C         -24.8550   -1.0120   30.1430 C.3     1  UNL1        0.0966
      2 C         -24.9730   -2.5050   29.7880 C.2     1  UNL1       -0.0064
      3 C         -23.9060   -3.1730   29.1460 C.2     1  UNL1       -0.0029
      4 C         -23.9890   -4.5490   28.8530 C.2     1  UNL1       -0.0003
      5 C         -25.1370   -5.2800   29.2050 C.2     1  UNL1       -0.0000
      6 C         -26.2320   -4.6110   29.7840 C.2     1  UNL1       -0.0003
      7 C         -26.1550   -3.2320   30.0650 C.2     1  UNL1       -0.0029
      8 C         -25.3870   -0.6790   31.5710 C.3     1  UNL1        0.0916
      9 C         -25.1890    0.7730   32.0280 C.3     1  UNL1        0.0206
     10 C         -25.3360    0.6840   33.5440 C.3     1  UNL1        0.0203
     11 C         -24.8290   -0.7150   33.9050 C.3     1  UNL1        0.0888
     12 N         -24.7580   -1.4810   32.6460 N.3     1  UNL1       -0.2178
     13 C         -25.6880    1.6140   26.4610 C.2     1  UNL1        0.0201
     14 C         -26.2500    2.9200   26.3950 C.2     1  UNL1        0.0727
     15 C         -25.6420    4.0930   27.1230 C.2     1  UNL1        0.2661
     16 N         -25.6140    5.2520   26.4490 N.am    1  UNL1       -0.1997
     17 C         -25.0260    6.4790   26.9630 C.3     1  UNL1        0.1388
     18 O         -25.1430    3.9660   28.2430 O.2     1  UNL1       -0.2683
     19 C         -27.4380    3.0910   25.6450 C.2     1  UNL1        0.1064
     20 N         -28.0750    2.0890   25.0030 N.2     1  UNL1       -0.2081
     21 C         -27.5430    0.8490   25.0790 C.2     1  UNL1        0.2530
     22 O         -28.1930   -0.2080   24.4770 O.2     1  UNL1       -0.4558
     23 C         -29.4600    0.0050   23.8660 C.3     1  UNL1        0.2426
     24 C         -30.0650   -1.3770   23.5730 C.3     1  UNL1        0.2292
     25 O         -30.7290   -1.8780   24.7210 O.3     1  UNL1       -0.2162
     26 C         -26.3540    0.5760   25.7770 C.2     1  UNL1        0.1892
     27 F         -25.8600   -0.6810   25.7950 F       1  UNL1       -0.1996
     28 C         -21.6697    1.3768   27.8614 C.2     1  UNL1        0.1555
     29 O         -23.3763    1.1866   24.7395 O.3     1  UNL1       -0.2466
     30 C         -24.4831    1.3248   27.0742 C.3     1  UNL1        0.0804
     31 N         -25.4363   -0.1157   29.1006 N.3     1  UNL1       -0.2627
     32 F         -22.1684   -0.1948   29.7119 F       1  UNL1       -0.2218
     33 C         -22.0440    1.6857   26.6005 C.2     1  UNL1        0.0338
     34 C         -24.4981    0.8602   28.5524 C.3     1  UNL1        0.1260
     35 N         -22.2394    1.7485   24.0500 N.3     1  UNL1        0.0421
     36 F         -20.4457    1.7730   28.0470 F       1  UNL1       -0.2058
     37 C         -23.6585    1.3880   29.3240 C.2     1  UNL1        0.2042
     38 C         -23.3379    1.4681   26.1230 C.3     1  UNL1        0.1706
     39 O         -23.8217    2.2416   30.2344 O.2     1  UNL1       -0.2913
     40 C         -26.8617    0.3434   28.9974 C.3     1  UNL1        0.0902
     41 C         -22.4809    0.8123   28.8624 C.3     1  UNL1        0.2678
@<TRIPOS>BOND
     1     1    31    1
     2     2     7    1
     3     2     1    1
     4     3     2    2
     5     4     3    1
     6     4     5    2
     7     5     6    1
     8     6     7    2
     9     8     1    1
    10     8     9    1
    11     8    12    1
    12     9    10    1
    13    10    11    1
    14    12    11    1
    15    14    13    1
    16    14    15    1
    17    15    18    2
    18    16    17    1
    19    16    15    1
    20    19    14    2
    21    20    21    2
    22    20    19    1
    23    21    26    1
    24    22    21    1
    25    23    22    1
    26    24    23    1
    27    24    25    1
    28    26    27    1
    29    26    13    2
    30    28    36    1
    31    28    41    1
    32    30    13    1
    33    30    34    1
    34    33    28    2
    35    34    31    1
    36    34    37    1
    37    35    29    1
    38    37    39    2
    39    38    29    1
    40    38    33    1
    41    38    30    1
    42    40    31    1
    43    41    37    1
    44    41    32    1
