@<TRIPOS>MOLECULE
outputs/IAG933/test6/raw/output_9164_IAG933_linker_design_.xyz
 40 43 0 0 0
SMALL
GASTEIGER

@<TRIPOS>ATOM
      1 C         -24.8550   -1.0120   30.1430 C.3     1  UNL1        0.1323
      2 C         -24.9730   -2.5050   29.7880 C.2     1  UNL1       -0.0012
      3 C         -23.9060   -3.1730   29.1460 C.2     1  UNL1       -0.0026
      4 C         -23.9890   -4.5490   28.8530 C.2     1  UNL1       -0.0003
      5 C         -25.1370   -5.2800   29.2050 C.2     1  UNL1       -0.0000
      6 C         -26.2320   -4.6110   29.7840 C.2     1  UNL1       -0.0003
      7 C         -26.1550   -3.2320   30.0650 C.2     1  UNL1       -0.0026
      8 C         -25.3870   -0.6790   31.5710 C.3     1  UNL1        0.0968
      9 C         -25.1890    0.7730   32.0280 C.3     1  UNL1        0.0210
     10 C         -25.3360    0.6840   33.5440 C.3     1  UNL1        0.0203
     11 C         -24.8290   -0.7150   33.9050 C.3     1  UNL1        0.0888
     12 N         -24.7580   -1.4810   32.6460 N.3     1  UNL1       -0.2174
     13 C         -25.6880    1.6140   26.4610 C.2     1  UNL1        0.0400
     14 C         -26.2500    2.9200   26.3950 C.2     1  UNL1        0.0766
     15 C         -25.6420    4.0930   27.1230 C.2     1  UNL1        0.2664
     16 N         -25.6140    5.2520   26.4490 N.am    1  UNL1       -0.1997
     17 C         -25.0260    6.4790   26.9630 C.3     1  UNL1        0.1388
     18 O         -25.1430    3.9660   28.2430 O.2     1  UNL1       -0.2683
     19 C         -27.4380    3.0910   25.6450 C.2     1  UNL1        0.1067
     20 N         -28.0750    2.0890   25.0030 N.2     1  UNL1       -0.2081
     21 C         -27.5430    0.8490   25.0790 C.2     1  UNL1        0.2533
     22 O         -28.1930   -0.2080   24.4770 O.2     1  UNL1       -0.4558
     23 C         -29.4600    0.0050   23.8660 C.3     1  UNL1        0.2426
     24 C         -30.0650   -1.3770   23.5730 C.3     1  UNL1        0.2292
     25 O         -30.7290   -1.8780   24.7210 O.3     1  UNL1       -0.2162
     26 C         -26.3540    0.5760   25.7770 C.2     1  UNL1        0.1931
     27 F         -25.8600   -0.6810   25.7950 F       1  UNL1       -0.1992
     28 C         -22.9657    1.7458   26.7821 C.2     1  UNL1        0.0733
     29 F         -22.0418   -0.1109   29.6107 F       1  UNL1       -0.2045
     30 C         -22.6877    0.5706   28.6572 C.2     1  UNL1        0.1677
     31 O         -20.7426    1.5484   27.7537 O.3     1  UNL1       -0.2099
     32 C         -28.2113    1.6441   29.3810 C.3     1  UNL1        0.0981
     33 N         -25.0321   -0.0119   29.0928 N.pl3   1  UNL1       -0.2119
     34 O         -28.0168   -0.7371   28.7446 O.2     1  UNL1       -0.2717
     35 C         -24.0488    0.5503   28.3550 C.2     1  UNL1        0.0941
     36 C         -27.4671    0.3407   29.0367 C.2     1  UNL1        0.2598
     37 N         -26.1703    0.4894   28.9658 N.am    1  UNL1       -0.1094
     38 C         -24.2643    1.2974   27.1238 C.2     1  UNL1        0.0288
     39 C         -22.0132    1.3495   27.7480 C.3     1  UNL1        0.2353
     40 CL        -22.5715    2.6094   25.3456 Cl      1  UNL1       -0.0839
@<TRIPOS>BOND
     1     1    33    1
     2     2     7    1
     3     2     1    1
     4     3     2    2
     5     4     3    1
     6     4     5    2
     7     5     6    1
     8     6     7    2
     9     8     1    1
    10     8     9    1
    11     8    12    1
    12     9    10    1
    13    10    11    1
    14    12    11    1
    15    13    38    1
    16    14    13    1
    17    14    15    1
    18    15    18    2
    19    16    17    1
    20    16    15    1
    21    19    14    2
    22    20    21    2
    23    20    19    1
    24    21    26    1
    25    22    21    1
    26    23    22    1
    27    24    23    1
    28    24    25    1
    29    26    27    1
    30    26    13    2
    31    28    38    2
    32    28    39    1
    33    30    29    1
    34    34    36    2
    35    35    30    2
    36    35    33    1
    37    36    32    1
    38    37    36    1
    39    37    33    1
    40    38    35    1
    41    39    31    1
    42    39    30    1
    43    40    28    1
