@<TRIPOS>MOLECULE
outputs/IAG933/test6/raw/output_9165_IAG933_linker_design_.xyz
 47 50 0 0 0
SMALL
GASTEIGER

@<TRIPOS>ATOM
      1 C         -24.8550   -1.0120   30.1430 C.3     1  UNL1        0.1533
      2 C         -24.9730   -2.5050   29.7880 C.2     1  UNL1        0.0059
      3 C         -23.9060   -3.1730   29.1460 C.2     1  UNL1       -0.0019
      4 C         -23.9890   -4.5490   28.8530 C.2     1  UNL1       -0.0002
      5 C         -25.1370   -5.2800   29.2050 C.2     1  UNL1       -0.0000
      6 C         -26.2320   -4.6110   29.7840 C.2     1  UNL1       -0.0002
      7 C         -26.1550   -3.2320   30.0650 C.2     1  UNL1       -0.0019
      8 C         -25.3870   -0.6790   31.5710 C.3     1  UNL1        0.1041
      9 C         -25.1890    0.7730   32.0280 C.3     1  UNL1        0.0217
     10 C         -25.3360    0.6840   33.5440 C.3     1  UNL1        0.0203
     11 C         -24.8290   -0.7150   33.9050 C.3     1  UNL1        0.0888
     12 N         -24.7580   -1.4810   32.6460 N.3     1  UNL1       -0.2166
     13 C         -25.6880    1.6140   26.4610 C.2     1  UNL1        0.0181
     14 C         -26.2500    2.9200   26.3950 C.2     1  UNL1        0.0726
     15 C         -25.6420    4.0930   27.1230 C.2     1  UNL1        0.2661
     16 N         -25.6140    5.2520   26.4490 N.am    1  UNL1       -0.1997
     17 C         -25.0260    6.4790   26.9630 C.3     1  UNL1        0.1388
     18 O         -25.1430    3.9660   28.2430 O.2     1  UNL1       -0.2683
     19 C         -27.4380    3.0910   25.6450 C.2     1  UNL1        0.1064
     20 N         -28.0750    2.0890   25.0030 N.2     1  UNL1       -0.2081
     21 C         -27.5430    0.8490   25.0790 C.2     1  UNL1        0.2530
     22 O         -28.1930   -0.2080   24.4770 O.2     1  UNL1       -0.4558
     23 C         -29.4600    0.0050   23.8660 C.3     1  UNL1        0.2426
     24 C         -30.0650   -1.3770   23.5730 C.3     1  UNL1        0.2292
     25 O         -30.7290   -1.8780   24.7210 O.3     1  UNL1       -0.2162
     26 C         -26.3540    0.5760   25.7770 C.2     1  UNL1        0.1892
     27 F         -25.8600   -0.6810   25.7950 F       1  UNL1       -0.1996
     28 O         -29.2444    2.4517   30.3936 O.3     1  UNL1       -0.1841
     29 C         -31.1788   -1.3761   28.2818 C.2     1  UNL1        0.2084
     30 C         -30.8283   -3.5155   29.4995 C.2     1  UNL1        0.3968
     31 O         -31.9880   -4.0043   29.3704 O.co2   1  UNL1       -0.2399
     32 C         -29.6684    0.1527   29.3811 C.2     1  UNL1        0.0693
     33 C         -28.7853    1.4252   29.4142 C.3     1  UNL1        0.2987
     34 O         -22.1108    0.4352   28.8418 O.3     1  UNL1       -0.2204
     35 C         -25.1359    1.0306   28.9453 C.3     1  UNL1        0.1493
     36 O         -32.1368   -1.6398   27.4564 O.2     1  UNL1       -0.2858
     37 C         -26.3724    1.7899   29.2846 C.3     1  UNL1        0.1749
     38 C         -23.1594    1.2320   26.9483 C.3     1  UNL1        0.0396
     39 O         -25.3726   -0.3140   29.0424 O.3     1  UNL1       -0.3500
     40 C         -21.9954    1.4934   27.9147 C.3     1  UNL1        0.1824
     41 C         -24.6269    1.2023   27.4787 C.3     1  UNL1        0.0571
     42 C         -30.6586   -2.1005   29.2906 C.2     1  UNL1        0.1479
     43 C         -30.5704   -0.1431   28.4127 C.2     1  UNL1        0.0499
     44 O         -29.8420   -4.1598   29.7401 O.co2   1  UNL1       -0.2399
     45 S         -29.5727   -1.1923   30.3052 S.3     1  UNL1       -0.0766
     46 O         -27.4719    0.9643   29.6753 O.3     1  UNL1       -0.3222
     47 C         -22.8642    2.1248   25.6586 C.3     1  UNL1        0.0031
@<TRIPOS>BOND
     1     1    39    1
     2     2     7    1
     3     2     1    1
     4     3     2    2
     5     4     3    1
     6     4     5    2
     7     5     6    1
     8     6     7    2
     9     8     1    1
    10     8     9    1
    11     8    12    1
    12     9    10    1
    13    10    11    1
    14    12    11    1
    15    13    41    1
    16    14    13    1
    17    14    15    1
    18    15    18    2
    19    16    17    1
    20    16    15    1
    21    19    14    2
    22    20    21    2
    23    20    19    1
    24    21    26    1
    25    22    21    1
    26    23    22    1
    27    24    23    1
    28    24    25    1
    29    26    27    1
    30    26    13    2
    31    29    43    1
    32    29    42    2
    33    30    44   ar
    34    31    30   ar
    35    32    33    1
    36    32    45    1
    37    33    46    1
    38    33    28    1
    39    35    39    1
    40    35    37    1
    41    36    29    1
    42    37    46    1
    43    38    47    1
    44    38    40    1
    45    40    34    1
    46    41    38    1
    47    41    35    1
    48    42    30    1
    49    42    45    1
    50    43    32    2
