@<TRIPOS>MOLECULE
outputs/IAG933/test6/raw/output_9167_IAG933_linker_design_.xyz
 44 47 0 0 0
SMALL
GASTEIGER

@<TRIPOS>ATOM
      1 C         -24.8550   -1.0120   30.1430 C.3     1  UNL1        0.1134
      2 C         -24.9730   -2.5050   29.7880 C.2     1  UNL1       -0.0029
      3 C         -23.9060   -3.1730   29.1460 C.2     1  UNL1       -0.0026
      4 C         -23.9890   -4.5490   28.8530 C.2     1  UNL1       -0.0003
      5 C         -25.1370   -5.2800   29.2050 C.2     1  UNL1       -0.0000
      6 C         -26.2320   -4.6110   29.7840 C.2     1  UNL1       -0.0003
      7 C         -26.1550   -3.2320   30.0650 C.2     1  UNL1       -0.0026
      8 C         -25.3870   -0.6790   31.5710 C.3     1  UNL1        0.0951
      9 C         -25.1890    0.7730   32.0280 C.3     1  UNL1        0.0209
     10 C         -25.3360    0.6840   33.5440 C.3     1  UNL1        0.0203
     11 C         -24.8290   -0.7150   33.9050 C.3     1  UNL1        0.0888
     12 N         -24.7580   -1.4810   32.6460 N.3     1  UNL1       -0.2174
     13 C         -25.6880    1.6140   26.4610 C.2     1  UNL1        0.0390
     14 C         -26.2500    2.9200   26.3950 C.2     1  UNL1        0.0766
     15 C         -25.6420    4.0930   27.1230 C.2     1  UNL1        0.2664
     16 N         -25.6140    5.2520   26.4490 N.am    1  UNL1       -0.1997
     17 C         -25.0260    6.4790   26.9630 C.3     1  UNL1        0.1388
     18 O         -25.1430    3.9660   28.2430 O.2     1  UNL1       -0.2683
     19 C         -27.4380    3.0910   25.6450 C.2     1  UNL1        0.1067
     20 N         -28.0750    2.0890   25.0030 N.2     1  UNL1       -0.2081
     21 C         -27.5430    0.8490   25.0790 C.2     1  UNL1        0.2533
     22 O         -28.1930   -0.2080   24.4770 O.2     1  UNL1       -0.4558
     23 C         -29.4600    0.0050   23.8660 C.3     1  UNL1        0.2426
     24 C         -30.0650   -1.3770   23.5730 C.3     1  UNL1        0.2292
     25 O         -30.7290   -1.8780   24.7210 O.3     1  UNL1       -0.2162
     26 C         -26.3540    0.5760   25.7770 C.2     1  UNL1        0.1931
     27 F         -25.8600   -0.6810   25.7950 F       1  UNL1       -0.1992
     28 C         -29.0743   -0.1824   29.4737 C.3     1  UNL1        0.2082
     29 C         -30.2601   -0.0499   28.5027 C.3     1  UNL1        0.2991
     30 C         -24.4427    0.5063   28.2901 C.2     1  UNL1        0.0477
     31 C         -22.6747    2.1819   25.4886 C.3     1  UNL1        0.1689
     32 O         -21.7362    1.7677   26.6441 O.3     1  UNL1       -0.3442
     33 C         -22.8657    0.3723   28.6023 C.2     1  UNL1        0.0202
     34 N         -25.4150   -0.2647   28.9983 N.pl3   1  UNL1       -0.2793
     35 O         -28.1187   -1.1269   29.0134 O.3     1  UNL1       -0.3288
     36 O         -31.3280   -0.7987   29.0206 O.3     1  UNL1       -0.3250
     37 C         -33.4725   -0.8626   30.2693 C.3     1  UNL1        0.1414
     38 N         -33.4036   -2.2348   30.8280 N.3     1  UNL1       -0.1286
     39 C         -26.8344   -0.5681   28.5624 C.3     1  UNL1        0.2407
     40 C         -21.7020    1.0687   27.8120 C.3     1  UNL1        0.1701
     41 C         -23.3785    1.5043   26.5193 C.2     1  UNL1        0.0070
     42 O         -29.9904   -0.5782   27.1991 O.3     1  UNL1       -0.1871
     43 C         -24.5209    1.1745   27.1459 C.2     1  UNL1        0.0138
     44 C         -32.0476   -0.2498   30.1344 C.3     1  UNL1        0.1654
@<TRIPOS>BOND
     1     1    34    1
     2     2     7    1
     3     2     1    1
     4     3     2    2
     5     4     3    1
     6     4     5    2
     7     5     6    1
     8     6     7    2
     9     8     1    1
    10     8     9    1
    11     8    12    1
    12     9    10    1
    13    10    11    1
    14    12    11    1
    15    13    43    1
    16    14    13    1
    17    14    15    1
    18    15    18    2
    19    16    17    1
    20    16    15    1
    21    19    14    2
    22    20    21    2
    23    20    19    1
    24    21    26    1
    25    22    21    1
    26    23    22    1
    27    24    23    1
    28    24    25    1
    29    26    27    1
    30    26    13    2
    31    29    42    1
    32    29    36    1
    33    29    28    1
    34    30    33    2
    35    30    34    1
    36    31    41    1
    37    31    32    1
    38    32    40    1
    39    35    28    1
    40    36    44    1
    41    37    38    1
    42    39    34    1
    43    39    35    1
    44    40    33    1
    45    41    43    2
    46    43    30    1
    47    44    37    1
