@<TRIPOS>MOLECULE
outputs/IAG933/test6/raw/output_9168_IAG933_linker_design_.xyz
 41 43 0 0 0
SMALL
GASTEIGER

@<TRIPOS>ATOM
      1 C         -24.8550   -1.0120   30.1430 C.3     1  UNL1        0.0438
      2 C         -24.9730   -2.5050   29.7880 C.2     1  UNL1       -0.0208
      3 C         -23.9060   -3.1730   29.1460 C.2     1  UNL1       -0.0042
      4 C         -23.9890   -4.5490   28.8530 C.2     1  UNL1       -0.0003
      5 C         -25.1370   -5.2800   29.2050 C.2     1  UNL1       -0.0000
      6 C         -26.2320   -4.6110   29.7840 C.2     1  UNL1       -0.0003
      7 C         -26.1550   -3.2320   30.0650 C.2     1  UNL1       -0.0042
      8 C         -25.3870   -0.6790   31.5710 C.3     1  UNL1        0.0788
      9 C         -25.1890    0.7730   32.0280 C.3     1  UNL1        0.0379
     10 C         -25.3360    0.6840   33.5440 C.3     1  UNL1        0.0219
     11 C         -24.8290   -0.7150   33.9050 C.3     1  UNL1        0.0888
     12 N         -24.7580   -1.4810   32.6460 N.3     1  UNL1       -0.2191
     13 C         -25.6880    1.6140   26.4610 C.2     1  UNL1        0.1113
     14 C         -26.2500    2.9200   26.3950 C.2     1  UNL1        0.0919
     15 C         -25.6420    4.0930   27.1230 C.2     1  UNL1        0.2677
     16 N         -25.6140    5.2520   26.4490 N.am    1  UNL1       -0.1997
     17 C         -25.0260    6.4790   26.9630 C.3     1  UNL1        0.1388
     18 O         -25.1430    3.9660   28.2430 O.2     1  UNL1       -0.2683
     19 C         -27.4380    3.0910   25.6450 C.2     1  UNL1        0.1080
     20 N         -28.0750    2.0890   25.0030 N.2     1  UNL1       -0.2080
     21 C         -27.5430    0.8490   25.0790 C.2     1  UNL1        0.2546
     22 O         -28.1930   -0.2080   24.4770 O.2     1  UNL1       -0.4558
     23 C         -29.4600    0.0050   23.8660 C.3     1  UNL1        0.2426
     24 C         -30.0650   -1.3770   23.5730 C.3     1  UNL1        0.2292
     25 O         -30.7290   -1.8780   24.7210 O.3     1  UNL1       -0.2162
     26 C         -26.3540    0.5760   25.7770 C.2     1  UNL1        0.2083
     27 F         -25.8600   -0.6810   25.7950 F       1  UNL1       -0.1978
     28 C         -20.9517    1.7414   27.5954 C.3     1  UNL1        0.0194
     29 N         -24.1537    1.8329   29.9566 N.am    1  UNL1       -0.2067
     30 C         -23.1061    1.1461   29.2952 C.2     1  UNL1        0.2497
     31 C         -24.6676    1.8710   31.3442 C.3     1  UNL1        0.0993
     32 C         -26.1076    4.6511   33.6328 C.3     1  UNL1        0.2148
     33 C         -23.4427    1.9748   26.8628 C.2     1  UNL1        0.2540
     34 O         -27.2660    2.8067   31.8172 O.3     1  UNL1       -0.2203
     35 O         -22.6870    0.0728   29.6124 O.2     1  UNL1       -0.2728
     36 N         -24.5831    1.2938   27.1075 N.am    1  UNL1       -0.1762
     37 O         -25.4025    5.8724   33.4329 O.3     1  UNL1       -0.2176
     38 C         -22.4501    1.9833   28.0696 C.3     1  UNL1        0.1563
     39 O         -23.1788    2.4915   25.7864 O.2     1  UNL1       -0.2725
     40 C         -26.2154    3.6943   32.4153 C.3     1  UNL1        0.1865
     41 C         -24.7498    3.3699   31.9336 C.3     1  UNL1        0.0573
@<TRIPOS>BOND
     1     2     7    1
     2     2     1    1
     3     3     2    2
     4     4     3    1
     5     4     5    2
     6     5     6    1
     7     6     7    2
     8     8     1    1
     9     8     9    1
    10     8    12    1
    11     9    31    1
    12     9    10    1
    13    10    11    1
    14    12    11    1
    15    13    36    1
    16    14    13    1
    17    14    15    1
    18    15    18    2
    19    16    17    1
    20    16    15    1
    21    19    14    2
    22    20    21    2
    23    20    19    1
    24    21    26    1
    25    22    21    1
    26    23    22    1
    27    24    23    1
    28    24    25    1
    29    26    27    1
    30    26    13    2
    31    29    31    1
    32    30    35    2
    33    30    29    1
    34    31    41    1
    35    33    36    1
    36    33    38    1
    37    37    32    1
    38    38    28    1
    39    38    30    1
    40    39    33    2
    41    40    34    1
    42    40    32    1
    43    41    40    1
