@<TRIPOS>MOLECULE
outputs/IAG933/test6/raw/output_9169_IAG933_linker_design_.xyz
 41 44 0 0 0
SMALL
GASTEIGER

@<TRIPOS>ATOM
      1 C         -24.8550   -1.0120   30.1430 C.3     1  UNL1        0.0975
      2 C         -24.9730   -2.5050   29.7880 C.2     1  UNL1       -0.0141
      3 C         -23.9060   -3.1730   29.1460 C.2     1  UNL1       -0.0038
      4 C         -23.9890   -4.5490   28.8530 C.2     1  UNL1       -0.0003
      5 C         -25.1370   -5.2800   29.2050 C.2     1  UNL1       -0.0000
      6 C         -26.2320   -4.6110   29.7840 C.2     1  UNL1       -0.0003
      7 C         -26.1550   -3.2320   30.0650 C.2     1  UNL1       -0.0038
      8 C         -25.3870   -0.6790   31.5710 C.3     1  UNL1        0.0838
      9 C         -25.1890    0.7730   32.0280 C.3     1  UNL1        0.0196
     10 C         -25.3360    0.6840   33.5440 C.3     1  UNL1        0.0203
     11 C         -24.8290   -0.7150   33.9050 C.3     1  UNL1        0.0887
     12 N         -24.7580   -1.4810   32.6460 N.3     1  UNL1       -0.2187
     13 C         -25.6880    1.6140   26.4610 C.3     1  UNL1        0.0715
     14 C         -26.2500    2.9200   26.3950 C.2     1  UNL1        0.0548
     15 C         -25.6420    4.0930   27.1230 C.2     1  UNL1        0.2624
     16 N         -25.6140    5.2520   26.4490 N.am    1  UNL1       -0.2000
     17 C         -25.0260    6.4790   26.9630 C.3     1  UNL1        0.1388
     18 O         -25.1430    3.9660   28.2430 O.2     1  UNL1       -0.2687
     19 C         -27.4380    3.0910   25.6450 C.2     1  UNL1        0.1021
     20 N         -28.0750    2.0890   25.0030 N.2     1  UNL1       -0.2119
     21 C         -27.5430    0.8490   25.0790 C.2     1  UNL1        0.2341
     22 O         -28.1930   -0.2080   24.4770 O.2     1  UNL1       -0.4585
     23 C         -29.4600    0.0050   23.8660 C.3     1  UNL1        0.2423
     24 C         -30.0650   -1.3770   23.5730 C.3     1  UNL1        0.2292
     25 O         -30.7290   -1.8780   24.7210 O.3     1  UNL1       -0.2162
     26 C         -26.3540    0.5760   25.7770 C.3     1  UNL1        0.2400
     27 F         -25.8600   -0.6810   25.7950 F       1  UNL1       -0.2269
     28 CL        -21.9847    2.2826   25.0630 Cl      1  UNL1       -0.1149
     29 C         -22.6890    0.7474   28.6483 C.3     1  UNL1        0.1643
     30 C         -22.5232    1.5618   26.4944 C.3     1  UNL1        0.0832
     31 O         -25.7795    3.9277   30.5297 O.2     1  UNL1       -0.2733
     32 N         -25.8300    2.1161   29.2506 N.am    1  UNL1       -0.1995
     33 F         -22.2123   -0.0230   29.6487 F       1  UNL1       -0.2372
     34 C         -25.7044   -0.2374   29.1466 C.2     1  UNL1        0.1753
     35 C         -21.7945    1.1854   27.6550 C.3     1  UNL1        0.0516
     36 C         -24.0064    1.0035   28.2014 C.3     1  UNL1        0.0614
     37 C         -26.4031    3.0368   29.8248 C.2     1  UNL1        0.2422
     38 C         -27.8582    3.1004   29.6525 C.3     1  UNL1        0.0964
     39 C         -25.2210    1.0742   28.8661 C.3     1  UNL1        0.1552
     40 C         -23.9972    1.2928   26.7457 C.3     1  UNL1        0.0273
     41 O         -26.7614   -0.6310   28.6454 O.2     1  UNL1       -0.2939
@<TRIPOS>BOND
     1     1    34    1
     2     2     7    1
     3     2     1    1
     4     3     2    2
     5     4     3    1
     6     4     5    2
     7     5     6    1
     8     6     7    2
     9     8     1    1
    10     8     9    1
    11     8    12    1
    12     9    10    1
    13    10    11    1
    14    12    11    1
    15    13    14    1
    16    14    15    1
    17    15    18    2
    18    16    17    1
    19    16    15    1
    20    19    14    2
    21    20    21    2
    22    20    19    1
    23    21    26    1
    24    22    21    1
    25    23    22    1
    26    24    23    1
    27    24    25    1
    28    26    27    1
    29    26    13    1
    30    29    33    1
    31    30    28    1
    32    30    40    1
    33    30    35    1
    34    32    37    1
    35    35    29    1
    36    36    29    1
    37    36    39    1
    38    37    31    2
    39    38    37    1
    40    39    34    1
    41    39    32    1
    42    40    13    1
    43    40    36    1
    44    41    34    2
