@<TRIPOS>MOLECULE
outputs/IAG933/test6/raw/output_9170_IAG933_linker_design_.xyz
 44 48 0 0 0
SMALL
GASTEIGER

@<TRIPOS>ATOM
      1 C         -24.8550   -1.0120   30.1430 C.3     1  UNL1        0.0448
      2 C         -24.9730   -2.5050   29.7880 C.2     1  UNL1       -0.0208
      3 C         -23.9060   -3.1730   29.1460 C.2     1  UNL1       -0.0042
      4 C         -23.9890   -4.5490   28.8530 C.2     1  UNL1       -0.0003
      5 C         -25.1370   -5.2800   29.2050 C.2     1  UNL1       -0.0000
      6 C         -26.2320   -4.6110   29.7840 C.2     1  UNL1       -0.0003
      7 C         -26.1550   -3.2320   30.0650 C.2     1  UNL1       -0.0042
      8 C         -25.3870   -0.6790   31.5710 C.3     1  UNL1        0.0772
      9 C         -25.1890    0.7730   32.0280 C.3     1  UNL1        0.0192
     10 C         -25.3360    0.6840   33.5440 C.3     1  UNL1        0.0202
     11 C         -24.8290   -0.7150   33.9050 C.3     1  UNL1        0.0887
     12 N         -24.7580   -1.4810   32.6460 N.3     1  UNL1       -0.2191
     13 C         -25.6880    1.6140   26.4610 C.2     1  UNL1        0.0378
     14 C         -26.2500    2.9200   26.3950 C.2     1  UNL1        0.0765
     15 C         -25.6420    4.0930   27.1230 C.2     1  UNL1        0.2664
     16 N         -25.6140    5.2520   26.4490 N.am    1  UNL1       -0.1997
     17 C         -25.0260    6.4790   26.9630 C.3     1  UNL1        0.1388
     18 O         -25.1430    3.9660   28.2430 O.2     1  UNL1       -0.2683
     19 C         -27.4380    3.0910   25.6450 C.2     1  UNL1        0.1067
     20 N         -28.0750    2.0890   25.0030 N.2     1  UNL1       -0.2081
     21 C         -27.5430    0.8490   25.0790 C.2     1  UNL1        0.2533
     22 O         -28.1930   -0.2080   24.4770 O.2     1  UNL1       -0.4558
     23 C         -29.4600    0.0050   23.8660 C.3     1  UNL1        0.2426
     24 C         -30.0650   -1.3770   23.5730 C.3     1  UNL1        0.2292
     25 O         -30.7290   -1.8780   24.7210 O.3     1  UNL1       -0.2162
     26 C         -26.3540    0.5760   25.7770 C.2     1  UNL1        0.1930
     27 F         -25.8600   -0.6810   25.7950 F       1  UNL1       -0.1992
     28 C         -23.1515    1.9177   26.4924 C.2     1  UNL1       -0.0002
     29 C         -29.5747   -0.6926   29.6828 C.3     1  UNL1        0.0513
     30 O         -27.6926    0.5051   29.2264 O.3     1  UNL1       -0.3531
     31 C         -24.0788    0.5155   28.2764 C.2     1  UNL1       -0.0196
     32 C         -21.6252    0.9494   28.1749 C.2     1  UNL1       -0.0003
     33 C         -25.1836   -0.0983   28.9901 C.3     1  UNL1        0.0573
     34 C         -29.1139   -2.6265   31.2849 C.2     1  UNL1       -0.0306
     35 C         -31.1878   -2.6743   30.3920 C.3     1  UNL1        0.0047
     36 C         -24.2817    1.3310   27.0850 C.2     1  UNL1       -0.0014
     37 C         -26.4980    0.0096   28.5264 C.3     1  UNL1        0.1468
     38 C         -31.5911   -2.0451   29.3542 C.3     1  UNL1        0.0008
     39 C         -31.0114   -0.5881   29.5486 C.3     1  UNL1        0.0069
     40 C         -21.8393    1.7158   27.0260 C.2     1  UNL1       -0.0000
     41 C         -28.9472    0.0854   28.6101 C.3     1  UNL1        0.1464
     42 C         -22.7379    0.3315   28.7513 C.2     1  UNL1       -0.0042
     43 C         -30.4427   -2.9921   31.3539 C.3     1  UNL1        0.0257
     44 C         -28.7299   -1.5866   30.4081 C.2     1  UNL1       -0.0285
@<TRIPOS>BOND
     1     1    33    1
     2     2     7    1
     3     2     1    1
     4     3     2    2
     5     4     3    1
     6     4     5    2
     7     5     6    1
     8     6     7    2
     9     8     1    1
    10     8     9    1
    11     8    12    1
    12     9    10    1
    13    10    11    1
    14    12    11    1
    15    13    36    1
    16    14    13    1
    17    14    15    1
    18    15    18    2
    19    16    17    1
    20    16    15    1
    21    19    14    2
    22    20    21    2
    23    20    19    1
    24    21    26    1
    25    22    21    1
    26    23    22    1
    27    24    23    1
    28    24    25    1
    29    26    27    1
    30    26    13    2
    31    28    40    2
    32    28    36    1
    33    29    41    1
    34    29    44    1
    35    31    42    1
    36    31    33    1
    37    32    42    2
    38    33    37    1
    39    34    43    1
    40    35    43    1
    41    36    31    2
    42    37    30    1
    43    38    39    1
    44    38    35    1
    45    39    29    1
    46    40    32    1
    47    41    30    1
    48    44    34    2
