@<TRIPOS>MOLECULE
outputs/IAG933/test6/raw/output_9175_IAG933_linker_design_.xyz
 42 46 0 0 0
SMALL
GASTEIGER

@<TRIPOS>ATOM
      1 C         -24.8550   -1.0120   30.1430 C.3     1  UNL1        0.0479
      2 C         -24.9730   -2.5050   29.7880 C.2     1  UNL1       -0.0205
      3 C         -23.9060   -3.1730   29.1460 C.2     1  UNL1       -0.0042
      4 C         -23.9890   -4.5490   28.8530 C.2     1  UNL1       -0.0003
      5 C         -25.1370   -5.2800   29.2050 C.2     1  UNL1       -0.0000
      6 C         -26.2320   -4.6110   29.7840 C.2     1  UNL1       -0.0003
      7 C         -26.1550   -3.2320   30.0650 C.2     1  UNL1       -0.0042
      8 C         -25.3870   -0.6790   31.5710 C.3     1  UNL1        0.0963
      9 C         -25.1890    0.7730   32.0280 C.2     1  UNL1       -0.0156
     10 C         -25.3360    0.6840   33.5440 C.3     1  UNL1        0.0432
     11 C         -24.8290   -0.7150   33.9050 C.3     1  UNL1        0.0934
     12 N         -24.7580   -1.4810   32.6460 N.3     1  UNL1       -0.2147
     13 C         -25.6880    1.6140   26.4610 C.2     1  UNL1        0.0424
     14 C         -26.2500    2.9200   26.3950 C.2     1  UNL1        0.0767
     15 C         -25.6420    4.0930   27.1230 C.2     1  UNL1        0.2664
     16 N         -25.6140    5.2520   26.4490 N.am    1  UNL1       -0.1997
     17 C         -25.0260    6.4790   26.9630 C.3     1  UNL1        0.1388
     18 O         -25.1430    3.9660   28.2430 O.2     1  UNL1       -0.2683
     19 C         -27.4380    3.0910   25.6450 C.2     1  UNL1        0.1067
     20 N         -28.0750    2.0890   25.0030 N.2     1  UNL1       -0.2081
     21 C         -27.5430    0.8490   25.0790 C.2     1  UNL1        0.2533
     22 O         -28.1930   -0.2080   24.4770 O.2     1  UNL1       -0.4558
     23 C         -29.4600    0.0050   23.8660 C.3     1  UNL1        0.2426
     24 C         -30.0650   -1.3770   23.5730 C.3     1  UNL1        0.2292
     25 O         -30.7290   -1.8780   24.7210 O.3     1  UNL1       -0.2162
     26 C         -26.3540    0.5760   25.7770 C.2     1  UNL1        0.1932
     27 F         -25.8600   -0.6810   25.7950 F       1  UNL1       -0.1992
     28 C         -24.1378    1.1556   28.5015 C.2     1  UNL1        0.0733
     29 C         -25.7816    5.0304   34.0103 C.3     1  UNL1        0.1741
     30 C         -25.0990    1.6841   30.8554 C.2     1  UNL1        0.0441
     31 O         -25.4404    3.7834   33.3626 O.3     1  UNL1       -0.3507
     32 C         -21.6522    1.3046   28.1279 C.2     1  UNL1        0.0415
     33 O         -23.4032    2.3454   25.0570 O.2     1  UNL1       -0.4346
     34 C         -22.0644    2.4233   24.6762 C.3     1  UNL1        0.4294
     35 C         -21.9287    1.6400   26.8026 C.2     1  UNL1        0.1765
     36 C         -24.3610    1.4732   27.1243 C.2     1  UNL1        0.0549
     37 C         -25.0314    3.2067   31.0916 C.3     1  UNL1        0.0746
     38 N         -25.2325    1.1533   29.4855 N.pl3   1  UNL1       -0.2172
     39 C         -25.9416    3.8787   32.0547 C.3     1  UNL1        0.1483
     40 C         -23.2400    1.8924   26.3330 C.2     1  UNL1        0.1777
     41 C         -22.7268    1.0386   28.9643 C.2     1  UNL1        0.0198
     42 O         -21.1110    1.9813   25.6777 O.2     1  UNL1       -0.4346
@<TRIPOS>BOND
     1     2     7    1
     2     2     1    1
     3     3     2    2
     4     4     3    1
     5     4     5    2
     6     5     6    1
     7     6     7    2
     8     8     1    1
     9     8     9    1
    10     8    12    1
    11     9    10    1
    12    10    11    1
    13    12    11    1
    14    13    36    1
    15    14    13    1
    16    14    15    1
    17    15    18    2
    18    16    17    1
    19    16    15    1
    20    19    14    2
    21    20    21    2
    22    20    19    1
    23    21    26    1
    24    22    21    1
    25    23    22    1
    26    24    23    1
    27    24    25    1
    28    26    27    1
    29    26    13    2
    30    28    41    1
    31    28    38    1
    32    30    37    1
    33    30     9    2
    34    31    29    1
    35    32    41    2
    36    33    40    1
    37    34    33    1
    38    34    42    1
    39    35    32    1
    40    36    28    2
    41    37    39    1
    42    38    30    1
    43    39    31    1
    44    40    35    2
    45    40    36    1
    46    42    35    1
