@<TRIPOS>MOLECULE
outputs/IAG933/test6/raw/output_9178_IAG933_linker_design_.xyz
 47 51 0 0 0
SMALL
GASTEIGER

@<TRIPOS>ATOM
      1 C         -24.8550   -1.0120   30.1430 C.3     1  UNL1        0.0814
      2 C         -24.9730   -2.5050   29.7880 C.2     1  UNL1       -0.0152
      3 C         -23.9060   -3.1730   29.1460 C.2     1  UNL1       -0.0038
      4 C         -23.9890   -4.5490   28.8530 C.2     1  UNL1       -0.0003
      5 C         -25.1370   -5.2800   29.2050 C.2     1  UNL1       -0.0000
      6 C         -26.2320   -4.6110   29.7840 C.2     1  UNL1       -0.0003
      7 C         -26.1550   -3.2320   30.0650 C.2     1  UNL1       -0.0038
      8 C         -25.3870   -0.6790   31.5710 C.3     1  UNL1        0.0827
      9 C         -25.1890    0.7730   32.0280 C.3     1  UNL1        0.0196
     10 C         -25.3360    0.6840   33.5440 C.3     1  UNL1        0.0203
     11 C         -24.8290   -0.7150   33.9050 C.3     1  UNL1        0.0887
     12 N         -24.7580   -1.4810   32.6460 N.3     1  UNL1       -0.2187
     13 C         -25.6880    1.6140   26.4610 C.2     1  UNL1        0.0337
     14 C         -26.2500    2.9200   26.3950 C.2     1  UNL1        0.0741
     15 C         -25.6420    4.0930   27.1230 C.2     1  UNL1        0.2662
     16 N         -25.6140    5.2520   26.4490 N.am    1  UNL1       -0.1997
     17 C         -25.0260    6.4790   26.9630 C.3     1  UNL1        0.1388
     18 O         -25.1430    3.9660   28.2430 O.2     1  UNL1       -0.2683
     19 C         -27.4380    3.0910   25.6450 C.2     1  UNL1        0.1065
     20 N         -28.0750    2.0890   25.0030 N.2     1  UNL1       -0.2081
     21 C         -27.5430    0.8490   25.0790 C.2     1  UNL1        0.2530
     22 O         -28.1930   -0.2080   24.4770 O.2     1  UNL1       -0.4558
     23 C         -29.4600    0.0050   23.8660 C.3     1  UNL1        0.2426
     24 C         -30.0650   -1.3770   23.5730 C.3     1  UNL1        0.2292
     25 O         -30.7290   -1.8780   24.7210 O.3     1  UNL1       -0.2162
     26 C         -26.3540    0.5760   25.7770 C.2     1  UNL1        0.1907
     27 F         -25.8600   -0.6810   25.7950 F       1  UNL1       -0.1995
     28 C         -32.2681   -0.9638   29.3647 C.2     1  UNL1        0.0434
     29 O         -32.8233    0.5791   27.8338 O.2     1  UNL1       -0.2866
     30 C         -30.4111   -2.5730   32.8636 C.3     1  UNL1        0.0968
     31 C         -29.9369   -1.2848   29.9975 C.2     1  UNL1        0.0741
     32 C         -26.8137    0.0799   29.0802 C.1     1  UNL1       -0.0905
     33 C         -24.6598    1.4292   27.3554 C.3     1  UNL1        0.0981
     34 C         -23.0275    0.2284   28.4637 C.3     1  UNL1        0.0913
     35 C         -23.2653    1.5559   26.5857 C.3     1  UNL1        0.0261
     36 C         -25.4696   -0.0856   29.1875 C.2     1  UNL1        0.0654
     37 C         -29.4932   -2.9439   31.7375 C.2     1  UNL1        0.2461
     38 N         -24.5303    0.4893   28.3726 N.pl3   1  UNL1       -0.3026
     39 N         -29.0986   -1.9665   30.8787 N.am    1  UNL1       -0.1792
     40 C         -22.4402    1.4736   27.6936 C.3     1  UNL1        0.0218
     41 C         -29.5267   -0.2106   29.1461 C.2     1  UNL1        0.0262
     42 O         -29.0294   -4.0568   31.6878 O.2     1  UNL1       -0.2730
     43 C         -31.8577    0.0547   28.4935 C.2     1  UNL1        0.1958
     44 C         -20.9703    1.4002   27.3919 C.3     1  UNL1        0.0018
     45 C         -31.2953   -1.6913   30.0460 C.2     1  UNL1        0.0199
     46 C         -30.5221    0.4348   28.3626 C.2     1  UNL1        0.0439
     47 C         -28.1575    0.2730   29.0648 C.2     1  UNL1        0.0437
@<TRIPOS>BOND
     1     1    36    1
     2     2     7    1
     3     2     1    1
     4     3     2    2
     5     4     3    1
     6     4     5    2
     7     5     6    1
     8     6     7    2
     9     8     1    1
    10     8     9    1
    11     8    12    1
    12     9    10    1
    13    10    11    1
    14    12    11    1
    15    14    13    1
    16    14    15    1
    17    15    18    2
    18    16    17    1
    19    16    15    1
    20    19    14    2
    21    20    21    2
    22    20    19    1
    23    21    26    1
    24    22    21    1
    25    23    22    1
    26    24    23    1
    27    24    25    1
    28    26    27    1
    29    26    13    2
    30    28    45    1
    31    29    43    1
    32    31    45    2
    33    31    39    1
    34    32    36    2
    35    33    13    1
    36    33    38    1
    37    35    33    1
    38    35    40    1
    39    37    30    1
    40    38    34    1
    41    38    36    1
    42    39    37    1
    43    40    44    1
    44    40    34    1
    45    41    31    1
    46    42    37    2
    47    43    28    2
    48    46    43    1
    49    46    41    2
    50    47    32    2
    51    47    41    1
