@<TRIPOS>MOLECULE
outputs/IAG933/test6/raw/output_918_IAG933_linker_design_.xyz
 46 49 0 0 0
SMALL
GASTEIGER

@<TRIPOS>ATOM
      1 C         -24.8550   -1.0120   30.1430 C.3     1  UNL1        0.0566
      2 C         -24.9730   -2.5050   29.7880 C.2     1  UNL1       -0.0174
      3 C         -23.9060   -3.1730   29.1460 C.2     1  UNL1       -0.0039
      4 C         -23.9890   -4.5490   28.8530 C.2     1  UNL1       -0.0003
      5 C         -25.1370   -5.2800   29.2050 C.2     1  UNL1       -0.0000
      6 C         -26.2320   -4.6110   29.7840 C.2     1  UNL1       -0.0003
      7 C         -26.1550   -3.2320   30.0650 C.2     1  UNL1       -0.0039
      8 C         -25.3870   -0.6790   31.5710 C.3     1  UNL1        0.0805
      9 C         -25.1890    0.7730   32.0280 C.3     1  UNL1        0.0195
     10 C         -25.3360    0.6840   33.5440 C.3     1  UNL1        0.0203
     11 C         -24.8290   -0.7150   33.9050 C.3     1  UNL1        0.0887
     12 N         -24.7580   -1.4810   32.6460 N.3     1  UNL1       -0.2188
     13 C         -25.6880    1.6140   26.4610 C.3     1  UNL1        0.0887
     14 C         -26.2500    2.9200   26.3950 C.2     1  UNL1        0.0586
     15 C         -25.6420    4.0930   27.1230 C.2     1  UNL1        0.2627
     16 N         -25.6140    5.2520   26.4490 N.am    1  UNL1       -0.2000
     17 C         -25.0260    6.4790   26.9630 C.3     1  UNL1        0.1388
     18 O         -25.1430    3.9660   28.2430 O.2     1  UNL1       -0.2686
     19 C         -27.4380    3.0910   25.6450 C.2     1  UNL1        0.1025
     20 N         -28.0750    2.0890   25.0030 N.2     1  UNL1       -0.2118
     21 C         -27.5430    0.8490   25.0790 C.2     1  UNL1        0.2344
     22 O         -28.1930   -0.2080   24.4770 O.2     1  UNL1       -0.4585
     23 C         -29.4600    0.0050   23.8660 C.3     1  UNL1        0.2423
     24 C         -30.0650   -1.3770   23.5730 C.3     1  UNL1        0.2292
     25 O         -30.7290   -1.8780   24.7210 O.3     1  UNL1       -0.2162
     26 C         -26.3540    0.5760   25.7770 C.3     1  UNL1        0.2437
     27 F         -25.8600   -0.6810   25.7950 F       1  UNL1       -0.2265
     28 C         -22.7906    1.2191   28.5145 C.3     1  UNL1        0.2095
     29 O         -28.1653    1.7764   28.7980 O.3     1  UNL1       -0.2415
     30 C         -29.3302   -0.6476   29.8750 C.3     1  UNL1        0.1084
     31 C         -22.9799    2.1958   26.2391 C.2     1  UNL1        0.3318
     32 C         -23.5570    1.5533   27.4779 C.2     1  UNL1        0.0747
     33 F         -22.1204    1.5760   25.5066 F       1  UNL1       -0.1589
     34 C         -28.9313    2.6895   29.4900 C.3     1  UNL1        0.3757
     35 C         -25.6300    0.6537   28.7915 C.3     1  UNL1        0.0507
     36 F         -28.6499    3.9900   29.2206 F       1  UNL1       -0.1736
     37 C         -26.8318   -0.3344   28.9538 C.3     1  UNL1        0.1018
     38 O         -23.3860    3.2252   25.7842 O.2     1  UNL1       -0.2544
     39 C         -23.1279    0.1515   29.2300 C.2     1  UNL1        0.0054
     40 C         -30.3907    2.4716   29.1856 C.3     1  UNL1        0.1078
     41 C         -24.9457    1.3057   27.6089 C.2     1  UNL1       -0.0285
     42 O         -28.9602   -0.0631   27.3817 O.3     1  UNL1       -0.1453
     43 S         -28.4719    0.2396   28.6677 S.3     1  UNL1        0.0333
     44 F         -21.3816    1.5859   28.4754 F       1  UNL1       -0.2274
     45 C         -24.5542   -0.0483   29.4217 C.2     1  UNL1       -0.0360
     46 F         -28.5995    2.6330   30.7598 F       1  UNL1       -0.1736
@<TRIPOS>BOND
     1     1    45    1
     2     2     7    1
     3     2     1    1
     4     3     2    2
     5     4     3    1
     6     4     5    2
     7     5     6    1
     8     6     7    2
     9     8     1    1
    10     8     9    1
    11     8    12    1
    12     9    10    1
    13    10    11    1
    14    12    11    1
    15    13    41    1
    16    14    13    1
    17    14    15    1
    18    15    18    2
    19    16    17    1
    20    16    15    1
    21    19    14    2
    22    20    21    2
    23    20    19    1
    24    21    26    1
    25    22    21    1
    26    23    22    1
    27    24    23    1
    28    24    25    1
    29    26    27    1
    30    26    13    1
    31    28    44    1
    32    28    39    1
    33    29    34    1
    34    31    32    1
    35    32    41    2
    36    32    28    1
    37    33    31    1
    38    34    46    1
    39    35    37    1
    40    35    45    1
    41    36    34    1
    42    38    31    2
    43    39    45    2
    44    40    34    1
    45    41    35    1
    46    42    43    1
    47    43    29    1
    48    43    37    1
    49    43    30    1
