@<TRIPOS>MOLECULE
outputs/IAG933/test6/raw/output_9181_IAG933_linker_design_.xyz
 42 46 0 0 0
SMALL
GASTEIGER

@<TRIPOS>ATOM
      1 C         -24.8550   -1.0120   30.1430 C.3     1  UNL1        0.0588
      2 C         -24.9730   -2.5050   29.7880 C.2     1  UNL1       -0.0195
      3 C         -23.9060   -3.1730   29.1460 C.2     1  UNL1       -0.0042
      4 C         -23.9890   -4.5490   28.8530 C.2     1  UNL1       -0.0003
      5 C         -25.1370   -5.2800   29.2050 C.2     1  UNL1       -0.0000
      6 C         -26.2320   -4.6110   29.7840 C.2     1  UNL1       -0.0003
      7 C         -26.1550   -3.2320   30.0650 C.2     1  UNL1       -0.0042
      8 C         -25.3870   -0.6790   31.5710 C.3     1  UNL1        0.0785
      9 C         -25.1890    0.7730   32.0280 C.3     1  UNL1        0.0192
     10 C         -25.3360    0.6840   33.5440 C.3     1  UNL1        0.0202
     11 C         -24.8290   -0.7150   33.9050 C.3     1  UNL1        0.0887
     12 N         -24.7580   -1.4810   32.6460 N.3     1  UNL1       -0.2191
     13 C         -25.6880    1.6140   26.4610 C.2     1  UNL1        0.0354
     14 C         -26.2500    2.9200   26.3950 C.2     1  UNL1        0.0763
     15 C         -25.6420    4.0930   27.1230 C.2     1  UNL1        0.2664
     16 N         -25.6140    5.2520   26.4490 N.am    1  UNL1       -0.1997
     17 C         -25.0260    6.4790   26.9630 C.3     1  UNL1        0.1388
     18 O         -25.1430    3.9660   28.2430 O.2     1  UNL1       -0.2683
     19 C         -27.4380    3.0910   25.6450 C.2     1  UNL1        0.1067
     20 N         -28.0750    2.0890   25.0030 N.2     1  UNL1       -0.2081
     21 C         -27.5430    0.8490   25.0790 C.2     1  UNL1        0.2533
     22 O         -28.1930   -0.2080   24.4770 O.2     1  UNL1       -0.4558
     23 C         -29.4600    0.0050   23.8660 C.3     1  UNL1        0.2426
     24 C         -30.0650   -1.3770   23.5730 C.3     1  UNL1        0.2292
     25 O         -30.7290   -1.8780   24.7210 O.3     1  UNL1       -0.2162
     26 C         -26.3540    0.5760   25.7770 C.2     1  UNL1        0.1928
     27 F         -25.8600   -0.6810   25.7950 F       1  UNL1       -0.1992
     28 C         -29.4444    1.7950   30.2856 C.2     1  UNL1        0.0013
     29 C         -25.1355   -0.1636   28.9961 C.3     1  UNL1        0.1059
     30 C         -30.0845    0.5518   30.3288 C.2     1  UNL1        0.0001
     31 C         -24.3753    1.3290   27.1002 C.2     1  UNL1       -0.0014
     32 C         -23.0798    1.6434   26.5539 C.2     1  UNL1        0.0812
     33 F         -20.8222    1.4003   27.3285 F       1  UNL1       -0.2036
     34 C         -28.1076    1.8647   29.9050 C.2     1  UNL1        0.0161
     35 C         -22.1153    1.2097   27.4567 C.2     1  UNL1        0.1464
     36 C         -28.1858   -0.5934   29.4609 C.2     1  UNL1        0.0161
     37 C         -22.6470    0.5479   28.5875 C.2     1  UNL1        0.0102
     38 CL        -22.8255    2.3106   25.0071 Cl      1  UNL1       -0.0802
     39 C         -24.0694    0.6082   28.3157 C.3     1  UNL1        0.0677
     40 C         -27.5317    0.6393   29.5019 C.2     1  UNL1        0.0653
     41 N         -26.4335    0.7664   29.1035 N.pl3   1  UNL1       -0.2383
     42 C         -29.4674   -0.6360   29.9309 C.2     1  UNL1        0.0013
@<TRIPOS>BOND
     1     1    29    1
     2     2     7    1
     3     2     1    1
     4     3     2    2
     5     4     3    1
     6     4     5    2
     7     5     6    1
     8     6     7    2
     9     8     1    1
    10     8     9    1
    11     8    12    1
    12     9    10    1
    13    10    11    1
    14    12    11    1
    15    13    31    1
    16    14    13    1
    17    14    15    1
    18    15    18    2
    19    16    17    1
    20    16    15    1
    21    19    14    2
    22    20    21    2
    23    20    19    1
    24    21    26    1
    25    22    21    1
    26    23    22    1
    27    24    23    1
    28    24    25    1
    29    26    27    1
    30    26    13    2
    31    28    30    1
    32    29    41    1
    33    31    39    1
    34    32    31    2
    35    32    35    1
    36    33    35    1
    37    34    28    2
    38    35    37    2
    39    36    40    2
    40    36    42    1
    41    38    32    1
    42    39    37    1
    43    39    29    1
    44    40    34    1
    45    41    40    1
    46    42    30    2
