@<TRIPOS>MOLECULE
outputs/IAG933/test6/raw/output_9183_IAG933_linker_design_.xyz
 44 47 0 0 0
SMALL
GASTEIGER

@<TRIPOS>ATOM
      1 C         -24.8550   -1.0120   30.1430 C.3     1  UNL1        0.0741
      2 C         -24.9730   -2.5050   29.7880 C.2     1  UNL1       -0.0158
      3 C         -23.9060   -3.1730   29.1460 C.2     1  UNL1       -0.0039
      4 C         -23.9890   -4.5490   28.8530 C.2     1  UNL1       -0.0003
      5 C         -25.1370   -5.2800   29.2050 C.2     1  UNL1       -0.0000
      6 C         -26.2320   -4.6110   29.7840 C.2     1  UNL1       -0.0003
      7 C         -26.1550   -3.2320   30.0650 C.2     1  UNL1       -0.0039
      8 C         -25.3870   -0.6790   31.5710 C.3     1  UNL1        0.0821
      9 C         -25.1890    0.7730   32.0280 C.3     1  UNL1        0.0196
     10 C         -25.3360    0.6840   33.5440 C.3     1  UNL1        0.0203
     11 C         -24.8290   -0.7150   33.9050 C.3     1  UNL1        0.0887
     12 N         -24.7580   -1.4810   32.6460 N.3     1  UNL1       -0.2188
     13 C         -25.6880    1.6140   26.4610 C.2     1  UNL1        0.0389
     14 C         -26.2500    2.9200   26.3950 C.2     1  UNL1        0.0745
     15 C         -25.6420    4.0930   27.1230 C.2     1  UNL1        0.2662
     16 N         -25.6140    5.2520   26.4490 N.am    1  UNL1       -0.1997
     17 C         -25.0260    6.4790   26.9630 C.3     1  UNL1        0.1388
     18 O         -25.1430    3.9660   28.2430 O.2     1  UNL1       -0.2683
     19 C         -27.4380    3.0910   25.6450 C.2     1  UNL1        0.1065
     20 N         -28.0750    2.0890   25.0030 N.2     1  UNL1       -0.2081
     21 C         -27.5430    0.8490   25.0790 C.2     1  UNL1        0.2530
     22 O         -28.1930   -0.2080   24.4770 O.2     1  UNL1       -0.4558
     23 C         -29.4600    0.0050   23.8660 C.3     1  UNL1        0.2426
     24 C         -30.0650   -1.3770   23.5730 C.3     1  UNL1        0.2292
     25 O         -30.7290   -1.8780   24.7210 O.3     1  UNL1       -0.2162
     26 C         -26.3540    0.5760   25.7770 C.2     1  UNL1        0.1910
     27 F         -25.8600   -0.6810   25.7950 F       1  UNL1       -0.1995
     28 C         -24.5095    1.3474   27.3399 C.3     1  UNL1        0.1343
     29 F         -20.9632    1.2711   27.7126 F       1  UNL1       -0.2035
     30 C         -27.7229    5.4273   31.2477 C.2     1  UNL1        0.3493
     31 C         -27.6441    3.1288   30.6075 C.3     1  UNL1        0.1350
     32 C         -22.1932    1.0365   27.9495 C.2     1  UNL1        0.1494
     33 C         -23.2407    1.5226   27.0070 C.2     1  UNL1        0.0850
     34 C         -29.9812    6.1667   31.5509 C.3     1  UNL1        0.2557
     35 C         -22.6427    0.4917   29.1952 C.2     1  UNL1        0.0407
     36 C         -26.5813    1.0673   28.9793 C.3     1  UNL1        0.1836
     37 C         -26.9546    4.1730   31.4942 C.3     1  UNL1        0.2669
     38 C         -24.1589    0.1296   29.3888 C.2     1  UNL1        0.0337
     39 N         -25.0248    0.8557   28.5068 N.pl3   1  UNL1       -0.2890
     40 O         -27.4156    6.2724   30.4047 O.2     1  UNL1       -0.2472
     41 CL        -22.5578    2.2133   25.5331 Cl      1  UNL1       -0.0825
     42 O         -25.6239    4.4671   31.0693 O.3     1  UNL1       -0.2095
     43 N         -26.7071    2.4801   29.6481 N.3     1  UNL1       -0.1940
     44 O         -28.7945    5.5825   32.1533 O.3     1  UNL1       -0.4426
@<TRIPOS>BOND
     1     1    38    1
     2     2     7    1
     3     2     1    1
     4     3     2    2
     5     4     3    1
     6     4     5    2
     7     5     6    1
     8     6     7    2
     9     8     1    1
    10     8     9    1
    11     8    12    1
    12     9    10    1
    13    10    11    1
    14    12    11    1
    15    14    13    1
    16    14    15    1
    17    15    18    2
    18    16    17    1
    19    16    15    1
    20    19    14    2
    21    20    21    2
    22    20    19    1
    23    21    26    1
    24    22    21    1
    25    23    22    1
    26    24    23    1
    27    24    25    1
    28    26    27    1
    29    26    13    2
    30    28    13    1
    31    28    39    1
    32    29    32    1
    33    30    37    1
    34    30    44    1
    35    31    37    1
    36    32    35    1
    37    33    28    1
    38    33    32    2
    39    34    44    1
    40    35    38    2
    41    36    43    1
    42    37    42    1
    43    39    36    1
    44    39    38    1
    45    40    30    2
    46    41    33    1
    47    43    31    1
