@<TRIPOS>MOLECULE
outputs/IAG933/test6/raw/output_9187_IAG933_linker_design_.xyz
 43 47 0 0 0
SMALL
GASTEIGER

@<TRIPOS>ATOM
      1 C         -24.8550   -1.0120   30.1430 C.3     1  UNL1        0.1305
      2 C         -24.9730   -2.5050   29.7880 C.2     1  UNL1       -0.0013
      3 C         -23.9060   -3.1730   29.1460 C.2     1  UNL1       -0.0026
      4 C         -23.9890   -4.5490   28.8530 C.2     1  UNL1       -0.0003
      5 C         -25.1370   -5.2800   29.2050 C.2     1  UNL1       -0.0000
      6 C         -26.2320   -4.6110   29.7840 C.2     1  UNL1       -0.0003
      7 C         -26.1550   -3.2320   30.0650 C.2     1  UNL1       -0.0026
      8 C         -25.3870   -0.6790   31.5710 C.3     1  UNL1        0.0968
      9 C         -25.1890    0.7730   32.0280 C.3     1  UNL1        0.0210
     10 C         -25.3360    0.6840   33.5440 C.3     1  UNL1        0.0203
     11 C         -24.8290   -0.7150   33.9050 C.3     1  UNL1        0.0888
     12 N         -24.7580   -1.4810   32.6460 N.3     1  UNL1       -0.2174
     13 C         -25.6880    1.6140   26.4610 C.2     1  UNL1        0.0407
     14 C         -26.2500    2.9200   26.3950 C.2     1  UNL1        0.0744
     15 C         -25.6420    4.0930   27.1230 C.2     1  UNL1        0.2231
     16 N         -25.6140    5.2520   26.4490 N.2     1  UNL1       -0.2356
     17 C         -25.0260    6.4790   26.9630 C.3     1  UNL1        0.1550
     18 O         -25.1430    3.9660   28.2430 O.2     1  UNL1       -0.4461
     19 C         -27.4380    3.0910   25.6450 C.2     1  UNL1        0.1068
     20 N         -28.0750    2.0890   25.0030 N.2     1  UNL1       -0.2081
     21 C         -27.5430    0.8490   25.0790 C.2     1  UNL1        0.2533
     22 O         -28.1930   -0.2080   24.4770 O.2     1  UNL1       -0.4558
     23 C         -29.4600    0.0050   23.8660 C.3     1  UNL1        0.2426
     24 C         -30.0650   -1.3770   23.5730 C.3     1  UNL1        0.2292
     25 O         -30.7290   -1.8780   24.7210 O.3     1  UNL1       -0.2162
     26 C         -26.3540    0.5760   25.7770 C.2     1  UNL1        0.1931
     27 F         -25.8600   -0.6810   25.7950 F       1  UNL1       -0.1992
     28 C         -22.1806    1.8114   26.6824 C.2     1  UNL1        0.0412
     29 C         -27.0805    1.7866   29.9748 C.3     1  UNL1        0.0442
     30 C         -23.1819    2.1223   27.5747 C.3     1  UNL1        0.0819
     31 C         -27.9831    2.8171   29.9680 C.3     1  UNL1        0.0773
     32 C         -22.9619    0.3978   29.1849 C.2     1  UNL1        0.0767
     33 C         -21.6194    0.1512   29.1369 C.2     1  UNL1        0.0171
     34 C         -23.6089    1.4594   28.6942 C.2     1  UNL1        0.0631
     35 N         -27.3983    3.9557   29.6182 N.3     1  UNL1       -0.2373
     36 N         -23.6291   -0.4296   29.7997 N.pl3   1  UNL1       -0.2325
     37 C         -20.7496    0.4930   28.1389 C.2     1  UNL1        0.0019
     38 C         -25.8412    2.2878   29.5534 C.3     1  UNL1        0.1496
     39 CL        -22.3498    2.2898   24.9293 Cl      1  UNL1       -0.0865
     40 C         -26.0408    3.5297   29.1268 C.3     1  UNL1        0.2497
     41 N         -24.6093    1.7668   29.5135 N.pl3   1  UNL1       -0.2367
     42 C         -27.9585    5.2788   29.7984 C.3     1  UNL1        0.0927
     43 C         -21.0079    1.1957   26.9768 C.2     1  UNL1        0.0075
@<TRIPOS>BOND
     1     1    36    1
     2     2     7    1
     3     2     1    1
     4     3     2    2
     5     4     3    1
     6     4     5    2
     7     5     6    1
     8     6     7    2
     9     8     1    1
    10     8     9    1
    11     8    12    1
    12     9    10    1
    13    10    11    1
    14    12    11    1
    15    14    13    1
    16    14    15    1
    17    15    18    1
    18    16    17    1
    19    16    15    2
    20    19    14    2
    21    20    21    2
    22    20    19    1
    23    21    26    1
    24    22    21    1
    25    23    22    1
    26    24    23    1
    27    24    25    1
    28    26    27    1
    29    26    13    2
    30    28    43    2
    31    28    30    1
    32    30    34    1
    33    31    29    1
    34    32    36    1
    35    33    32    1
    36    34    32    2
    37    34    41    1
    38    35    42    1
    39    35    31    1
    40    37    33    2
    41    38    41    1
    42    38    29    1
    43    39    28    1
    44    40    18    1
    45    40    38    1
    46    40    35    1
    47    43    37    1
