@<TRIPOS>MOLECULE
No_919-gen_results/8p0m/2024-11-27-11-27-31/
 10 10 0 0 0
SMALL
GASTEIGER

@<TRIPOS>ATOM
      1 C         -28.0162   -0.8135   28.8779 C.ar    1  UNL1        0.0012
      2 C         -27.0636   -0.1189   28.6079 C.ar    1  UNL1        0.0000
      3 C         -25.7647   -0.3897   29.0360 C.ar    1  UNL1        0.0000
      4 C         -25.5296   -1.5302   29.9014 C.ar    1  UNL1        0.0000
      5 C         -26.6888   -2.2893   30.1810 C.ar    1  UNL1        0.0012
      6 C         -27.8727   -1.9508   29.7373 C.ar    1  UNL1        0.0153
      7 C         -29.0016   -2.8142   30.1793 C.2     1  UNL1        0.0805
      8 N         -28.8271   -4.0755   30.4770 N.2     1  UNL1       -0.1527
      9 C         -30.3003   -2.2861   30.3457 C.3     1  UNL1        0.0477
     10 C         -31.3197   -3.1346   30.6859 C.3     1  UNL1        0.0068
@<TRIPOS>BOND
     1     6     7    1
     2     7     8    2
     3     7     9    1
     4     9    10    1
     5     1     2   ar
     6     2     3   ar
     7     3     4   ar
     8     4     5   ar
     9     5     6   ar
    10     6     1   ar
