@<TRIPOS>MOLECULE
outputs/IAG933/test6/raw/output_9192_IAG933_linker_design_.xyz
 42 46 0 0 0
SMALL
GASTEIGER

@<TRIPOS>ATOM
      1 C         -24.8550   -1.0120   30.1430 C.3     1  UNL1        0.1228
      2 C         -24.9730   -2.5050   29.7880 C.2     1  UNL1       -0.0138
      3 C         -23.9060   -3.1730   29.1460 C.2     1  UNL1       -0.0040
      4 C         -23.9890   -4.5490   28.8530 C.2     1  UNL1       -0.0003
      5 C         -25.1370   -5.2800   29.2050 C.2     1  UNL1       -0.0000
      6 C         -26.2320   -4.6110   29.7840 C.2     1  UNL1       -0.0003
      7 C         -26.1550   -3.2320   30.0650 C.2     1  UNL1       -0.0040
      8 C         -25.3870   -0.6790   31.5710 C.3     1  UNL1        0.0842
      9 C         -25.1890    0.7730   32.0280 C.3     1  UNL1        0.0195
     10 C         -25.3360    0.6840   33.5440 C.3     1  UNL1        0.0202
     11 C         -24.8290   -0.7150   33.9050 C.3     1  UNL1        0.0887
     12 N         -24.7580   -1.4810   32.6460 N.3     1  UNL1       -0.2189
     13 C         -25.6880    1.6140   26.4610 C.3     1  UNL1        0.0914
     14 C         -26.2500    2.9200   26.3950 C.2     1  UNL1        0.0587
     15 C         -25.6420    4.0930   27.1230 C.2     1  UNL1        0.2627
     16 N         -25.6140    5.2520   26.4490 N.am    1  UNL1       -0.2000
     17 C         -25.0260    6.4790   26.9630 C.3     1  UNL1        0.1388
     18 O         -25.1430    3.9660   28.2430 O.2     1  UNL1       -0.2686
     19 C         -27.4380    3.0910   25.6450 C.2     1  UNL1        0.1025
     20 N         -28.0750    2.0890   25.0030 N.2     1  UNL1       -0.2118
     21 C         -27.5430    0.8490   25.0790 C.2     1  UNL1        0.2344
     22 O         -28.1930   -0.2080   24.4770 O.2     1  UNL1       -0.4585
     23 C         -29.4600    0.0050   23.8660 C.3     1  UNL1        0.2423
     24 C         -30.0650   -1.3770   23.5730 C.3     1  UNL1        0.2292
     25 O         -30.7290   -1.8780   24.7210 O.3     1  UNL1       -0.2162
     26 C         -26.3540    0.5760   25.7770 C.3     1  UNL1        0.2438
     27 F         -25.8600   -0.6810   25.7950 F       1  UNL1       -0.2265
     28 C         -23.2125    2.0687   25.8555 C.3     1  UNL1        0.1876
     29 C         -21.6636   -0.0847   28.8540 C.3     1  UNL1        0.2235
     30 O         -26.1874   -0.4373   28.2800 O.2     1  UNL1       -0.2747
     31 C         -21.4981    1.5715   27.3077 C.2     1  UNL1        0.2900
     32 C         -22.4638    0.8338   28.0838 C.2     1  UNL1        0.0787
     33 O         -20.2388    1.3033   27.7864 O.2     1  UNL1       -0.4451
     34 C         -23.7976    0.9384   29.1079 C.3     1  UNL1        0.1178
     35 C         -23.4535    2.6372   24.5000 C.3     1  UNL1        0.0521
     36 C         -25.2305    0.1932   29.1460 C.3     1  UNL1        0.3603
     37 O         -22.0647   -0.7986   29.8781 O.3     1  UNL1       -0.2140
     38 O         -25.9316    1.4141   29.2506 O.2     1  UNL1       -0.2747
     39 O         -21.9379    2.1180   26.2171 O.2     1  UNL1       -0.4478
     40 C         -24.2382    1.4851   26.6839 C.2     1  UNL1       -0.0015
     41 C         -20.2797    0.0261   28.6158 C.3     1  UNL1        0.2460
     42 C         -23.5455    1.0439   27.8288 C.2     1  UNL1       -0.0142
@<TRIPOS>BOND
     1     1    36    1
     2     2     7    1
     3     2     1    1
     4     3     2    2
     5     4     3    1
     6     4     5    2
     7     5     6    1
     8     6     7    2
     9     8     1    1
    10     8     9    1
    11     8    12    1
    12     9    10    1
    13    10    11    1
    14    12    11    1
    15    13    40    1
    16    14    13    1
    17    14    15    1
    18    15    18    2
    19    16    17    1
    20    16    15    1
    21    19    14    2
    22    20    21    2
    23    20    19    1
    24    21    26    1
    25    22    21    1
    26    23    22    1
    27    24    23    1
    28    24    25    1
    29    26    27    1
    30    26    13    1
    31    28    35    1
    32    28    39    1
    33    28    40    1
    34    29    37    1
    35    30    36    1
    36    31    33    1
    37    31    32    2
    38    32    29    1
    39    33    41    1
    40    34    36    1
    41    36    38    1
    42    39    31    1
    43    40    42    2
    44    41    29    1
    45    42    32    1
    46    42    34    1
