@<TRIPOS>MOLECULE
outputs/IAG933/test6/raw/output_9196_IAG933_linker_design_.xyz
 43 47 0 0 0
SMALL
GASTEIGER

@<TRIPOS>ATOM
      1 C         -24.8550   -1.0120   30.1430 C.3     1  UNL1        0.0896
      2 C         -24.9730   -2.5050   29.7880 C.2     1  UNL1       -0.0168
      3 C         -23.9060   -3.1730   29.1460 C.2     1  UNL1       -0.0041
      4 C         -23.9890   -4.5490   28.8530 C.2     1  UNL1       -0.0003
      5 C         -25.1370   -5.2800   29.2050 C.2     1  UNL1       -0.0000
      6 C         -26.2320   -4.6110   29.7840 C.2     1  UNL1       -0.0003
      7 C         -26.1550   -3.2320   30.0650 C.2     1  UNL1       -0.0041
      8 C         -25.3870   -0.6790   31.5710 C.3     1  UNL1        0.0812
      9 C         -25.1890    0.7730   32.0280 C.3     1  UNL1        0.0193
     10 C         -25.3360    0.6840   33.5440 C.3     1  UNL1        0.0202
     11 C         -24.8290   -0.7150   33.9050 C.3     1  UNL1        0.0887
     12 N         -24.7580   -1.4810   32.6460 N.3     1  UNL1       -0.2190
     13 C         -25.6880    1.6140   26.4610 C.2     1  UNL1        0.0401
     14 C         -26.2500    2.9200   26.3950 C.2     1  UNL1        0.0766
     15 C         -25.6420    4.0930   27.1230 C.2     1  UNL1        0.2664
     16 N         -25.6140    5.2520   26.4490 N.am    1  UNL1       -0.1997
     17 C         -25.0260    6.4790   26.9630 C.3     1  UNL1        0.1388
     18 O         -25.1430    3.9660   28.2430 O.2     1  UNL1       -0.2683
     19 C         -27.4380    3.0910   25.6450 C.2     1  UNL1        0.1067
     20 N         -28.0750    2.0890   25.0030 N.2     1  UNL1       -0.2081
     21 C         -27.5430    0.8490   25.0790 C.2     1  UNL1        0.2533
     22 O         -28.1930   -0.2080   24.4770 O.2     1  UNL1       -0.4558
     23 C         -29.4600    0.0050   23.8660 C.3     1  UNL1        0.2426
     24 C         -30.0650   -1.3770   23.5730 C.3     1  UNL1        0.2292
     25 O         -30.7290   -1.8780   24.7210 O.3     1  UNL1       -0.2162
     26 C         -26.3540    0.5760   25.7770 C.2     1  UNL1        0.1931
     27 F         -25.8600   -0.6810   25.7950 F       1  UNL1       -0.1992
     28 C         -22.9595    0.4303   28.7883 C.2     1  UNL1       -0.0002
     29 N         -26.5685   -0.5795   28.4206 N.pl3   1  UNL1       -0.0306
     30 C         -25.3595    0.0174   29.0767 C.3     1  UNL1        0.2325
     31 C         -27.8381    0.1564   28.6111 C.2     1  UNL1        0.3624
     32 C         -29.9811    1.8757   28.5473 C.2     1  UNL1        0.0591
     33 F         -23.0877    2.2126   25.1078 F       1  UNL1       -0.2042
     34 C         -21.8930    1.7233   27.0517 C.2     1  UNL1        0.0296
     35 CL        -28.3769    3.6953   29.7299 Cl      1  UNL1       -0.0336
     36 C         -29.0679   -0.3304   28.0573 C.2     1  UNL1        0.0933
     37 C         -24.2261    0.5740   28.2172 C.2     1  UNL1        0.0266
     38 C         -21.8208    1.0274   28.2572 C.2     1  UNL1        0.0021
     39 C         -24.3488    1.3211   27.0006 C.2     1  UNL1        0.0299
     40 C         -30.1597    0.5794   28.0630 C.2     1  UNL1        0.0125
     41 N         -27.7518    1.2974   29.2493 N.2     1  UNL1       -0.0246
     42 C         -28.7433    2.1820   29.1353 C.2     1  UNL1        0.2512
     43 C         -23.1134    1.7749   26.3962 C.2     1  UNL1        0.1400
@<TRIPOS>BOND
     1     1    30    1
     2     2     7    1
     3     2     1    1
     4     3     2    2
     5     4     3    1
     6     4     5    2
     7     5     6    1
     8     6     7    2
     9     8     1    1
    10     8     9    1
    11     8    12    1
    12     9    10    1
    13    10    11    1
    14    12    11    1
    15    13    39    1
    16    14    13    1
    17    14    15    1
    18    15    18    2
    19    16    17    1
    20    16    15    1
    21    19    14    2
    22    20    21    2
    23    20    19    1
    24    21    26    1
    25    22    21    1
    26    23    22    1
    27    24    23    1
    28    24    25    1
    29    26    27    1
    30    26    13    2
    31    29    31    1
    32    30    29    1
    33    31    41    2
    34    32    42    2
    35    33    43    1
    36    34    38    2
    37    36    40    2
    38    36    31    1
    39    37    28    2
    40    37    30    1
    41    38    28    1
    42    39    37    1
    43    40    32    1
    44    42    41    1
    45    42    35    1
    46    43    39    2
    47    43    34    1
