@<TRIPOS>MOLECULE
outputs/IAG933/test6/raw/output_9197_IAG933_linker_design_.xyz
 42 46 0 0 0
SMALL
GASTEIGER

@<TRIPOS>ATOM
      1 C         -24.8550   -1.0120   30.1430 C.3     1  UNL1        0.1153
      2 C         -24.9730   -2.5050   29.7880 C.2     1  UNL1       -0.0029
      3 C         -23.9060   -3.1730   29.1460 C.2     1  UNL1       -0.0026
      4 C         -23.9890   -4.5490   28.8530 C.2     1  UNL1       -0.0003
      5 C         -25.1370   -5.2800   29.2050 C.2     1  UNL1       -0.0000
      6 C         -26.2320   -4.6110   29.7840 C.2     1  UNL1       -0.0003
      7 C         -26.1550   -3.2320   30.0650 C.2     1  UNL1       -0.0026
      8 C         -25.3870   -0.6790   31.5710 C.3     1  UNL1        0.0952
      9 C         -25.1890    0.7730   32.0280 C.3     1  UNL1        0.0209
     10 C         -25.3360    0.6840   33.5440 C.3     1  UNL1        0.0203
     11 C         -24.8290   -0.7150   33.9050 C.3     1  UNL1        0.0888
     12 N         -24.7580   -1.4810   32.6460 N.3     1  UNL1       -0.2174
     13 C         -25.6880    1.6140   26.4610 C.2     1  UNL1        0.0334
     14 C         -26.2500    2.9200   26.3950 C.2     1  UNL1        0.0739
     15 C         -25.6420    4.0930   27.1230 C.2     1  UNL1        0.2662
     16 N         -25.6140    5.2520   26.4490 N.am    1  UNL1       -0.1997
     17 C         -25.0260    6.4790   26.9630 C.3     1  UNL1        0.1388
     18 O         -25.1430    3.9660   28.2430 O.2     1  UNL1       -0.2683
     19 C         -27.4380    3.0910   25.6450 C.2     1  UNL1        0.1065
     20 N         -28.0750    2.0890   25.0030 N.2     1  UNL1       -0.2081
     21 C         -27.5430    0.8490   25.0790 C.2     1  UNL1        0.2530
     22 O         -28.1930   -0.2080   24.4770 O.2     1  UNL1       -0.4558
     23 C         -29.4600    0.0050   23.8660 C.3     1  UNL1        0.2426
     24 C         -30.0650   -1.3770   23.5730 C.3     1  UNL1        0.2292
     25 O         -30.7290   -1.8780   24.7210 O.3     1  UNL1       -0.2162
     26 C         -26.3540    0.5760   25.7770 C.2     1  UNL1        0.1905
     27 F         -25.8600   -0.6810   25.7950 F       1  UNL1       -0.1995
     28 O         -27.6956   -1.3176   29.0148 O.2     1  UNL1       -0.2699
     29 N         -23.5082    0.3286   28.1342 N.3     1  UNL1       -0.2517
     30 C         -29.5224    3.0321   29.6169 C.2     1  UNL1        0.0001
     31 C         -24.3360    1.2676   27.2151 C.3     1  UNL1        0.1181
     32 C         -28.4038    0.8582   29.3116 C.2     1  UNL1        0.0536
     33 C         -27.1953   -0.2137   29.1708 C.2     1  UNL1        0.2502
     34 C         -22.6349    0.1233   29.2377 C.3     1  UNL1        0.0739
     35 C         -21.2255    0.1101   28.7625 C.3     1  UNL1        0.0174
     36 C         -28.4693    2.1409   29.9395 C.2     1  UNL1        0.0045
     37 C         -24.7724    0.7827   28.5582 C.3     1  UNL1        0.1563
     38 N         -25.6719   -0.1366   29.2139 N.am    1  UNL1       -0.2593
     39 C         -20.8848    1.2635   27.8485 C.3     1  UNL1        0.0015
     40 C         -29.4703    0.4457   28.5459 C.2     1  UNL1        0.0045
     41 C         -30.4973    2.6257   28.7021 C.2     1  UNL1        0.0000
     42 C         -30.4783    1.3541   28.1550 C.2     1  UNL1        0.0001
@<TRIPOS>BOND
     1     1    38    1
     2     2     7    1
     3     2     1    1
     4     3     2    2
     5     4     3    1
     6     4     5    2
     7     5     6    1
     8     6     7    2
     9     8     1    1
    10     8     9    1
    11     8    12    1
    12     9    10    1
    13    10    11    1
    14    12    11    1
    15    14    13    1
    16    14    15    1
    17    15    18    2
    18    16    17    1
    19    16    15    1
    20    19    14    2
    21    20    21    2
    22    20    19    1
    23    21    26    1
    24    22    21    1
    25    23    22    1
    26    24    23    1
    27    24    25    1
    28    26    27    1
    29    26    13    2
    30    28    33    2
    31    29    37    1
    32    29    34    1
    33    30    36    1
    34    31    13    1
    35    31    29    1
    36    31    37    1
    37    32    36    2
    38    33    38   am
    39    33    32    1
    40    35    34    1
    41    37    38    1
    42    39    35    1
    43    40    32    1
    44    41    30    2
    45    42    40    2
    46    42    41    1
