@<TRIPOS>MOLECULE
outputs/IAG933/test6/raw/output_92_IAG933_linker_design_.xyz
 43 47 0 0 0
SMALL
GASTEIGER

@<TRIPOS>ATOM
      1 C         -24.8550   -1.0120   30.1430 C.3     1  UNL1        0.0437
      2 C         -24.9730   -2.5050   29.7880 C.2     1  UNL1       -0.0210
      3 C         -23.9060   -3.1730   29.1460 C.2     1  UNL1       -0.0042
      4 C         -23.9890   -4.5490   28.8530 C.2     1  UNL1       -0.0003
      5 C         -25.1370   -5.2800   29.2050 C.2     1  UNL1       -0.0000
      6 C         -26.2320   -4.6110   29.7840 C.2     1  UNL1       -0.0003
      7 C         -26.1550   -3.2320   30.0650 C.2     1  UNL1       -0.0042
      8 C         -25.3870   -0.6790   31.5710 C.3     1  UNL1        0.0770
      9 C         -25.1890    0.7730   32.0280 C.3     1  UNL1        0.0192
     10 C         -25.3360    0.6840   33.5440 C.3     1  UNL1        0.0202
     11 C         -24.8290   -0.7150   33.9050 C.3     1  UNL1        0.0887
     12 N         -24.7580   -1.4810   32.6460 N.3     1  UNL1       -0.2191
     13 C         -25.6880    1.6140   26.4610 C.3     1  UNL1        0.0918
     14 C         -26.2500    2.9200   26.3950 C.2     1  UNL1        0.0565
     15 C         -25.6420    4.0930   27.1230 C.2     1  UNL1        0.2625
     16 N         -25.6140    5.2520   26.4490 N.am    1  UNL1       -0.2000
     17 C         -25.0260    6.4790   26.9630 C.3     1  UNL1        0.1388
     18 O         -25.1430    3.9660   28.2430 O.2     1  UNL1       -0.2687
     19 C         -27.4380    3.0910   25.6450 C.2     1  UNL1        0.1022
     20 N         -28.0750    2.0890   25.0030 N.2     1  UNL1       -0.2119
     21 C         -27.5430    0.8490   25.0790 C.2     1  UNL1        0.2341
     22 O         -28.1930   -0.2080   24.4770 O.2     1  UNL1       -0.4585
     23 C         -29.4600    0.0050   23.8660 C.3     1  UNL1        0.2423
     24 C         -30.0650   -1.3770   23.5730 C.3     1  UNL1        0.2292
     25 O         -30.7290   -1.8780   24.7210 O.3     1  UNL1       -0.2162
     26 C         -26.3540    0.5760   25.7770 C.3     1  UNL1        0.2417
     27 F         -25.8600   -0.6810   25.7950 F       1  UNL1       -0.2268
     28 C         -24.9055   -0.2224   27.9405 C.3     1  UNL1        0.0297
     29 N         -25.2854    1.8620   28.6568 N.3     1  UNL1       -0.2116
     30 C         -24.8987    2.2552   29.9635 C.3     1  UNL1        0.1079
     31 C         -23.5119    1.6208   27.1078 C.2     1  UNL1        0.1772
     32 F         -22.9323    0.5732   30.1175 F       1  UNL1       -0.2049
     33 C         -24.0717   -0.1562   29.3570 C.3     1  UNL1        0.0678
     34 C         -24.7358    1.2725   27.5750 C.3     1  UNL1        0.1201
     35 O         -22.7569    2.0732   24.9687 O.3     1  UNL1        0.0281
     36 O         -21.6894   -0.7108   28.7595 O.3     1  UNL1       -0.2981
     37 O         -19.7884   -0.5235   27.5967 O.3     1  UNL1       -0.1864
     38 C         -22.4465    1.2472   27.7215 C.2     1  UNL1        0.0831
     39 F         -20.1992    2.1939   27.4952 F       1  UNL1       -0.2269
     40 O         -23.3903    2.4861   26.1073 O.2     1  UNL1       -0.3065
     41 C         -20.6596    0.0611   28.5169 C.3     1  UNL1        0.3081
     42 C         -21.1472    1.3179   27.7222 C.3     1  UNL1        0.2457
     43 C         -22.8356    0.2946   28.8344 C.3     1  UNL1        0.2498
@<TRIPOS>BOND
     1     1     2    1
     2     2     7    1
     3     3     2    2
     4     4     3    1
     5     4     5    2
     6     5     6    1
     7     6     7    2
     8     8     1    1
     9     8     9    1
    10     8    12    1
    11     9    10    1
    12    10    11    1
    13    12    11    1
    14    13    14    1
    15    13    34    1
    16    14    15    1
    17    15    18    2
    18    16    17    1
    19    16    15    1
    20    19    14    2
    21    20    21    2
    22    20    19    1
    23    21    26    1
    24    22    21    1
    25    23    22    1
    26    24    23    1
    27    24    25    1
    28    26    27    1
    29    26    13    1
    30    28    33    1
    31    29    30    1
    32    31    34    1
    33    31    38    2
    34    33     1    1
    35    34    28    1
    36    34    29    1
    37    35    40    1
    38    36    43    1
    39    38    42    1
    40    38    43    1
    41    40    31    1
    42    41    37    1
    43    41    36    1
    44    42    39    1
    45    42    41    1
    46    43    33    1
    47    43    32    1
