@<TRIPOS>MOLECULE
outputs/IAG933/test6/raw/output_9205_IAG933_linker_design_.xyz
 45 48 0 0 0
SMALL
GASTEIGER

@<TRIPOS>ATOM
      1 C         -24.8550   -1.0120   30.1430 C.3     1  UNL1        0.0775
      2 C         -24.9730   -2.5050   29.7880 C.2     1  UNL1       -0.0178
      3 C         -23.9060   -3.1730   29.1460 C.2     1  UNL1       -0.0041
      4 C         -23.9890   -4.5490   28.8530 C.2     1  UNL1       -0.0003
      5 C         -25.1370   -5.2800   29.2050 C.2     1  UNL1       -0.0000
      6 C         -26.2320   -4.6110   29.7840 C.2     1  UNL1       -0.0003
      7 C         -26.1550   -3.2320   30.0650 C.2     1  UNL1       -0.0041
      8 C         -25.3870   -0.6790   31.5710 C.3     1  UNL1        0.0802
      9 C         -25.1890    0.7730   32.0280 C.3     1  UNL1        0.0193
     10 C         -25.3360    0.6840   33.5440 C.3     1  UNL1        0.0202
     11 C         -24.8290   -0.7150   33.9050 C.3     1  UNL1        0.0887
     12 N         -24.7580   -1.4810   32.6460 N.3     1  UNL1       -0.2190
     13 C         -25.6880    1.6140   26.4610 C.2     1  UNL1        0.0359
     14 C         -26.2500    2.9200   26.3950 C.2     1  UNL1        0.0742
     15 C         -25.6420    4.0930   27.1230 C.2     1  UNL1        0.2662
     16 N         -25.6140    5.2520   26.4490 N.am    1  UNL1       -0.1997
     17 C         -25.0260    6.4790   26.9630 C.3     1  UNL1        0.1388
     18 O         -25.1430    3.9660   28.2430 O.2     1  UNL1       -0.2683
     19 C         -27.4380    3.0910   25.6450 C.2     1  UNL1        0.1065
     20 N         -28.0750    2.0890   25.0030 N.2     1  UNL1       -0.2081
     21 C         -27.5430    0.8490   25.0790 C.2     1  UNL1        0.2530
     22 O         -28.1930   -0.2080   24.4770 O.2     1  UNL1       -0.4558
     23 C         -29.4600    0.0050   23.8660 C.3     1  UNL1        0.2426
     24 C         -30.0650   -1.3770   23.5730 C.3     1  UNL1        0.2292
     25 O         -30.7290   -1.8780   24.7210 O.3     1  UNL1       -0.2162
     26 C         -26.3540    0.5760   25.7770 C.2     1  UNL1        0.1907
     27 F         -25.8600   -0.6810   25.7950 F       1  UNL1       -0.1995
     28 C         -29.7671    1.2595   30.0067 C.3     1  UNL1        0.0153
     29 C         -32.0068    2.5671   29.0789 C.3     1  UNL1        0.0909
     30 C         -27.7660    0.5499   28.8649 C.2     1  UNL1        0.2465
     31 N         -24.2010    0.5410   28.2116 N.am    1  UNL1       -0.2250
     32 N         -31.5235    3.5112   27.9895 N.pl3   1  UNL1       -0.3051
     33 C         -31.6930    2.8863   26.6410 C.3     1  UNL1        0.1122
     34 C         -25.3438    0.0544   28.9834 C.3     1  UNL1        0.1801
     35 N         -26.4995    0.9382   29.1677 N.am    1  UNL1       -0.1859
     36 C         -21.7918    1.9578   26.8682 C.3     1  UNL1        0.2573
     37 O         -27.9821   -0.6282   28.5995 O.2     1  UNL1       -0.2729
     38 C         -30.0431    3.9345   28.2702 C.2     1  UNL1        0.0572
     39 C         -29.0776    1.5294   28.7964 C.3     1  UNL1        0.1015
     40 C         -24.3010    1.3480   26.9653 C.3     1  UNL1        0.1276
     41 O         -22.0431    1.0013   27.8075 O.3     1  UNL1       -0.4304
     42 C         -22.9252    0.3571   28.7059 C.2     1  UNL1        0.4064
     43 C         -28.8066    3.0280   28.7069 C.2     1  UNL1       -0.0015
     44 C         -30.9425    2.0946   30.0622 C.3     1  UNL1        0.0222
     45 O         -22.3906   -0.2051   29.6454 O.2     1  UNL1       -0.2261
@<TRIPOS>BOND
     1     1    34    1
     2     2     7    1
     3     2     1    1
     4     3     2    2
     5     4     3    1
     6     4     5    2
     7     5     6    1
     8     6     7    2
     9     8     1    1
    10     8     9    1
    11     8    12    1
    12     9    10    1
    13    10    11    1
    14    12    11    1
    15    13    40    1
    16    14    13    1
    17    14    15    1
    18    15    18    2
    19    16    17    1
    20    16    15    1
    21    19    14    2
    22    20    21    2
    23    20    19    1
    24    21    26    1
    25    22    21    1
    26    23    22    1
    27    24    23    1
    28    24    25    1
    29    26    27    1
    30    26    13    2
    31    28    44    1
    32    29    44    1
    33    30    35    1
    34    31    42   am
    35    31    34    1
    36    32    38    1
    37    32    29    1
    38    33    32    1
    39    34    35    1
    40    36    41    1
    41    37    30    2
    42    38    43    2
    43    39    30    1
    44    39    28    1
    45    40    31    1
    46    41    42    1
    47    42    45    2
    48    43    39    1
