@<TRIPOS>MOLECULE
outputs/IAG933/test6/raw/output_921_IAG933_linker_design_.xyz
 43 46 0 0 0
SMALL
GASTEIGER

@<TRIPOS>ATOM
      1 C         -24.8550   -1.0120   30.1430 C.3     1  UNL1        0.0438
      2 C         -24.9730   -2.5050   29.7880 C.2     1  UNL1       -0.0208
      3 C         -23.9060   -3.1730   29.1460 C.2     1  UNL1       -0.0042
      4 C         -23.9890   -4.5490   28.8530 C.2     1  UNL1       -0.0003
      5 C         -25.1370   -5.2800   29.2050 C.2     1  UNL1       -0.0000
      6 C         -26.2320   -4.6110   29.7840 C.2     1  UNL1       -0.0003
      7 C         -26.1550   -3.2320   30.0650 C.2     1  UNL1       -0.0042
      8 C         -25.3870   -0.6790   31.5710 C.3     1  UNL1        0.0785
      9 C         -25.1890    0.7730   32.0280 C.3     1  UNL1        0.0363
     10 C         -25.3360    0.6840   33.5440 C.3     1  UNL1        0.0217
     11 C         -24.8290   -0.7150   33.9050 C.3     1  UNL1        0.0887
     12 N         -24.7580   -1.4810   32.6460 N.3     1  UNL1       -0.2191
     13 C         -25.6880    1.6140   26.4610 C.3     1  UNL1        0.1000
     14 C         -26.2500    2.9200   26.3950 C.2     1  UNL1        0.0573
     15 C         -25.6420    4.0930   27.1230 C.2     1  UNL1        0.2625
     16 N         -25.6140    5.2520   26.4490 N.am    1  UNL1       -0.2000
     17 C         -25.0260    6.4790   26.9630 C.3     1  UNL1        0.1388
     18 O         -25.1430    3.9660   28.2430 O.2     1  UNL1       -0.2687
     19 C         -27.4380    3.0910   25.6450 C.2     1  UNL1        0.1022
     20 N         -28.0750    2.0890   25.0030 N.2     1  UNL1       -0.2119
     21 C         -27.5430    0.8490   25.0790 C.2     1  UNL1        0.2342
     22 O         -28.1930   -0.2080   24.4770 O.2     1  UNL1       -0.4585
     23 C         -29.4600    0.0050   23.8660 C.3     1  UNL1        0.2423
     24 C         -30.0650   -1.3770   23.5730 C.3     1  UNL1        0.2292
     25 O         -30.7290   -1.8780   24.7210 O.3     1  UNL1       -0.2162
     26 C         -26.3540    0.5760   25.7770 C.3     1  UNL1        0.2424
     27 F         -25.8600   -0.6810   25.7950 F       1  UNL1       -0.2268
     28 N         -26.1570    2.9596   32.4236 N.3     1  UNL1       -0.2030
     29 C         -27.3782    3.0096   29.7509 C.3     1  UNL1        0.1888
     30 O         -23.4463    2.0813   29.2167 O.3     1  UNL1       -0.2150
     31 S         -26.5593    5.3365   31.5286 S.3     1  UNL1        0.0232
     32 C         -24.8614    1.1036   27.7223 C.3     1  UNL1        0.1580
     33 O         -25.8854    1.0410   28.8023 O.3     1  UNL1       -0.3515
     34 C         -23.6340    1.0199   24.2793 C.3     1  UNL1        0.1770
     35 C         -25.6481    4.3107   32.6633 C.3     1  UNL1        0.1754
     36 C         -25.9127    1.9002   31.3659 C.3     1  UNL1        0.1048
     37 F         -20.9216    1.8144   28.1649 F       1  UNL1       -0.0444
     38 O         -22.9811    2.0815   25.2288 O.3     1  UNL1       -0.3237
     39 O         -21.3407    1.2237   26.8608 O.3     1  UNL1       -0.1484
     40 O         -27.3352    4.4590   30.2488 O.3     1  UNL1       -0.2960
     41 C         -22.6732    1.6518   26.6533 C.3     1  UNL1        0.3074
     42 C         -26.3737    1.9195   30.0265 C.3     1  UNL1        0.1619
     43 C         -23.6193    1.6091   27.9298 C.3     1  UNL1        0.2383
@<TRIPOS>BOND
     1     2     7    1
     2     2     1    1
     3     3     2    2
     4     4     3    1
     5     4     5    2
     6     5     6    1
     7     6     7    2
     8     8     1    1
     9     8     9    1
    10     8    12    1
    11     9    10    1
    12    10    11    1
    13    12    11    1
    14    13    32    1
    15    14    13    1
    16    14    15    1
    17    15    18    2
    18    16    17    1
    19    16    15    1
    20    19    14    2
    21    20    21    2
    22    20    19    1
    23    21    26    1
    24    22    21    1
    25    23    22    1
    26    24    23    1
    27    24    25    1
    28    26    27    1
    29    26    13    1
    30    28    35    1
    31    29    42    1
    32    29    40    1
    33    31    35    1
    34    32    43    1
    35    32    33    1
    36    34    38    1
    37    36     9    1
    38    36    28    1
    39    39    37    1
    40    40    31    1
    41    41    38    1
    42    41    39    1
    43    41    43    1
    44    42    33    1
    45    42    36    1
    46    43    30    1
