@<TRIPOS>MOLECULE
outputs/IAG933/test6/raw/output_9210_IAG933_linker_design_.xyz
 45 49 0 0 0
SMALL
GASTEIGER

@<TRIPOS>ATOM
      1 C         -24.8550   -1.0120   30.1430 C.3     1  UNL1        0.1250
      2 C         -24.9730   -2.5050   29.7880 C.2     1  UNL1       -0.0004
      3 C         -23.9060   -3.1730   29.1460 C.2     1  UNL1       -0.0024
      4 C         -23.9890   -4.5490   28.8530 C.2     1  UNL1       -0.0003
      5 C         -25.1370   -5.2800   29.2050 C.2     1  UNL1       -0.0000
      6 C         -26.2320   -4.6110   29.7840 C.2     1  UNL1       -0.0003
      7 C         -26.1550   -3.2320   30.0650 C.2     1  UNL1       -0.0024
      8 C         -25.3870   -0.6790   31.5710 C.3     1  UNL1        0.0977
      9 C         -25.1890    0.7730   32.0280 C.3     1  UNL1        0.0211
     10 C         -25.3360    0.6840   33.5440 C.3     1  UNL1        0.0203
     11 C         -24.8290   -0.7150   33.9050 C.3     1  UNL1        0.0888
     12 N         -24.7580   -1.4810   32.6460 N.3     1  UNL1       -0.2172
     13 C         -25.6880    1.6140   26.4610 C.3     1  UNL1        0.0951
     14 C         -26.2500    2.9200   26.3950 C.2     1  UNL1        0.0590
     15 C         -25.6420    4.0930   27.1230 C.2     1  UNL1        0.2628
     16 N         -25.6140    5.2520   26.4490 N.am    1  UNL1       -0.2000
     17 C         -25.0260    6.4790   26.9630 C.3     1  UNL1        0.1388
     18 O         -25.1430    3.9660   28.2430 O.2     1  UNL1       -0.2686
     19 C         -27.4380    3.0910   25.6450 C.2     1  UNL1        0.1025
     20 N         -28.0750    2.0890   25.0030 N.2     1  UNL1       -0.2118
     21 C         -27.5430    0.8490   25.0790 C.2     1  UNL1        0.2344
     22 O         -28.1930   -0.2080   24.4770 O.2     1  UNL1       -0.4585
     23 C         -29.4600    0.0050   23.8660 C.3     1  UNL1        0.2423
     24 C         -30.0650   -1.3770   23.5730 C.3     1  UNL1        0.2292
     25 O         -30.7290   -1.8780   24.7210 O.3     1  UNL1       -0.2162
     26 C         -26.3540    0.5760   25.7770 C.3     1  UNL1        0.2441
     27 F         -25.8600   -0.6810   25.7950 F       1  UNL1       -0.2265
     28 N         -24.9693   -0.0604   29.1463 N.ar    1  UNL1       -0.3114
     29 N         -27.2640   -0.4761   29.2009 N.am    1  UNL1       -0.1623
     30 N         -29.7528   -1.0367   31.5893 N.am    1  UNL1       -0.1652
     31 C         -21.2436    0.5840   28.4163 C.2     1  UNL1        0.0015
     32 O         -31.3210   -0.2217   32.8719 O.co2   1  UNL1       -0.2207
     33 C         -30.6109   -1.2129   30.3758 C.3     1  UNL1        0.1284
     34 C         -22.3350   -0.0735   29.0303 C.2     1  UNL1        0.0172
     35 O         -28.9165   -0.2823   27.5291 O.2     1  UNL1       -0.2729
     36 C         -26.0468    0.4605   28.7345 C.ar    1  UNL1        0.1323
     37 C         -23.8133    1.0871   27.6916 C.ar    1  UNL1        0.0150
     38 O         -30.0597    1.3921   31.9140 O.co2   1  UNL1       -0.2207
     39 C         -22.7512    1.6409   26.9355 C.2     1  UNL1        0.0012
     40 C         -25.2464    1.1665   27.6868 C.ar    1  UNL1        0.0181
     41 C         -28.8510   -0.3980   29.0218 C.2     1  UNL1        0.2486
     42 C         -23.6448    0.2910   28.7011 C.ar    1  UNL1        0.0609
     43 C         -21.4347    1.4890   27.3609 C.2     1  UNL1        0.0001
     44 C         -30.3359    0.1025   32.1091 C.2     1  UNL1        0.4629
     45 C         -30.2636   -0.2651   29.5790 C.3     1  UNL1        0.1107
@<TRIPOS>BOND
     1     1     2    1
     2     2     7    1
     3     3     2    2
     4     4     3    1
     5     4     5    2
     6     5     6    1
     7     6     7    2
     8     8     1    1
     9     8     9    1
    10     8    12    1
    11     9    10    1
    12    10    11    1
    13    12    11    1
    14    13    40    1
    15    14    13    1
    16    14    15    1
    17    15    18    2
    18    16    17    1
    19    16    15    1
    20    19    14    2
    21    20    21    2
    22    20    19    1
    23    21    26    1
    24    22    21    1
    25    23    22    1
    26    24    23    1
    27    24    25    1
    28    26    27    1
    29    26    13    1
    30    28     1    1
    31    30    44    1
    32    31    34    1
    33    33    30    1
    34    35    41    2
    35    36    28   ar
    36    36    29    1
    37    37    42   ar
    38    38    44   ar
    39    39    43    1
    40    39    37    2
    41    40    37   ar
    42    40    36   ar
    43    41    29    1
    44    41    45    1
    45    42    34    2
    46    42    28   ar
    47    43    31    2
    48    44    32   ar
    49    45    33    1
