@<TRIPOS>MOLECULE
outputs/IAG933/test6/raw/output_9215_IAG933_linker_design_.xyz
 48 52 0 0 0
SMALL
GASTEIGER

@<TRIPOS>ATOM
      1 C         -24.8550   -1.0120   30.1430 C.3     1  UNL1        0.0391
      2 C         -24.9730   -2.5050   29.7880 C.2     1  UNL1       -0.0211
      3 C         -23.9060   -3.1730   29.1460 C.2     1  UNL1       -0.0042
      4 C         -23.9890   -4.5490   28.8530 C.2     1  UNL1       -0.0003
      5 C         -25.1370   -5.2800   29.2050 C.2     1  UNL1       -0.0000
      6 C         -26.2320   -4.6110   29.7840 C.2     1  UNL1       -0.0003
      7 C         -26.1550   -3.2320   30.0650 C.2     1  UNL1       -0.0042
      8 C         -25.3870   -0.6790   31.5710 C.3     1  UNL1        0.0768
      9 C         -25.1890    0.7730   32.0280 C.3     1  UNL1        0.0192
     10 C         -25.3360    0.6840   33.5440 C.3     1  UNL1        0.0202
     11 C         -24.8290   -0.7150   33.9050 C.3     1  UNL1        0.0887
     12 N         -24.7580   -1.4810   32.6460 N.3     1  UNL1       -0.2191
     13 C         -25.6880    1.6140   26.4610 C.3     1  UNL1        0.0914
     14 C         -26.2500    2.9200   26.3950 C.2     1  UNL1        0.0587
     15 C         -25.6420    4.0930   27.1230 C.2     1  UNL1        0.2627
     16 N         -25.6140    5.2520   26.4490 N.am    1  UNL1       -0.2000
     17 C         -25.0260    6.4790   26.9630 C.3     1  UNL1        0.1388
     18 O         -25.1430    3.9660   28.2430 O.2     1  UNL1       -0.2686
     19 C         -27.4380    3.0910   25.6450 C.2     1  UNL1        0.1025
     20 N         -28.0750    2.0890   25.0030 N.2     1  UNL1       -0.2118
     21 C         -27.5430    0.8490   25.0790 C.2     1  UNL1        0.2344
     22 O         -28.1930   -0.2080   24.4770 O.2     1  UNL1       -0.4585
     23 C         -29.4600    0.0050   23.8660 C.3     1  UNL1        0.2423
     24 C         -30.0650   -1.3770   23.5730 C.3     1  UNL1        0.2292
     25 O         -30.7290   -1.8780   24.7210 O.3     1  UNL1       -0.2162
     26 C         -26.3540    0.5760   25.7770 C.3     1  UNL1        0.2438
     27 F         -25.8600   -0.6810   25.7950 F       1  UNL1       -0.2265
     28 N         -34.2546    1.0562   30.6922 N.am    1  UNL1       -0.0878
     29 C         -23.3644    1.4427   27.2919 C.2     1  UNL1        0.1392
     30 O         -27.3079   -0.6595   28.5758 O.2     1  UNL1       -0.2957
     31 C         -22.5025    1.0943   28.3438 C.3     1  UNL1        0.2073
     32 C         -28.1970    0.9516   29.9844 C.3     1  UNL1        0.0767
     33 C         -31.8043    0.1215   32.1861 C.3     1  UNL1        0.0111
     34 C         -31.8070    0.7681   30.7766 C.3     1  UNL1        0.0958
     35 C         -23.0091    0.4266   29.3715 C.3     1  UNL1        0.0419
     36 C         -30.4874    1.6369   30.6697 C.3     1  UNL1        0.0819
     37 C         -24.7515    1.3220   27.4208 C.2     1  UNL1        0.0018
     38 C         -22.8711    1.7392   24.9168 C.3     1  UNL1        0.2521
     39 C         -24.4670   -0.0236   29.1596 C.3     1  UNL1        0.0191
     40 O         -22.8118    2.0601   26.2110 O.2     1  UNL1       -0.4738
     41 N         -29.4389    2.0374   31.5452 N.3     1  UNL1       -0.2185
     42 C         -33.1178    1.5411   30.6313 C.2     1  UNL1        0.2616
     43 C         -27.0927    0.3533   29.0930 C.2     1  UNL1        0.1551
     44 O         -21.1875    1.1428   27.8790 O.3     1  UNL1       -0.2150
     45 C         -29.6478    1.0444   29.5167 C.3     1  UNL1        0.0267
     46 C         -25.4886    1.0195   28.7672 C.3     1  UNL1        0.0794
     47 O         -33.0248    2.7488   30.5639 O.2     1  UNL1       -0.2716
     48 C         -28.1409    2.1217   30.8933 C.3     1  UNL1        0.0960
@<TRIPOS>BOND
     1     1     2    1
     2     2     7    1
     3     3     2    2
     4     4     3    1
     5     4     5    2
     6     5     6    1
     7     6     7    2
     8     8     1    1
     9     8     9    1
    10     8    12    1
    11     9    10    1
    12    10    11    1
    13    12    11    1
    14    13    37    1
    15    14    13    1
    16    14    15    1
    17    15    18    2
    18    16    17    1
    19    16    15    1
    20    19    14    2
    21    20    21    2
    22    20    19    1
    23    21    26    1
    24    22    21    1
    25    23    22    1
    26    24    23    1
    27    24    25    1
    28    26    27    1
    29    26    13    1
    30    29    37    2
    31    29    31    1
    32    30    43    2
    33    31    44    1
    34    31    35    1
    35    32    43    1
    36    32    48    1
    37    34    33    1
    38    36    34    1
    39    36    41    1
    40    37    46    1
    41    38    40    1
    42    39    35    1
    43    39     1    1
    44    40    29    1
    45    42    28    1
    46    42    34    1
    47    45    32    1
    48    45    36    1
    49    46    43    1
    50    46    39    1
    51    47    42    2
    52    48    41    1
