@<TRIPOS>MOLECULE
outputs/IAG933/test6/raw/output_9218_IAG933_linker_design_.xyz
 41 46 0 0 0
SMALL
GASTEIGER

@<TRIPOS>ATOM
      1 C         -24.8550   -1.0120   30.1430 C.3     1  UNL1        0.0997
      2 C         -24.9730   -2.5050   29.7880 C.2     1  UNL1       -0.0141
      3 C         -23.9060   -3.1730   29.1460 C.2     1  UNL1       -0.0038
      4 C         -23.9890   -4.5490   28.8530 C.2     1  UNL1       -0.0003
      5 C         -25.1370   -5.2800   29.2050 C.2     1  UNL1       -0.0000
      6 C         -26.2320   -4.6110   29.7840 C.2     1  UNL1       -0.0003
      7 C         -26.1550   -3.2320   30.0650 C.2     1  UNL1       -0.0038
      8 C         -25.3870   -0.6790   31.5710 C.3     1  UNL1        0.0839
      9 C         -25.1890    0.7730   32.0280 C.3     1  UNL1        0.0196
     10 C         -25.3360    0.6840   33.5440 C.3     1  UNL1        0.0203
     11 C         -24.8290   -0.7150   33.9050 C.3     1  UNL1        0.0887
     12 N         -24.7580   -1.4810   32.6460 N.3     1  UNL1       -0.2187
     13 C         -25.6880    1.6140   26.4610 C.3     1  UNL1        0.0902
     14 C         -26.2500    2.9200   26.3950 C.2     1  UNL1        0.0563
     15 C         -25.6420    4.0930   27.1230 C.2     1  UNL1        0.2625
     16 N         -25.6140    5.2520   26.4490 N.am    1  UNL1       -0.2000
     17 C         -25.0260    6.4790   26.9630 C.3     1  UNL1        0.1388
     18 O         -25.1430    3.9660   28.2430 O.2     1  UNL1       -0.2687
     19 C         -27.4380    3.0910   25.6450 C.2     1  UNL1        0.1022
     20 N         -28.0750    2.0890   25.0030 N.2     1  UNL1       -0.2119
     21 C         -27.5430    0.8490   25.0790 C.2     1  UNL1        0.2341
     22 O         -28.1930   -0.2080   24.4770 O.2     1  UNL1       -0.4585
     23 C         -29.4600    0.0050   23.8660 C.3     1  UNL1        0.2423
     24 C         -30.0650   -1.3770   23.5730 C.3     1  UNL1        0.2292
     25 O         -30.7290   -1.8780   24.7210 O.3     1  UNL1       -0.2162
     26 C         -26.3540    0.5760   25.7770 C.3     1  UNL1        0.2415
     27 F         -25.8600   -0.6810   25.7950 F       1  UNL1       -0.2268
     28 C         -24.0604    0.6544   28.6180 C.3     1  UNL1        0.2376
     29 O         -26.2886   -0.1044   28.5540 O.2     1  UNL1       -0.2916
     30 O         -21.8854    1.6015   25.9315 O.3     1  UNL1       -0.3097
     31 C         -20.8109    0.0805   28.5946 C.3     1  UNL1        0.1757
     32 O         -22.9223    0.2178   29.3418 O.3     1  UNL1       -0.3320
     33 C         -25.1801   -0.1046   29.0035 C.2     1  UNL1        0.1985
     34 N         -23.5414    0.8948   27.4144 N.3     1  UNL1       -0.2158
     35 C         -22.0952    0.6221   27.1470 C.3     1  UNL1        0.2110
     36 O         -20.0230    1.1581   28.2501 O.3     1  UNL1       -0.3470
     37 C         -24.2027    1.4172   26.3656 C.3     1  UNL1        0.1311
     38 C         -21.5537   -0.6386   29.5186 C.3     1  UNL1        0.1762
     39 C         -21.7511    1.3938   28.4004 C.3     1  UNL1        0.1876
     40 F         -23.2116    1.5077   24.0704 F       1  UNL1       -0.2025
     41 C         -23.2053    1.6616   25.3435 C.3     1  UNL1        0.2947
@<TRIPOS>BOND
     1     1    33    1
     2     2     7    1
     3     2     1    1
     4     3     2    2
     5     4     3    1
     6     4     5    2
     7     5     6    1
     8     6     7    2
     9     8     1    1
    10     8     9    1
    11     8    12    1
    12     9    10    1
    13    10    11    1
    14    12    11    1
    15    13    14    1
    16    14    15    1
    17    15    18    2
    18    16    17    1
    19    16    15    1
    20    19    14    2
    21    20    21    2
    22    20    19    1
    23    21    26    1
    24    22    21    1
    25    23    22    1
    26    24    23    1
    27    24    25    1
    28    26    27    1
    29    26    13    1
    30    28    33    1
    31    28    32    1
    32    29    33    2
    33    30    35    1
    34    31    38    1
    35    32    38    1
    36    34    28    1
    37    35    34    1
    38    35    39    1
    39    36    39    1
    40    36    31    1
    41    37    13    1
    42    37    34    1
    43    39    31    1
    44    40    41    1
    45    41    30    1
    46    41    37    1
