@<TRIPOS>MOLECULE
outputs/IAG933/test6/raw/output_9219_IAG933_linker_design_.xyz
 45 49 0 0 0
SMALL
GASTEIGER

@<TRIPOS>ATOM
      1 C         -24.8550   -1.0120   30.1430 C.3     1  UNL1        0.0586
      2 C         -24.9730   -2.5050   29.7880 C.2     1  UNL1       -0.0195
      3 C         -23.9060   -3.1730   29.1460 C.2     1  UNL1       -0.0042
      4 C         -23.9890   -4.5490   28.8530 C.2     1  UNL1       -0.0003
      5 C         -25.1370   -5.2800   29.2050 C.2     1  UNL1       -0.0000
      6 C         -26.2320   -4.6110   29.7840 C.2     1  UNL1       -0.0003
      7 C         -26.1550   -3.2320   30.0650 C.2     1  UNL1       -0.0042
      8 C         -25.3870   -0.6790   31.5710 C.3     1  UNL1        0.0785
      9 C         -25.1890    0.7730   32.0280 C.3     1  UNL1        0.0192
     10 C         -25.3360    0.6840   33.5440 C.3     1  UNL1        0.0202
     11 C         -24.8290   -0.7150   33.9050 C.3     1  UNL1        0.0887
     12 N         -24.7580   -1.4810   32.6460 N.3     1  UNL1       -0.2191
     13 C         -25.6880    1.6140   26.4610 C.2     1  UNL1        0.0401
     14 C         -26.2500    2.9200   26.3950 C.2     1  UNL1        0.0766
     15 C         -25.6420    4.0930   27.1230 C.2     1  UNL1        0.2664
     16 N         -25.6140    5.2520   26.4490 N.am    1  UNL1       -0.1997
     17 C         -25.0260    6.4790   26.9630 C.3     1  UNL1        0.1388
     18 O         -25.1430    3.9660   28.2430 O.2     1  UNL1       -0.2683
     19 C         -27.4380    3.0910   25.6450 C.2     1  UNL1        0.1067
     20 N         -28.0750    2.0890   25.0030 N.2     1  UNL1       -0.2081
     21 C         -27.5430    0.8490   25.0790 C.2     1  UNL1        0.2533
     22 O         -28.1930   -0.2080   24.4770 O.2     1  UNL1       -0.4558
     23 C         -29.4600    0.0050   23.8660 C.3     1  UNL1        0.2426
     24 C         -30.0650   -1.3770   23.5730 C.3     1  UNL1        0.2292
     25 O         -30.7290   -1.8780   24.7210 O.3     1  UNL1       -0.2162
     26 C         -26.3540    0.5760   25.7770 C.2     1  UNL1        0.1931
     27 F         -25.8600   -0.6810   25.7950 F       1  UNL1       -0.1992
     28 CL        -20.6475    1.2056   27.6525 Cl      1  UNL1       -0.0766
     29 C         -22.3994    1.1655   27.6965 C.2     1  UNL1        0.1235
     30 C         -23.0741    0.6554   28.7456 C.2     1  UNL1        0.2057
     31 C         -28.3609    2.6823   29.9571 C.3     1  UNL1        0.0935
     32 C         -27.7576   -0.0685   29.1865 C.3     1  UNL1        0.1740
     33 C         -24.5912    1.2209   27.2398 C.2     1  UNL1        0.0314
     34 C         -29.9062    2.7994   28.2589 C.3     1  UNL1        0.0935
     35 O         -22.5085    0.2181   29.7933 O.2     1  UNL1       -0.2859
     36 C         -23.1284    1.6455   26.7323 C.2     1  UNL1        0.1536
     37 N         -26.7133   -0.1700   28.4474 N.3     1  UNL1       -0.2050
     38 C         -29.0163    4.0266   29.9925 C.3     1  UNL1        0.0233
     39 C         -25.3977   -0.0838   29.1030 C.3     1  UNL1        0.1040
     40 O         -29.7401   -0.3551   28.7759 O.2     1  UNL1       -0.2733
     41 C         -29.7493    4.1890   28.7011 C.3     1  UNL1        0.0233
     42 N         -29.0338    1.9675   29.0634 N.am    1  UNL1       -0.2784
     43 C         -24.4177    0.5752   28.4142 C.2     1  UNL1        0.0361
     44 F         -22.5930    2.3952   25.6317 F       1  UNL1       -0.2032
     45 C         -28.9211    0.6678   29.0590 C.2     1  UNL1        0.2434
@<TRIPOS>BOND
     1     1    39    1
     2     2     7    1
     3     2     1    1
     4     3     2    2
     5     4     3    1
     6     4     5    2
     7     5     6    1
     8     6     7    2
     9     8     1    1
    10     8     9    1
    11     8    12    1
    12     9    10    1
    13    10    11    1
    14    12    11    1
    15    13    33    1
    16    14    13    1
    17    14    15    1
    18    15    18    2
    19    16    17    1
    20    16    15    1
    21    19    14    2
    22    20    21    2
    23    20    19    1
    24    21    26    1
    25    22    21    1
    26    23    22    1
    27    24    23    1
    28    24    25    1
    29    26    27    1
    30    26    13    2
    31    28    29    1
    32    29    30    1
    33    30    35    2
    34    31    38    1
    35    33    43    2
    36    34    41    1
    37    34    42    1
    38    36    33    1
    39    36    29    2
    40    37    32    1
    41    39    37    1
    42    40    45    2
    43    41    38    1
    44    42    31    1
    45    43    30    1
    46    43    39    1
    47    44    36    1
    48    45    42   am
    49    45    32    1
