@<TRIPOS>MOLECULE
outputs/IAG933/test6/raw/output_922_IAG933_linker_design_.xyz
 46 50 0 0 0
SMALL
GASTEIGER

@<TRIPOS>ATOM
      1 C         -24.8550   -1.0120   30.1430 C.3     1  UNL1        0.0439
      2 C         -24.9730   -2.5050   29.7880 C.2     1  UNL1       -0.0208
      3 C         -23.9060   -3.1730   29.1460 C.2     1  UNL1       -0.0042
      4 C         -23.9890   -4.5490   28.8530 C.2     1  UNL1       -0.0003
      5 C         -25.1370   -5.2800   29.2050 C.2     1  UNL1       -0.0000
      6 C         -26.2320   -4.6110   29.7840 C.2     1  UNL1       -0.0003
      7 C         -26.1550   -3.2320   30.0650 C.2     1  UNL1       -0.0042
      8 C         -25.3870   -0.6790   31.5710 C.3     1  UNL1        0.0772
      9 C         -25.1890    0.7730   32.0280 C.3     1  UNL1        0.0192
     10 C         -25.3360    0.6840   33.5440 C.3     1  UNL1        0.0202
     11 C         -24.8290   -0.7150   33.9050 C.3     1  UNL1        0.0887
     12 N         -24.7580   -1.4810   32.6460 N.3     1  UNL1       -0.2191
     13 C         -25.6880    1.6140   26.4610 C.3     1  UNL1        0.0935
     14 C         -26.2500    2.9200   26.3950 C.2     1  UNL1        0.0589
     15 C         -25.6420    4.0930   27.1230 C.2     1  UNL1        0.2628
     16 N         -25.6140    5.2520   26.4490 N.am    1  UNL1       -0.2000
     17 C         -25.0260    6.4790   26.9630 C.3     1  UNL1        0.1388
     18 O         -25.1430    3.9660   28.2430 O.2     1  UNL1       -0.2686
     19 C         -27.4380    3.0910   25.6450 C.2     1  UNL1        0.1025
     20 N         -28.0750    2.0890   25.0030 N.2     1  UNL1       -0.2118
     21 C         -27.5430    0.8490   25.0790 C.2     1  UNL1        0.2344
     22 O         -28.1930   -0.2080   24.4770 O.2     1  UNL1       -0.4585
     23 C         -29.4600    0.0050   23.8660 C.3     1  UNL1        0.2423
     24 C         -30.0650   -1.3770   23.5730 C.3     1  UNL1        0.2292
     25 O         -30.7290   -1.8780   24.7210 O.3     1  UNL1       -0.2162
     26 C         -26.3540    0.5760   25.7770 C.3     1  UNL1        0.2440
     27 F         -25.8600   -0.6810   25.7950 F       1  UNL1       -0.2265
     28 C         -27.7463    6.4358   29.4573 C.2     1  UNL1       -0.0002
     29 O         -27.6901    2.3090   29.7000 O.3     1  UNL1       -0.3490
     30 C         -28.2405    5.1856   29.8817 C.2     1  UNL1       -0.0019
     31 C         -22.0878    2.1285   26.1124 C.2     1  UNL1       -0.0200
     32 C         -27.5067    4.4040   30.8140 C.2     1  UNL1        0.0073
     33 C         -25.8464    6.1999   30.9482 C.2     1  UNL1       -0.0002
     34 C         -25.2329   -0.1344   28.9244 C.3     1  UNL1        0.0454
     35 C         -21.3974    1.8066   27.2835 C.3     1  UNL1        0.0729
     36 C         -26.5488    6.9414   29.9980 C.2     1  UNL1       -0.0000
     37 C         -24.4122    1.4388   26.8479 C.2     1  UNL1       -0.0018
     38 C         -21.9122    1.2512   28.4399 C.2     1  UNL1        0.0767
     39 C         -27.9516   -0.0609   29.0752 C.3     1  UNL1        0.0325
     40 C         -24.2339    0.7039   28.2567 C.2     1  UNL1        0.0550
     41 C         -26.3656    4.9564   31.4011 C.2     1  UNL1       -0.0019
     42 C         -26.5632   -0.2434   28.5370 C.3     1  UNL1        0.0089
     43 N         -23.0659    0.8276   28.9261 N.2     1  UNL1       -0.2528
     44 C         -27.8907    2.8928   30.9927 C.3     1  UNL1        0.1686
     45 C         -28.5910    1.3372   29.1664 C.3     1  UNL1        0.1426
     46 C         -23.4479    1.9015   25.9013 C.2     1  UNL1       -0.0069
@<TRIPOS>BOND
     1     1    34    1
     2     2     7    1
     3     2     1    1
     4     3     2    2
     5     4     3    1
     6     4     5    2
     7     5     6    1
     8     6     7    2
     9     8     1    1
    10     8     9    1
    11     8    12    1
    12     9    10    1
    13    10    11    1
    14    12    11    1
    15    13    37    1
    16    14    13    1
    17    14    15    1
    18    15    18    2
    19    16    17    1
    20    16    15    1
    21    19    14    2
    22    20    21    2
    23    20    19    1
    24    21    26    1
    25    22    21    1
    26    23    22    1
    27    24    23    1
    28    24    25    1
    29    26    27    1
    30    26    13    1
    31    28    30    2
    32    28    36    1
    33    29    44    1
    34    30    32    1
    35    31    35    1
    36    32    44    1
    37    32    41    2
    38    33    41    1
    39    34    42    1
    40    35    38    1
    41    36    33    2
    42    37    40    2
    43    38    43    2
    44    39    45    1
    45    40    34    1
    46    40    43    1
    47    42    39    1
    48    45    29    1
    49    46    31    2
    50    46    37    1
