@<TRIPOS>MOLECULE
outputs/IAG933/test6/raw/output_9221_IAG933_linker_design_.xyz
 45 50 0 0 0
SMALL
GASTEIGER

@<TRIPOS>ATOM
      1 C         -24.8550   -1.0120   30.1430 C.3     1  UNL1        0.0674
      2 C         -24.9730   -2.5050   29.7880 C.2     1  UNL1       -0.0165
      3 C         -23.9060   -3.1730   29.1460 C.2     1  UNL1       -0.0039
      4 C         -23.9890   -4.5490   28.8530 C.2     1  UNL1       -0.0003
      5 C         -25.1370   -5.2800   29.2050 C.2     1  UNL1       -0.0000
      6 C         -26.2320   -4.6110   29.7840 C.2     1  UNL1       -0.0003
      7 C         -26.1550   -3.2320   30.0650 C.2     1  UNL1       -0.0039
      8 C         -25.3870   -0.6790   31.5710 C.3     1  UNL1        0.0814
      9 C         -25.1890    0.7730   32.0280 C.3     1  UNL1        0.0195
     10 C         -25.3360    0.6840   33.5440 C.3     1  UNL1        0.0203
     11 C         -24.8290   -0.7150   33.9050 C.3     1  UNL1        0.0887
     12 N         -24.7580   -1.4810   32.6460 N.3     1  UNL1       -0.2188
     13 C         -25.6880    1.6140   26.4610 C.2     1  UNL1        0.0469
     14 C         -26.2500    2.9200   26.3950 C.2     1  UNL1        0.0752
     15 C         -25.6420    4.0930   27.1230 C.2     1  UNL1        0.2662
     16 N         -25.6140    5.2520   26.4490 N.am    1  UNL1       -0.1997
     17 C         -25.0260    6.4790   26.9630 C.3     1  UNL1        0.1388
     18 O         -25.1430    3.9660   28.2430 O.2     1  UNL1       -0.2683
     19 C         -27.4380    3.0910   25.6450 C.2     1  UNL1        0.1065
     20 N         -28.0750    2.0890   25.0030 N.2     1  UNL1       -0.2081
     21 C         -27.5430    0.8490   25.0790 C.2     1  UNL1        0.2531
     22 O         -28.1930   -0.2080   24.4770 O.2     1  UNL1       -0.4558
     23 C         -29.4600    0.0050   23.8660 C.3     1  UNL1        0.2426
     24 C         -30.0650   -1.3770   23.5730 C.3     1  UNL1        0.2292
     25 O         -30.7290   -1.8780   24.7210 O.3     1  UNL1       -0.2162
     26 C         -26.3540    0.5760   25.7770 C.2     1  UNL1        0.1917
     27 F         -25.8600   -0.6810   25.7950 F       1  UNL1       -0.1995
     28 O         -30.0872   -0.6354   28.9283 O.3     1  UNL1       -0.2161
     29 C         -29.6131    1.7175   29.6442 C.3     1  UNL1        0.1126
     30 C         -21.5319    0.8602   27.7608 C.3     1  UNL1        0.1957
     31 O         -23.2737    1.9531   26.2880 O.3     1  UNL1       -0.3218
     32 C         -29.4284    4.1301   28.7950 C.3     1  UNL1        0.1066
     33 C         -29.1369    0.2948   29.2323 C.3     1  UNL1        0.1974
     34 C         -25.3216   -0.0206   29.0135 C.2     1  UNL1        0.0154
     35 O         -21.1050    1.8401   27.5440 O.3     1  UNL1       -0.3212
     36 C         -22.4754    0.3515   28.5751 C.2     1  UNL1        0.0067
     37 C         -29.9470    4.8296   27.5171 C.3     1  UNL1        0.1612
     38 C         -26.6514    0.1525   28.6715 C.1     1  UNL1       -0.1074
     39 C         -24.3233    1.3853   26.9149 C.3     1  UNL1        0.1649
     40 C         -24.0846    0.6752   28.2955 C.2     1  UNL1        0.0105
     41 C         -30.6988    2.5102   27.6183 C.3     1  UNL1        0.2201
     42 O         -30.9870    3.8556   26.9898 O.3     1  UNL1       -0.3358
     43 N         -29.7677    2.7016   28.6306 N.3     1  UNL1       -0.2423
     44 C         -27.9548    0.3581   28.2957 C.2     1  UNL1        0.0486
     45 C         -22.0831    1.4467   26.7449 C.3     1  UNL1        0.2687
@<TRIPOS>BOND
     1     1    34    1
     2     2     7    1
     3     2     1    1
     4     3     2    2
     5     4     3    1
     6     4     5    2
     7     5     6    1
     8     6     7    2
     9     8     1    1
    10     8     9    1
    11     8    12    1
    12     9    10    1
    13    10    11    1
    14    12    11    1
    15    14    13    1
    16    14    15    1
    17    15    18    2
    18    16    17    1
    19    16    15    1
    20    19    14    2
    21    20    21    2
    22    20    19    1
    23    21    26    1
    24    22    21    1
    25    23    22    1
    26    24    23    1
    27    24    25    1
    28    26    27    1
    29    26    13    2
    30    30    36    1
    31    31    39    1
    32    33    28    1
    33    33    29    1
    34    35    30    1
    35    37    32    1
    36    38    34    2
    37    39    13    1
    38    39    40    1
    39    40    36    2
    40    40    34    1
    41    41    43    1
    42    42    37    1
    43    42    41    1
    44    43    32    1
    45    43    29    1
    46    44    38    2
    47    44    33    1
    48    45    31    1
    49    45    35    1
    50    45    30    1
