@<TRIPOS>MOLECULE
outputs/IAG933/test6/raw/output_9228_IAG933_linker_design_.xyz
 40 44 0 0 0
SMALL
GASTEIGER

@<TRIPOS>ATOM
      1 C         -24.8550   -1.0120   30.1430 C.3     1  UNL1        0.0958
      2 C         -24.9730   -2.5050   29.7880 C.2     1  UNL1       -0.0142
      3 C         -23.9060   -3.1730   29.1460 C.2     1  UNL1       -0.0038
      4 C         -23.9890   -4.5490   28.8530 C.2     1  UNL1       -0.0003
      5 C         -25.1370   -5.2800   29.2050 C.2     1  UNL1       -0.0000
      6 C         -26.2320   -4.6110   29.7840 C.2     1  UNL1       -0.0003
      7 C         -26.1550   -3.2320   30.0650 C.2     1  UNL1       -0.0038
      8 C         -25.3870   -0.6790   31.5710 C.3     1  UNL1        0.0838
      9 C         -25.1890    0.7730   32.0280 C.3     1  UNL1        0.0196
     10 C         -25.3360    0.6840   33.5440 C.3     1  UNL1        0.0203
     11 C         -24.8290   -0.7150   33.9050 C.3     1  UNL1        0.0887
     12 N         -24.7580   -1.4810   32.6460 N.3     1  UNL1       -0.2187
     13 C         -25.6880    1.6140   26.4610 C.2     1  UNL1        0.0240
     14 C         -26.2500    2.9200   26.3950 C.2     1  UNL1        0.0728
     15 C         -25.6420    4.0930   27.1230 C.2     1  UNL1        0.2661
     16 N         -25.6140    5.2520   26.4490 N.am    1  UNL1       -0.1997
     17 C         -25.0260    6.4790   26.9630 C.3     1  UNL1        0.1388
     18 O         -25.1430    3.9660   28.2430 O.2     1  UNL1       -0.2683
     19 C         -27.4380    3.0910   25.6450 C.2     1  UNL1        0.1064
     20 N         -28.0750    2.0890   25.0030 N.2     1  UNL1       -0.2081
     21 C         -27.5430    0.8490   25.0790 C.2     1  UNL1        0.2530
     22 O         -28.1930   -0.2080   24.4770 O.2     1  UNL1       -0.4558
     23 C         -29.4600    0.0050   23.8660 C.3     1  UNL1        0.2426
     24 C         -30.0650   -1.3770   23.5730 C.3     1  UNL1        0.2292
     25 O         -30.7290   -1.8780   24.7210 O.3     1  UNL1       -0.2162
     26 C         -26.3540    0.5760   25.7770 C.2     1  UNL1        0.1894
     27 F         -25.8600   -0.6810   25.7950 F       1  UNL1       -0.1996
     28 O         -26.4861   -0.1370   28.6272 O.2     1  UNL1       -0.2956
     29 C         -21.1923    1.3453   27.8728 C.3     1  UNL1        0.2393
     30 F         -23.3556    1.1579   24.9918 F       1  UNL1       -0.1742
     31 C         -23.0638    1.6523   26.2273 C.3     1  UNL1        0.3714
     32 C         -25.3361   -0.1623   28.9707 C.2     1  UNL1        0.1582
     33 C         -21.8638   -0.5442   29.1889 C.3     1  UNL1        0.0353
     34 O         -22.1602    1.7265   28.8956 O.3     1  UNL1       -0.3325
     35 F         -23.1369    2.8652   25.7754 F       1  UNL1       -0.1742
     36 C         -24.3697    1.3801   27.0650 C.3     1  UNL1        0.1245
     37 O         -21.7772    1.0370   26.5651 O.3     1  UNL1       -0.2805
     38 C         -20.5709    0.0074   28.4943 C.3     1  UNL1        0.0640
     39 C         -22.9641    0.3428   28.8335 C.3     1  UNL1        0.1254
     40 C         -24.1936    0.6088   28.2319 C.3     1  UNL1        0.0972
@<TRIPOS>BOND
     1     1    32    1
     2     2     7    1
     3     2     1    1
     4     3     2    2
     5     4     3    1
     6     4     5    2
     7     5     6    1
     8     6     7    2
     9     8     1    1
    10     8     9    1
    11     8    12    1
    12     9    10    1
    13    10    11    1
    14    12    11    1
    15    14    13    1
    16    14    15    1
    17    15    18    2
    18    16    17    1
    19    16    15    1
    20    19    14    2
    21    20    21    2
    22    20    19    1
    23    21    26    1
    24    22    21    1
    25    23    22    1
    26    24    23    1
    27    24    25    1
    28    26    27    1
    29    26    13    2
    30    28    32    2
    31    29    38    1
    32    29    34    1
    33    30    31    1
    34    31    37    1
    35    31    36    1
    36    35    31    1
    37    36    13    1
    38    36    40    1
    39    37    29    1
    40    38    33    1
    41    39    34    1
    42    39    33    1
    43    40    39    1
    44    40    32    1
