@<TRIPOS>MOLECULE
outputs/IAG933/test6/raw/output_923_IAG933_linker_design_.xyz
 39 42 0 0 0
SMALL
GASTEIGER

@<TRIPOS>ATOM
      1 C         -24.8550   -1.0120   30.1430 C.3     1  UNL1        0.1186
      2 C         -24.9730   -2.5050   29.7880 C.2     1  UNL1       -0.0026
      3 C         -23.9060   -3.1730   29.1460 C.2     1  UNL1       -0.0026
      4 C         -23.9890   -4.5490   28.8530 C.2     1  UNL1       -0.0003
      5 C         -25.1370   -5.2800   29.2050 C.2     1  UNL1       -0.0000
      6 C         -26.2320   -4.6110   29.7840 C.2     1  UNL1       -0.0003
      7 C         -26.1550   -3.2320   30.0650 C.2     1  UNL1       -0.0026
      8 C         -25.3870   -0.6790   31.5710 C.3     1  UNL1        0.0955
      9 C         -25.1890    0.7730   32.0280 C.3     1  UNL1        0.0209
     10 C         -25.3360    0.6840   33.5440 C.3     1  UNL1        0.0203
     11 C         -24.8290   -0.7150   33.9050 C.3     1  UNL1        0.0888
     12 N         -24.7580   -1.4810   32.6460 N.3     1  UNL1       -0.2174
     13 C         -25.6880    1.6140   26.4610 C.2     1  UNL1        0.1832
     14 C         -26.2500    2.9200   26.3950 C.2     1  UNL1        0.1111
     15 C         -25.6420    4.0930   27.1230 C.2     1  UNL1        0.2694
     16 N         -25.6140    5.2520   26.4490 N.am    1  UNL1       -0.1996
     17 C         -25.0260    6.4790   26.9630 C.3     1  UNL1        0.1388
     18 O         -25.1430    3.9660   28.2430 O.2     1  UNL1       -0.2682
     19 C         -27.4380    3.0910   25.6450 C.2     1  UNL1        0.1098
     20 N         -28.0750    2.0890   25.0030 N.2     1  UNL1       -0.2079
     21 C         -27.5430    0.8490   25.0790 C.2     1  UNL1        0.2564
     22 O         -28.1930   -0.2080   24.4770 O.2     1  UNL1       -0.4558
     23 C         -29.4600    0.0050   23.8660 C.3     1  UNL1        0.2426
     24 C         -30.0650   -1.3770   23.5730 C.3     1  UNL1        0.2292
     25 O         -30.7290   -1.8780   24.7210 O.3     1  UNL1       -0.2162
     26 C         -26.3540    0.5760   25.7770 C.2     1  UNL1        0.2273
     27 F         -25.8600   -0.6810   25.7950 F       1  UNL1       -0.1960
     28 O         -27.5379   -0.4557   28.6618 O.2     1  UNL1       -0.2646
     29 C         -21.4872    1.5179   27.6897 C.2     1  UNL1        0.1537
     30 C         -21.4099    0.6838   28.7825 C.2     1  UNL1        0.0320
     31 N         -25.0610   -0.0217   29.0941 N.am    1  UNL1       -0.2450
     32 C         -22.5847    0.1399   29.2655 C.2     1  UNL1        0.0204
     33 C         -26.5744    0.2955   28.8359 C.2     1  UNL1        0.3073
     34 C         -23.7175    1.1049   27.5069 C.2     1  UNL1        0.1716
     35 O         -24.6790    1.2897   26.9848 O.2     1  UNL1       -0.4487
     36 C         -23.7567    0.4466   28.6231 C.2     1  UNL1        0.0902
     37 C         -22.6573    1.7051   26.9872 C.2     1  UNL1        0.1207
     38 F         -20.4037    2.2049   27.3236 F       1  UNL1       -0.2032
     39 CL        -22.7422    2.6093   25.5673 Cl      1  UNL1       -0.0767
@<TRIPOS>BOND
     1     1    31    1
     2     2     7    1
     3     2     1    1
     4     3     2    2
     5     4     3    1
     6     4     5    2
     7     5     6    1
     8     6     7    2
     9     8     1    1
    10     8     9    1
    11     8    12    1
    12     9    10    1
    13    10    11    1
    14    12    11    1
    15    13    35    1
    16    14    13    1
    17    14    15    1
    18    15    18    2
    19    16    17    1
    20    16    15    1
    21    19    14    2
    22    20    21    2
    23    20    19    1
    24    21    26    1
    25    22    21    1
    26    23    22    1
    27    24    23    1
    28    24    25    1
    29    26    27    1
    30    26    13    2
    31    28    33    2
    32    29    30    1
    33    30    32    2
    34    33    31   am
    35    34    36    2
    36    35    34    1
    37    36    31    1
    38    36    32    1
    39    37    34    1
    40    37    29    2
    41    38    29    1
    42    39    37    1
