@<TRIPOS>MOLECULE
outputs/IAG933/test6/raw/output_9230_IAG933_linker_design_.xyz
 41 44 0 0 0
SMALL
GASTEIGER

@<TRIPOS>ATOM
      1 C         -24.8550   -1.0120   30.1430 C.3     1  UNL1        0.0438
      2 C         -24.9730   -2.5050   29.7880 C.2     1  UNL1       -0.0208
      3 C         -23.9060   -3.1730   29.1460 C.2     1  UNL1       -0.0042
      4 C         -23.9890   -4.5490   28.8530 C.2     1  UNL1       -0.0003
      5 C         -25.1370   -5.2800   29.2050 C.2     1  UNL1       -0.0000
      6 C         -26.2320   -4.6110   29.7840 C.2     1  UNL1       -0.0003
      7 C         -26.1550   -3.2320   30.0650 C.2     1  UNL1       -0.0042
      8 C         -25.3870   -0.6790   31.5710 C.3     1  UNL1        0.0791
      9 C         -25.1890    0.7730   32.0280 C.3     1  UNL1        0.0428
     10 C         -25.3360    0.6840   33.5440 C.3     1  UNL1        0.0222
     11 C         -24.8290   -0.7150   33.9050 C.3     1  UNL1        0.0888
     12 N         -24.7580   -1.4810   32.6460 N.3     1  UNL1       -0.2191
     13 C         -25.6880    1.6140   26.4610 C.3     1  UNL1        0.1267
     14 C         -26.2500    2.9200   26.3950 C.2     1  UNL1        0.0620
     15 C         -25.6420    4.0930   27.1230 C.2     1  UNL1        0.2629
     16 N         -25.6140    5.2520   26.4490 N.am    1  UNL1       -0.2000
     17 C         -25.0260    6.4790   26.9630 C.3     1  UNL1        0.1388
     18 O         -25.1430    3.9660   28.2430 O.2     1  UNL1       -0.2686
     19 C         -27.4380    3.0910   25.6450 C.2     1  UNL1        0.1026
     20 N         -28.0750    2.0890   25.0030 N.2     1  UNL1       -0.2118
     21 C         -27.5430    0.8490   25.0790 C.2     1  UNL1        0.2345
     22 O         -28.1930   -0.2080   24.4770 O.2     1  UNL1       -0.4585
     23 C         -29.4600    0.0050   23.8660 C.3     1  UNL1        0.2423
     24 C         -30.0650   -1.3770   23.5730 C.3     1  UNL1        0.2292
     25 O         -30.7290   -1.8780   24.7210 O.3     1  UNL1       -0.2162
     26 C         -26.3540    0.5760   25.7770 C.3     1  UNL1        0.2471
     27 F         -25.8600   -0.6810   25.7950 F       1  UNL1       -0.2264
     28 C         -25.8885    3.2726   31.8736 C.3     1  UNL1        0.2062
     29 C         -24.4413    1.4069   26.7392 C.2     1  UNL1        0.1283
     30 O         -23.5510    1.2485   25.6444 O.2     1  UNL1       -0.4312
     31 C         -23.7139    1.5101   27.9025 C.2     1  UNL1        0.0564
     32 O         -22.6662   -0.4232   29.5598 O.3     1  UNL1       -0.2173
     33 CA        -25.6961    2.0121   31.1963 C.3     1  UNL1        0.1375
     34 C         -22.4945    2.1654   25.6234 C.3     1  UNL1        0.4699
     35 F         -23.1691    3.3020   25.6157 F       1  UNL1       -0.1587
     36 O         -24.8891    4.2400   31.9637 O.3     1  UNL1       -0.2183
     37 C         -22.3596    1.3401   27.8005 C.3     1  UNL1        0.1807
     38 C         -21.8041    0.5659   28.8761 C.3     1  UNL1        0.2163
     39 O         -21.6590    1.8328   26.7300 O.3     1  UNL1       -0.2877
     40 C         -24.2342    1.6392   29.1710 C.2     1  UNL1        0.0940
     41 N         -25.4325    1.8008   29.8547 N.2     1  UNL1       -0.2683
@<TRIPOS>BOND
     1     2     7    1
     2     2     1    1
     3     3     2    2
     4     4     3    1
     5     4     5    2
     6     5     6    1
     7     6     7    2
     8     8     1    1
     9     8     9    1
    10     8    12    1
    11     9    33    1
    12     9    10    1
    13    10    11    1
    14    12    11    1
    15    13    29    1
    16    14    13    1
    17    14    15    1
    18    15    18    2
    19    16    17    1
    20    16    15    1
    21    19    14    2
    22    20    21    2
    23    20    19    1
    24    21    26    1
    25    22    21    1
    26    23    22    1
    27    24    23    1
    28    24    25    1
    29    26    27    1
    30    26    13    1
    31    28    36    1
    32    29    31    2
    33    30    29    1
    34    31    40    1
    35    33    28    1
    36    34    35    1
    37    34    30    1
    38    34    39    1
    39    37    31    1
    40    37    38    1
    41    38    32    1
    42    39    37    1
    43    40    41    2
    44    41    33    1
