@<TRIPOS>MOLECULE
outputs/IAG933/test6/raw/output_9231_IAG933_linker_design_.xyz
 42 45 0 0 0
SMALL
GASTEIGER

@<TRIPOS>ATOM
      1 C         -24.8550   -1.0120   30.1430 C.3     1  UNL1        0.0442
      2 C         -24.9730   -2.5050   29.7880 C.2     1  UNL1       -0.0208
      3 C         -23.9060   -3.1730   29.1460 C.2     1  UNL1       -0.0042
      4 C         -23.9890   -4.5490   28.8530 C.2     1  UNL1       -0.0003
      5 C         -25.1370   -5.2800   29.2050 C.2     1  UNL1       -0.0000
      6 C         -26.2320   -4.6110   29.7840 C.2     1  UNL1       -0.0003
      7 C         -26.1550   -3.2320   30.0650 C.2     1  UNL1       -0.0042
      8 C         -25.3870   -0.6790   31.5710 C.3     1  UNL1        0.0859
      9 C         -25.1890    0.7730   32.0280 C.3     1  UNL1        0.0933
     10 C         -25.3360    0.6840   33.5440 C.3     1  UNL1        0.0295
     11 C         -24.8290   -0.7150   33.9050 C.3     1  UNL1        0.0892
     12 N         -24.7580   -1.4810   32.6460 N.3     1  UNL1       -0.2186
     13 C         -25.6880    1.6140   26.4610 C.3     1  UNL1        0.0827
     14 C         -26.2500    2.9200   26.3950 C.2     1  UNL1        0.0556
     15 C         -25.6420    4.0930   27.1230 C.2     1  UNL1        0.2625
     16 N         -25.6140    5.2520   26.4490 N.am    1  UNL1       -0.2000
     17 C         -25.0260    6.4790   26.9630 C.3     1  UNL1        0.1388
     18 O         -25.1430    3.9660   28.2430 O.2     1  UNL1       -0.2687
     19 C         -27.4380    3.0910   25.6450 C.2     1  UNL1        0.1022
     20 N         -28.0750    2.0890   25.0030 N.2     1  UNL1       -0.2119
     21 C         -27.5430    0.8490   25.0790 C.2     1  UNL1        0.2341
     22 O         -28.1930   -0.2080   24.4770 O.2     1  UNL1       -0.4585
     23 C         -29.4600    0.0050   23.8660 C.3     1  UNL1        0.2423
     24 C         -30.0650   -1.3770   23.5730 C.3     1  UNL1        0.2292
     25 O         -30.7290   -1.8780   24.7210 O.3     1  UNL1       -0.2162
     26 C         -26.3540    0.5760   25.7770 C.3     1  UNL1        0.2408
     27 F         -25.8600   -0.6810   25.7950 F       1  UNL1       -0.2269
     28 C         -23.0852    2.0265   26.0972 C.2     1  UNL1        0.1606
     29 C         -21.6941    1.9743   26.5373 C.3     1  UNL1        0.0909
     30 C         -22.4505    1.3755   28.9024 C.2     1  UNL1        0.0110
     31 C         -25.6218    4.3979   34.0857 C.3     1  UNL1        0.0321
     32 C         -27.4954    5.3079   32.5728 C.3     1  UNL1        0.0321
     33 C         -21.3977    1.6089   27.9675 C.2     1  UNL1       -0.0171
     34 C         -26.6700    4.1387   33.0185 C.3     1  UNL1        0.1161
     35 C         -26.6665    2.6585   31.0935 C.3     1  UNL1        0.2233
     36 O         -26.8922    2.8964   32.5019 O.3     1  UNL1       -0.3468
     37 C         -23.9712    1.5374   28.4898 C.2     1  UNL1        0.0672
     38 C         -24.2294    1.6251   26.9109 C.3     1  UNL1        0.1053
     39 P         -25.0087    2.2281   30.9465 P.3     1  UNL1        0.2385
     40 N         -24.8095    1.9368   29.3928 N.2     1  UNL1       -0.2247
     41 O         -23.2078    2.5079   24.9188 O.2     1  UNL1       -0.2953
     42 O         -24.0128    2.9885   31.5921 O.2     1  UNL1       -0.2926
@<TRIPOS>BOND
     1     2     7    1
     2     2     1    1
     3     3     2    2
     4     4     3    1
     5     4     5    2
     6     5     6    1
     7     6     7    2
     8     8     1    1
     9     8     9    1
    10     8    12    1
    11     9    39    1
    12     9    10    1
    13    10    11    1
    14    12    11    1
    15    13    14    1
    16    13    38    1
    17    14    15    1
    18    15    18    2
    19    16    17    1
    20    16    15    1
    21    19    14    2
    22    20    21    2
    23    20    19    1
    24    21    26    1
    25    22    21    1
    26    23    22    1
    27    24    23    1
    28    24    25    1
    29    26    27    1
    30    26    13    1
    31    28    29    1
    32    29    33    1
    33    32    34    1
    34    33    30    2
    35    34    31    1
    36    35    36    1
    37    36    34    1
    38    37    30    1
    39    37    40    2
    40    38    28    1
    41    38    37    1
    42    39    35    1
    43    39    42    2
    44    40    39    1
    45    41    28    2
