@<TRIPOS>MOLECULE
outputs/IAG933/test6/raw/output_9232_IAG933_linker_design_.xyz
 44 48 0 0 0
SMALL
GASTEIGER

@<TRIPOS>ATOM
      1 C         -24.8550   -1.0120   30.1430 C.3     1  UNL1        0.0951
      2 C         -24.9730   -2.5050   29.7880 C.2     1  UNL1       -0.0140
      3 C         -23.9060   -3.1730   29.1460 C.2     1  UNL1       -0.0038
      4 C         -23.9890   -4.5490   28.8530 C.2     1  UNL1       -0.0003
      5 C         -25.1370   -5.2800   29.2050 C.2     1  UNL1       -0.0000
      6 C         -26.2320   -4.6110   29.7840 C.2     1  UNL1       -0.0003
      7 C         -26.1550   -3.2320   30.0650 C.2     1  UNL1       -0.0038
      8 C         -25.3870   -0.6790   31.5710 C.3     1  UNL1        0.0839
      9 C         -25.1890    0.7730   32.0280 C.3     1  UNL1        0.0196
     10 C         -25.3360    0.6840   33.5440 C.3     1  UNL1        0.0203
     11 C         -24.8290   -0.7150   33.9050 C.3     1  UNL1        0.0887
     12 N         -24.7580   -1.4810   32.6460 N.3     1  UNL1       -0.2187
     13 C         -25.6880    1.6140   26.4610 C.2     1  UNL1        0.0414
     14 C         -26.2500    2.9200   26.3950 C.2     1  UNL1        0.0766
     15 C         -25.6420    4.0930   27.1230 C.2     1  UNL1        0.2664
     16 N         -25.6140    5.2520   26.4490 N.am    1  UNL1       -0.1997
     17 C         -25.0260    6.4790   26.9630 C.3     1  UNL1        0.1388
     18 O         -25.1430    3.9660   28.2430 O.2     1  UNL1       -0.2683
     19 C         -27.4380    3.0910   25.6450 C.2     1  UNL1        0.1067
     20 N         -28.0750    2.0890   25.0030 N.2     1  UNL1       -0.2081
     21 C         -27.5430    0.8490   25.0790 C.2     1  UNL1        0.2533
     22 O         -28.1930   -0.2080   24.4770 O.2     1  UNL1       -0.4558
     23 C         -29.4600    0.0050   23.8660 C.3     1  UNL1        0.2426
     24 C         -30.0650   -1.3770   23.5730 C.3     1  UNL1        0.2292
     25 O         -30.7290   -1.8780   24.7210 O.3     1  UNL1       -0.2162
     26 C         -26.3540    0.5760   25.7770 C.2     1  UNL1        0.1931
     27 F         -25.8600   -0.6810   25.7950 F       1  UNL1       -0.1992
     28 C         -22.7742    0.5412   28.6966 C.2     1  UNL1        0.1985
     29 N         -28.7481    1.5888   30.3426 N.3     1  UNL1       -0.2714
     30 C         -30.2097    1.5326   29.8553 C.3     1  UNL1        0.0760
     31 C         -30.0165    0.0651   28.9962 C.3     1  UNL1        0.0646
     32 C         -28.2039    0.8517   30.9659 C.3     1  UNL1        0.0736
     33 O         -23.5007    2.3606   24.9221 O.2     1  UNL1       -0.2866
     34 C         -28.6447   -0.7441   28.6240 C.3     1  UNL1        0.2064
     35 C         -27.4859    1.7783   30.2795 C.3     1  UNL1        0.0882
     36 C         -28.9653   -0.5330   31.5100 C.3     1  UNL1        0.0188
     37 O         -22.4013    0.0073   29.7905 O.2     1  UNL1       -0.2865
     38 C         -21.6964    1.1352   27.9472 C.2     1  UNL1        0.0454
     39 C         -24.4017    1.3613   26.9249 C.2     1  UNL1        0.0472
     40 C         -24.1534    0.6183   28.1593 C.2     1  UNL1        0.0722
     41 C         -23.2955    1.8163   26.1294 C.2     1  UNL1        0.1960
     42 O         -27.0971   -0.4227   28.5442 O.2     1  UNL1       -0.4792
     43 C         -21.9611    1.7010   26.6373 C.2     1  UNL1        0.0453
     44 C         -25.2968   -0.1690   28.9315 C.2     1  UNL1        0.1241
@<TRIPOS>BOND
     1     1    44    1
     2     2     7    1
     3     2     1    1
     4     3     2    2
     5     4     3    1
     6     4     5    2
     7     5     6    1
     8     6     7    2
     9     8     1    1
    10     8     9    1
    11     8    12    1
    12     9    10    1
    13    10    11    1
    14    12    11    1
    15    13    39    1
    16    14    13    1
    17    14    15    1
    18    15    18    2
    19    16    17    1
    20    16    15    1
    21    19    14    2
    22    20    21    2
    23    20    19    1
    24    21    26    1
    25    22    21    1
    26    23    22    1
    27    24    23    1
    28    24    25    1
    29    26    27    1
    30    26    13    2
    31    28    37    2
    32    29    32    1
    33    30    29    1
    34    31    30    1
    35    32    36    1
    36    33    41    1
    37    34    31    1
    38    35    29    1
    39    35    32    1
    40    38    28    1
    41    39    40    1
    42    40    28    1
    43    40    44    2
    44    41    43    1
    45    41    39    2
    46    42    34    1
    47    42    44    1
    48    43    38    2
