@<TRIPOS>MOLECULE
outputs/IAG933/test6/raw/output_9235_IAG933_linker_design_.xyz
 48 51 0 0 0
SMALL
GASTEIGER

@<TRIPOS>ATOM
      1 C         -24.8550   -1.0120   30.1430 C.3     1  UNL1        0.0437
      2 C         -24.9730   -2.5050   29.7880 C.2     1  UNL1       -0.0208
      3 C         -23.9060   -3.1730   29.1460 C.2     1  UNL1       -0.0042
      4 C         -23.9890   -4.5490   28.8530 C.2     1  UNL1       -0.0003
      5 C         -25.1370   -5.2800   29.2050 C.2     1  UNL1       -0.0000
      6 C         -26.2320   -4.6110   29.7840 C.2     1  UNL1       -0.0003
      7 C         -26.1550   -3.2320   30.0650 C.2     1  UNL1       -0.0042
      8 C         -25.3870   -0.6790   31.5710 C.3     1  UNL1        0.0785
      9 C         -25.1890    0.7730   32.0280 C.3     1  UNL1        0.0380
     10 C         -25.3360    0.6840   33.5440 C.3     1  UNL1        0.0216
     11 C         -24.8290   -0.7150   33.9050 C.3     1  UNL1        0.0887
     12 N         -24.7580   -1.4810   32.6460 N.3     1  UNL1       -0.2191
     13 C         -25.6880    1.6140   26.4610 C.3     1  UNL1        0.0861
     14 C         -26.2500    2.9200   26.3950 C.2     1  UNL1        0.0562
     15 C         -25.6420    4.0930   27.1230 C.2     1  UNL1        0.2625
     16 N         -25.6140    5.2520   26.4490 N.am    1  UNL1       -0.2000
     17 C         -25.0260    6.4790   26.9630 C.3     1  UNL1        0.1388
     18 O         -25.1430    3.9660   28.2430 O.2     1  UNL1       -0.2687
     19 C         -27.4380    3.0910   25.6450 C.2     1  UNL1        0.1022
     20 N         -28.0750    2.0890   25.0030 N.2     1  UNL1       -0.2119
     21 C         -27.5430    0.8490   25.0790 C.2     1  UNL1        0.2341
     22 O         -28.1930   -0.2080   24.4770 O.2     1  UNL1       -0.4585
     23 C         -29.4600    0.0050   23.8660 C.3     1  UNL1        0.2423
     24 C         -30.0650   -1.3770   23.5730 C.3     1  UNL1        0.2292
     25 O         -30.7290   -1.8780   24.7210 O.3     1  UNL1       -0.2162
     26 C         -26.3540    0.5760   25.7770 C.3     1  UNL1        0.2413
     27 F         -25.8600   -0.6810   25.7950 F       1  UNL1       -0.2268
     28 O         -23.4913    2.8898   30.5670 O.2     1  UNL1       -0.2950
     29 C         -24.8411    1.0963   27.4184 C.3     1  UNL1        0.0799
     30 C         -22.6184    1.0705   28.3286 C.3     1  UNL1        0.0649
     31 N         -23.5671    1.8480   27.5137 N.3     1  UNL1       -0.2732
     32 C         -27.1790    2.3791   31.3130 C.3     1  UNL1        0.1617
     33 C         -25.2522    3.4882   32.3482 C.1     1  UNL1       -0.0702
     34 C         -27.6875    4.7247   33.8147 C.2     1  UNL1        0.2716
     35 C         -27.9359    4.5558   32.3212 C.3     1  UNL1        0.2287
     36 C         -25.0187    4.5615   32.8301 C.1     1  UNL1       -0.0137
     37 C         -25.5656    2.1834   31.6111 C.3     1  UNL1        0.1344
     38 C         -21.3098    1.3509   27.6505 C.3     1  UNL1        0.0178
     39 C         -22.9505    2.2842   26.1773 C.3     1  UNL1        0.0721
     40 C         -27.1546    4.0302   35.9860 C.3     1  UNL1        0.1357
     41 C         -24.1545    2.1133   30.4218 C.2     1  UNL1        0.1648
     42 C         -26.9666    2.5719   36.2682 C.3     1  UNL1        0.1327
     43 C         -23.1700    0.7664   29.7238 C.3     1  UNL1        0.0815
     44 C         -21.6594    1.9835   26.4092 C.3     1  UNL1        0.0187
     45 O         -28.7192    5.5994   34.2583 O.2     1  UNL1       -0.2706
     46 N         -25.6435    2.5487   35.7898 N.3     1  UNL1       -0.1294
     47 N         -26.7725    4.2465   34.5940 N.am    1  UNL1       -0.2017
     48 O         -27.9656    3.1486   32.1738 O.3     1  UNL1       -0.3429
@<TRIPOS>BOND
     1     2     7    1
     2     2     1    1
     3     3     2    2
     4     4     3    1
     5     4     5    2
     6     5     6    1
     7     6     7    2
     8     8     1    1
     9     8     9    1
    10     8    12    1
    11     9    37    1
    12     9    10    1
    13    10    11    1
    14    12    11    1
    15    13    29    1
    16    14    13    1
    17    14    15    1
    18    15    18    2
    19    16    17    1
    20    16    15    1
    21    19    14    2
    22    20    21    2
    23    20    19    1
    24    21    26    1
    25    22    21    1
    26    23    22    1
    27    24    23    1
    28    24    25    1
    29    26    27    1
    30    26    13    1
    31    29    31    1
    32    30    43    1
    33    31    30    1
    34    32    48    1
    35    33    36    3
    36    34    45    2
    37    34    47    1
    38    35    34    1
    39    37    32    1
    40    37    33    1
    41    38    30    1
    42    39    44    1
    43    39    31    1
    44    40    42    1
    45    41    28    2
    46    41    37    1
    47    43    41    1
    48    44    38    1
    49    46    42    1
    50    47    40    1
    51    48    35    1
