@<TRIPOS>MOLECULE
outputs/IAG933/test6/raw/output_9236_IAG933_linker_design_.xyz
 43 46 0 0 0
SMALL
GASTEIGER

@<TRIPOS>ATOM
      1 C         -24.8550   -1.0120   30.1430 C.3     1  UNL1        0.0977
      2 C         -24.9730   -2.5050   29.7880 C.2     1  UNL1       -0.0064
      3 C         -23.9060   -3.1730   29.1460 C.2     1  UNL1       -0.0029
      4 C         -23.9890   -4.5490   28.8530 C.2     1  UNL1       -0.0003
      5 C         -25.1370   -5.2800   29.2050 C.2     1  UNL1       -0.0000
      6 C         -26.2320   -4.6110   29.7840 C.2     1  UNL1       -0.0003
      7 C         -26.1550   -3.2320   30.0650 C.2     1  UNL1       -0.0029
      8 C         -25.3870   -0.6790   31.5710 C.3     1  UNL1        0.0916
      9 C         -25.1890    0.7730   32.0280 C.3     1  UNL1        0.0206
     10 C         -25.3360    0.6840   33.5440 C.3     1  UNL1        0.0203
     11 C         -24.8290   -0.7150   33.9050 C.3     1  UNL1        0.0888
     12 N         -24.7580   -1.4810   32.6460 N.3     1  UNL1       -0.2178
     13 C         -25.6880    1.6140   26.4610 C.3     1  UNL1        0.1441
     14 C         -26.2500    2.9200   26.3950 C.2     1  UNL1        0.0731
     15 C         -25.6420    4.0930   27.1230 C.2     1  UNL1        0.2640
     16 N         -25.6140    5.2520   26.4490 N.am    1  UNL1       -0.1999
     17 C         -25.0260    6.4790   26.9630 C.3     1  UNL1        0.1388
     18 O         -25.1430    3.9660   28.2430 O.2     1  UNL1       -0.2686
     19 C         -27.4380    3.0910   25.6450 C.2     1  UNL1        0.1038
     20 N         -28.0750    2.0890   25.0030 N.2     1  UNL1       -0.2118
     21 C         -27.5430    0.8490   25.0790 C.2     1  UNL1        0.2358
     22 O         -28.1930   -0.2080   24.4770 O.2     1  UNL1       -0.4585
     23 C         -29.4600    0.0050   23.8660 C.3     1  UNL1        0.2423
     24 C         -30.0650   -1.3770   23.5730 C.3     1  UNL1        0.2292
     25 O         -30.7290   -1.8780   24.7210 O.3     1  UNL1       -0.2162
     26 C         -26.3540    0.5760   25.7770 C.3     1  UNL1        0.2581
     27 F         -25.8600   -0.6810   25.7950 F       1  UNL1       -0.2251
     28 C         -22.9846    1.9852   26.9226 C.2     1  UNL1        0.0617
     29 C         -29.7309    1.3616   29.2776 C.3     1  UNL1        0.0939
     30 C         -23.8302    1.1095   27.7020 C.2     1  UNL1        0.0509
     31 O         -29.6196   -0.7441   28.3192 O.co2   1  UNL1       -0.2457
     32 C         -30.8655    1.1720   30.2531 C.3     1  UNL1        0.0112
     33 C         -20.5772    1.8514   27.5560 C.1     1  UNL1       -0.0091
     34 C         -29.6094    2.8682   28.9687 C.3     1  UNL1        0.0112
     35 N         -24.8925    0.0408   29.2079 N.3     1  UNL1       -0.2495
     36 C         -25.8676    0.7770   28.8670 C.3     1  UNL1        0.1348
     37 C         -27.2922    1.1789   28.7936 C.3     1  UNL1        0.0373
     38 C         -29.8276    0.4873   28.1109 C.2     1  UNL1        0.3638
     39 C         -21.7163    1.9816   27.2320 C.1     1  UNL1       -0.0496
     40 C         -23.7083    0.2610   28.6939 C.3     1  UNL1        0.1160
     41 C         -28.3486    0.9732   29.8633 C.3     1  UNL1        0.0139
     42 N         -25.0661    1.2789   27.6661 N.pl3   1  UNL1       -0.2926
     43 O         -30.1605    0.8887   26.9375 O.co2   1  UNL1       -0.2457
@<TRIPOS>BOND
     1     1     2    1
     2     2     7    1
     3     3     2    2
     4     4     3    1
     5     4     5    2
     6     5     6    1
     7     6     7    2
     8     8     1    1
     9     8     9    1
    10     8    12    1
    11     9    10    1
    12    10    11    1
    13    12    11    1
    14    13    42    1
    15    14    13    1
    16    14    15    1
    17    15    18    2
    18    16    17    1
    19    16    15    1
    20    19    14    2
    21    20    21    2
    22    20    19    1
    23    21    26    1
    24    22    21    1
    25    23    22    1
    26    24    23    1
    27    24    25    1
    28    26    27    1
    29    26    13    1
    30    28    39    1
    31    28    30    2
    32    29    41    1
    33    29    32    1
    34    30    40    1
    35    34    29    1
    36    35     1    1
    37    36    37    1
    38    36    35    1
    39    37    41    1
    40    38    31   ar
    41    38    29    1
    42    39    33    3
    43    40    35    1
    44    42    30    1
    45    42    36    1
    46    43    38   ar
