@<TRIPOS>MOLECULE
outputs/IAG933/test6/raw/output_9240_IAG933_linker_design_.xyz
 44 49 0 0 0
SMALL
GASTEIGER

@<TRIPOS>ATOM
      1 C         -24.8550   -1.0120   30.1430 C.3     1  UNL1        0.1547
      2 C         -24.9730   -2.5050   29.7880 C.2     1  UNL1        0.0059
      3 C         -23.9060   -3.1730   29.1460 C.2     1  UNL1       -0.0019
      4 C         -23.9890   -4.5490   28.8530 C.2     1  UNL1       -0.0002
      5 C         -25.1370   -5.2800   29.2050 C.2     1  UNL1       -0.0000
      6 C         -26.2320   -4.6110   29.7840 C.2     1  UNL1       -0.0002
      7 C         -26.1550   -3.2320   30.0650 C.2     1  UNL1       -0.0019
      8 C         -25.3870   -0.6790   31.5710 C.3     1  UNL1        0.1140
      9 C         -25.1890    0.7730   32.0280 C.3     1  UNL1        0.0694
     10 C         -25.3360    0.6840   33.5440 C.3     1  UNL1        0.0311
     11 C         -24.8290   -0.7150   33.9050 C.3     1  UNL1        0.0897
     12 N         -24.7580   -1.4810   32.6460 N.3     1  UNL1       -0.2157
     13 C         -25.6880    1.6140   26.4610 C.2     1  UNL1        0.0526
     14 C         -26.2500    2.9200   26.3950 C.2     1  UNL1        0.0778
     15 C         -25.6420    4.0930   27.1230 C.2     1  UNL1        0.2665
     16 N         -25.6140    5.2520   26.4490 N.am    1  UNL1       -0.1997
     17 C         -25.0260    6.4790   26.9630 C.3     1  UNL1        0.1388
     18 O         -25.1430    3.9660   28.2430 O.2     1  UNL1       -0.2683
     19 C         -27.4380    3.0910   25.6450 C.2     1  UNL1        0.1068
     20 N         -28.0750    2.0890   25.0030 N.2     1  UNL1       -0.2081
     21 C         -27.5430    0.8490   25.0790 C.2     1  UNL1        0.2533
     22 O         -28.1930   -0.2080   24.4770 O.2     1  UNL1       -0.4558
     23 C         -29.4600    0.0050   23.8660 C.3     1  UNL1        0.2426
     24 C         -30.0650   -1.3770   23.5730 C.3     1  UNL1        0.2292
     25 O         -30.7290   -1.8780   24.7210 O.3     1  UNL1       -0.2162
     26 C         -26.3540    0.5760   25.7770 C.2     1  UNL1        0.1943
     27 F         -25.8600   -0.6810   25.7950 F       1  UNL1       -0.1992
     28 C         -23.3573    1.4979   26.8696 C.2     1  UNL1        0.0675
     29 S         -24.1762    1.9675   31.2594 S.3     1  UNL1       -0.1188
     30 F         -21.7422    1.7581   24.9472 F       1  UNL1       -0.1661
     31 C         -24.6515    1.2874   27.4374 C.2     1  UNL1        0.0687
     32 C         -20.8406   -0.0053   28.6075 C.2     1  UNL1        0.3445
     33 N         -24.9932    1.2955   28.7874 N.pl3   1  UNL1       -0.2286
     34 O         -20.1030    1.2548   28.0139 O.3     1  UNL1       -0.4465
     35 C         -21.2200    2.0581   27.4449 C.3     1  UNL1        0.2129
     36 O         -20.6508   -0.8430   27.6573 O.2     1  UNL1       -0.2474
     37 C         -22.7632    1.0919   29.1898 C.3     1  UNL1        0.0760
     38 O         -23.4708   -0.5581   29.7489 O.3     1  UNL1       -0.3417
     39 C         -22.9669    1.8673   25.4669 C.3     1  UNL1        0.4162
     40 F         -23.2489    3.0974   25.4435 F       1  UNL1       -0.1661
     41 C         -22.0791   -0.2231   29.4054 C.3     1  UNL1        0.2165
     42 C         -22.4209    1.4653   27.7150 C.3     1  UNL1        0.0768
     43 C         -24.0158    1.8571   29.4812 C.3     1  UNL1        0.1428
     44 F         -23.5557    0.9654   24.8198 F       1  UNL1       -0.1661
@<TRIPOS>BOND
     1     1     2    1
     2     1     8    1
     3     2     7    1
     4     3     2    2
     5     4     3    1
     6     4     5    2
     7     5     6    1
     8     6     7    2
     9     8     9    1
    10     8    12    1
    11     9    10    1
    12    10    11    1
    13    12    11    1
    14    13    31    1
    15    14    13    1
    16    14    15    1
    17    15    18    2
    18    16    17    1
    19    16    15    1
    20    19    14    2
    21    20    21    2
    22    20    19    1
    23    21    26    1
    24    22    21    1
    25    23    22    1
    26    24    23    1
    27    24    25    1
    28    26    27    1
    29    26    13    2
    30    28    31    2
    31    28    42    1
    32    29     9    1
    33    30    39    1
    34    31    33    1
    35    32    41    1
    36    33    43    1
    37    34    32    1
    38    35    42    1
    39    35    34    1
    40    36    32    2
    41    37    41    1
    42    37    43    1
    43    38     1    1
    44    39    28    1
    45    40    39    1
    46    41    38    1
    47    42    37    1
    48    43    29    1
    49    44    39    1
