@<TRIPOS>MOLECULE
outputs/IAG933/test6/raw/output_9244_IAG933_linker_design_.xyz
 44 48 0 0 0
SMALL
GASTEIGER

@<TRIPOS>ATOM
      1 C         -24.8550   -1.0120   30.1430 C.3     1  UNL1        0.0967
      2 C         -24.9730   -2.5050   29.7880 C.2     1  UNL1       -0.0064
      3 C         -23.9060   -3.1730   29.1460 C.2     1  UNL1       -0.0029
      4 C         -23.9890   -4.5490   28.8530 C.2     1  UNL1       -0.0003
      5 C         -25.1370   -5.2800   29.2050 C.2     1  UNL1       -0.0000
      6 C         -26.2320   -4.6110   29.7840 C.2     1  UNL1       -0.0003
      7 C         -26.1550   -3.2320   30.0650 C.2     1  UNL1       -0.0029
      8 C         -25.3870   -0.6790   31.5710 C.3     1  UNL1        0.0916
      9 C         -25.1890    0.7730   32.0280 C.3     1  UNL1        0.0206
     10 C         -25.3360    0.6840   33.5440 C.3     1  UNL1        0.0203
     11 C         -24.8290   -0.7150   33.9050 C.3     1  UNL1        0.0888
     12 N         -24.7580   -1.4810   32.6460 N.3     1  UNL1       -0.2178
     13 C         -25.6880    1.6140   26.4610 C.2     1  UNL1        0.0366
     14 C         -26.2500    2.9200   26.3950 C.2     1  UNL1        0.0763
     15 C         -25.6420    4.0930   27.1230 C.2     1  UNL1        0.2664
     16 N         -25.6140    5.2520   26.4490 N.am    1  UNL1       -0.1997
     17 C         -25.0260    6.4790   26.9630 C.3     1  UNL1        0.1388
     18 O         -25.1430    3.9660   28.2430 O.2     1  UNL1       -0.2683
     19 C         -27.4380    3.0910   25.6450 C.2     1  UNL1        0.1067
     20 N         -28.0750    2.0890   25.0030 N.2     1  UNL1       -0.2081
     21 C         -27.5430    0.8490   25.0790 C.2     1  UNL1        0.2533
     22 O         -28.1930   -0.2080   24.4770 O.2     1  UNL1       -0.4558
     23 C         -29.4600    0.0050   23.8660 C.3     1  UNL1        0.2426
     24 C         -30.0650   -1.3770   23.5730 C.3     1  UNL1        0.2292
     25 O         -30.7290   -1.8780   24.7210 O.3     1  UNL1       -0.2162
     26 C         -26.3540    0.5760   25.7770 C.2     1  UNL1        0.1928
     27 F         -25.8600   -0.6810   25.7950 F       1  UNL1       -0.1992
     28 C         -24.5029    1.2427   27.1827 C.2     1  UNL1        0.0117
     29 C         -28.3561    3.8470   28.9256 C.3     1  UNL1        0.0322
     30 C         -22.3480    1.1597   27.4526 C.2     1  UNL1        0.1477
     31 C         -24.3110    0.5163   28.2729 C.3     1  UNL1        0.1062
     32 N         -25.3147   -0.1201   29.0649 N.3     1  UNL1       -0.2633
     33 C         -29.2329    2.6306   28.5544 C.3     1  UNL1        0.0026
     34 C         -28.9146    1.1325   30.5716 C.3     1  UNL1        0.0014
     35 C         -23.2625    1.5264   26.6178 C.2     1  UNL1        0.0824
     36 O         -26.5097    4.3218   31.2496 O.3     1  UNL1       -0.3511
     37 CL        -22.9409    2.3113   25.1195 Cl      1  UNL1       -0.0802
     38 C         -28.1389    0.2731   29.5721 C.3     1  UNL1        0.0174
     39 F         -21.0581    1.4244   27.2915 F       1  UNL1       -0.2036
     40 C         -26.8208   -0.1136   28.7559 C.3     1  UNL1        0.0729
     41 C         -27.9042    4.0966   31.3788 C.3     1  UNL1        0.1715
     42 C         -29.9059    2.0372   29.8012 C.3     1  UNL1        0.0001
     43 C         -22.9061    0.5130   28.5124 C.2     1  UNL1        0.0245
     44 C         -27.3581    3.6120   30.0794 C.3     1  UNL1        0.1448
@<TRIPOS>BOND
     1     1    32    1
     2     2     7    1
     3     2     1    1
     4     3     2    2
     5     4     3    1
     6     4     5    2
     7     5     6    1
     8     6     7    2
     9     8     1    1
    10     8     9    1
    11     8    12    1
    12     9    10    1
    13    10    11    1
    14    12    11    1
    15    13    28    1
    16    14    13    1
    17    14    15    1
    18    15    18    2
    19    16    17    1
    20    16    15    1
    21    19    14    2
    22    20    21    2
    23    20    19    1
    24    21    26    1
    25    22    21    1
    26    23    22    1
    27    24    23    1
    28    24    25    1
    29    26    27    1
    30    26    13    2
    31    28    31    1
    32    30    43    2
    33    31    43    1
    34    31    32    1
    35    33    29    1
    36    33    42    1
    37    35    28    2
    38    35    30    1
    39    36    41    1
    40    37    35    1
    41    38    34    1
    42    39    30    1
    43    40    32    1
    44    40    38    1
    45    42    34    1
    46    44    29    1
    47    44    36    1
    48    44    41    1
