@<TRIPOS>MOLECULE
outputs/IAG933/test6/raw/output_9246_IAG933_linker_design_.xyz
 45 49 0 0 0
SMALL
GASTEIGER

@<TRIPOS>ATOM
      1 C         -24.8550   -1.0120   30.1430 C.3     1  UNL1        0.1118
      2 C         -24.9730   -2.5050   29.7880 C.2     1  UNL1       -0.0030
      3 C         -23.9060   -3.1730   29.1460 C.2     1  UNL1       -0.0026
      4 C         -23.9890   -4.5490   28.8530 C.2     1  UNL1       -0.0003
      5 C         -25.1370   -5.2800   29.2050 C.2     1  UNL1       -0.0000
      6 C         -26.2320   -4.6110   29.7840 C.2     1  UNL1       -0.0003
      7 C         -26.1550   -3.2320   30.0650 C.2     1  UNL1       -0.0026
      8 C         -25.3870   -0.6790   31.5710 C.3     1  UNL1        0.0950
      9 C         -25.1890    0.7730   32.0280 C.3     1  UNL1        0.0209
     10 C         -25.3360    0.6840   33.5440 C.3     1  UNL1        0.0203
     11 C         -24.8290   -0.7150   33.9050 C.3     1  UNL1        0.0888
     12 N         -24.7580   -1.4810   32.6460 N.3     1  UNL1       -0.2174
     13 C         -25.6880    1.6140   26.4610 C.2     1  UNL1        0.0401
     14 C         -26.2500    2.9200   26.3950 C.2     1  UNL1        0.0766
     15 C         -25.6420    4.0930   27.1230 C.2     1  UNL1        0.2664
     16 N         -25.6140    5.2520   26.4490 N.am    1  UNL1       -0.1997
     17 C         -25.0260    6.4790   26.9630 C.3     1  UNL1        0.1388
     18 O         -25.1430    3.9660   28.2430 O.2     1  UNL1       -0.2683
     19 C         -27.4380    3.0910   25.6450 C.2     1  UNL1        0.1067
     20 N         -28.0750    2.0890   25.0030 N.2     1  UNL1       -0.2081
     21 C         -27.5430    0.8490   25.0790 C.2     1  UNL1        0.2533
     22 O         -28.1930   -0.2080   24.4770 O.2     1  UNL1       -0.4558
     23 C         -29.4600    0.0050   23.8660 C.3     1  UNL1        0.2426
     24 C         -30.0650   -1.3770   23.5730 C.3     1  UNL1        0.2292
     25 O         -30.7290   -1.8780   24.7210 O.3     1  UNL1       -0.2162
     26 C         -26.3540    0.5760   25.7770 C.2     1  UNL1        0.1931
     27 F         -25.8600   -0.6810   25.7950 F       1  UNL1       -0.1992
     28 C         -27.5404    0.4523   29.3392 C.2     1  UNL1        0.3375
     29 N         -25.1863   -0.2754   28.9609 N.pl3   1  UNL1       -0.2946
     30 C         -21.9773    1.6869   27.1803 C.2     1  UNL1        0.0115
     31 C         -27.9768    3.3947   29.2687 C.3     1  UNL1        0.0500
     32 C         -24.3700    1.2714   27.1354 C.2     1  UNL1        0.0264
     33 C         -27.7977    4.1172   32.3611 C.3     1  UNL1        0.1715
     34 C         -28.0859    4.7789   29.9655 C.3     1  UNL1        0.0360
     35 C         -23.1711    1.6848   26.5096 C.2     1  UNL1        0.0589
     36 C         -27.5041    2.6323   30.5075 C.3     1  UNL1        0.2086
     37 O         -28.6852    0.0807   29.1935 O.2     1  UNL1       -0.2482
     38 C         -26.5463   -0.2469   28.4700 C.3     1  UNL1        0.2022
     39 C         -24.2500    0.5416   28.3340 C.2     1  UNL1        0.0493
     40 O         -27.0350    1.2542   30.2850 O.3     1  UNL1       -0.4473
     41 C         -27.2045    4.6210   31.2677 C.3     1  UNL1        0.1449
     42 C         -23.0195    0.5322   28.9548 C.2     1  UNL1        0.0146
     43 C         -21.9099    1.1231   28.4203 C.2     1  UNL1        0.0021
     44 O         -26.8591    3.5617   31.4277 O.3     1  UNL1       -0.3511
     45 CL        -23.0462    2.2789   24.9024 Cl      1  UNL1       -0.0822
@<TRIPOS>BOND
     1     1    29    1
     2     2     7    1
     3     2     1    1
     4     3     2    2
     5     4     3    1
     6     4     5    2
     7     5     6    1
     8     6     7    2
     9     8     1    1
    10     8     9    1
    11     8    12    1
    12     9    10    1
    13    10    11    1
    14    12    11    1
    15    13    32    1
    16    14    13    1
    17    14    15    1
    18    15    18    2
    19    16    17    1
    20    16    15    1
    21    19    14    2
    22    20    21    2
    23    20    19    1
    24    21    26    1
    25    22    21    1
    26    23    22    1
    27    24    23    1
    28    24    25    1
    29    26    27    1
    30    26    13    2
    31    28    40    1
    32    30    43    1
    33    31    34    1
    34    31    36    1
    35    32    39    2
    36    35    32    1
    37    35    30    2
    38    37    28    2
    39    38    29    1
    40    38    28    1
    41    39    42    1
    42    39    29    1
    43    40    36    1
    44    41    34    1
    45    41    44    1
    46    41    33    1
    47    43    42    2
    48    44    33    1
    49    45    35    1
