@<TRIPOS>MOLECULE
No_925-gen_results/8p0m/2024-11-27-11-27-31/
 15 15 0 0 0
SMALL
GASTEIGER

@<TRIPOS>ATOM
      1 C         -28.0162   -0.8135   28.8779 C.ar    1  UNL1        0.0547
      2 C         -28.4690   -0.7850   29.8287 C.2     1  UNL1        0.2648
      3 C         -28.1816    0.4277   28.1134 C.ar    1  UNL1        0.0006
      4 C         -27.4498    0.6435   26.8500 C.ar    1  UNL1       -0.0183
      5 C         -26.1815    0.0357   26.7145 C.ar    1  UNL1       -0.0040
      6 C         -25.7530   -0.9101   27.6815 C.ar    1  UNL1       -0.0002
      7 C         -26.5502   -1.2250   28.7228 C.ar    1  UNL1        0.0045
      8 O         -28.5409   -1.9553   30.6018 O.2     1  UNL1       -0.2684
      9 N         -29.1415    0.1637   30.6064 N.am    1  UNL1       -0.1998
     10 C         -29.9649    0.0042   31.7832 C.3     1  UNL1        0.1388
     11 C         -27.7830    1.6258   25.8644 C.3     1  UNL1        0.0439
     12 C         -29.0993    1.6692   25.6038 C.2     1  UNL1       -0.0266
     13 C         -26.8314    2.4613   25.3571 C.3     1  UNL1        0.0094
     14 C         -30.0119    1.6438   26.0799 C.2     1  UNL1       -0.0300
     15 C         -31.4024    1.7350   25.5911 C.3     1  UNL1        0.0304
@<TRIPOS>BOND
     1     1     2    1
     2     2     8    2
     3     2     9   am
     4     9    10    1
     5     4    11    1
     6    11    12    1
     7    11    13    1
     8    12    14    2
     9    14    15    1
    10     1     3   ar
    11     3     4   ar
    12     4     5   ar
    13     5     6   ar
    14     6     7   ar
    15     7     1   ar
