@<TRIPOS>MOLECULE
outputs/IAG933/test6/raw/output_9256_IAG933_linker_design_.xyz
 46 50 0 0 0
SMALL
GASTEIGER

@<TRIPOS>ATOM
      1 C         -24.8550   -1.0120   30.1430 C.3     1  UNL1        0.0494
      2 C         -24.9730   -2.5050   29.7880 C.2     1  UNL1       -0.0204
      3 C         -23.9060   -3.1730   29.1460 C.2     1  UNL1       -0.0042
      4 C         -23.9890   -4.5490   28.8530 C.2     1  UNL1       -0.0003
      5 C         -25.1370   -5.2800   29.2050 C.2     1  UNL1       -0.0000
      6 C         -26.2320   -4.6110   29.7840 C.2     1  UNL1       -0.0003
      7 C         -26.1550   -3.2320   30.0650 C.2     1  UNL1       -0.0042
      8 C         -25.3870   -0.6790   31.5710 C.3     1  UNL1        0.1124
      9 C         -25.1890    0.7730   32.0280 C.2     1  UNL1        0.0497
     10 C         -25.3360    0.6840   33.5440 C.3     1  UNL1        0.0611
     11 C         -24.8290   -0.7150   33.9050 C.3     1  UNL1        0.0951
     12 N         -24.7580   -1.4810   32.6460 N.3     1  UNL1       -0.2131
     13 C         -25.6880    1.6140   26.4610 C.2     1  UNL1        0.0407
     14 C         -26.2500    2.9200   26.3950 C.2     1  UNL1        0.0745
     15 C         -25.6420    4.0930   27.1230 C.2     1  UNL1        0.2235
     16 N         -25.6140    5.2520   26.4490 N.2     1  UNL1       -0.2356
     17 C         -25.0260    6.4790   26.9630 C.3     1  UNL1        0.1550
     18 O         -25.1430    3.9660   28.2430 O.2     1  UNL1       -0.4406
     19 C         -27.4380    3.0910   25.6450 C.2     1  UNL1        0.1068
     20 N         -28.0750    2.0890   25.0030 N.2     1  UNL1       -0.2081
     21 C         -27.5430    0.8490   25.0790 C.2     1  UNL1        0.2533
     22 O         -28.1930   -0.2080   24.4770 O.2     1  UNL1       -0.4558
     23 C         -29.4600    0.0050   23.8660 C.3     1  UNL1        0.2426
     24 C         -30.0650   -1.3770   23.5730 C.3     1  UNL1        0.2292
     25 O         -30.7290   -1.8780   24.7210 O.3     1  UNL1       -0.2162
     26 C         -26.3540    0.5760   25.7770 C.2     1  UNL1        0.1931
     27 F         -25.8600   -0.6810   25.7950 F       1  UNL1       -0.1992
     28 N         -26.2445    4.1053   30.3442 N.pl3   1  UNL1       -0.1875
     29 C         -27.0248    6.3889   29.8877 C.2     1  UNL1        0.4321
     30 C         -26.1007    5.5222   30.4806 C.2     1  UNL1        0.1870
     31 C         -22.2175    1.5445   27.7156 C.ar    1  UNL1        0.2369
     32 C         -25.0598    6.1460   31.1854 C.2     1  UNL1        0.1659
     33 C         -25.4829    8.1952   30.0241 C.2     1  UNL1        0.1738
     34 C         -25.0154    1.9319   29.8402 C.3     1  UNL1        0.2251
     35 N         -22.7956    0.6483   29.6738 N.ar    1  UNL1       -0.0584
     36 C         -25.1098    9.6866   29.7088 C.3     1  UNL1        0.0825
     37 N         -26.7037    7.6428   29.5720 N.2     1  UNL1       -0.0359
     38 C         -21.4100    1.9693   26.4900 C.3     1  UNL1        0.0978
     39 C         -24.6263    7.4426   30.8559 C.2     1  UNL1        0.0732
     40 N         -28.3159    6.0301   29.7083 N.pl3   1  UNL1        0.2179
     41 F         -24.5784    5.4867   32.2984 F       1  UNL1       -0.2024
     42 N         -25.1003    2.0227   31.3032 N.2     1  UNL1       -0.2661
     43 O         -21.6905    0.6986   28.6990 O.2     1  UNL1       -0.3373
     44 N         -23.4522    2.0704   27.9863 N.ar    1  UNL1       -0.1927
     45 C         -25.7150    3.2531   29.3482 C.3     1  UNL1        0.2921
     46 C         -23.7777    1.5559   29.1637 C.ar    1  UNL1        0.2080
@<TRIPOS>BOND
     1     2     7    1
     2     2     1    1
     3     3     2    2
     4     4     3    1
     5     4     5    2
     6     5     6    1
     7     6     7    2
     8     8     1    1
     9     8     9    1
    10     8    12    1
    11     9    10    1
    12    10    11    1
    13    12    11    1
    14    14    13    1
    15    14    15    1
    16    15    18    1
    17    16    17    1
    18    16    15    2
    19    19    14    2
    20    20    21    2
    21    20    19    1
    22    21    26    1
    23    22    21    1
    24    23    22    1
    25    24    23    1
    26    24    25    1
    27    26    27    1
    28    26    13    2
    29    28    30    1
    30    29    30    1
    31    30    32    2
    32    31    44   ar
    33    31    43   ar
    34    32    41    1
    35    33    39    2
    36    34    42    1
    37    36    33    1
    38    37    29    2
    39    37    33    1
    40    38    31    1
    41    39    32    1
    42    40    29    1
    43    42     9    2
    44    43    35   ar
    45    44    46   ar
    46    45    18    1
    47    45    34    1
    48    45    28    1
    49    46    35   ar
    50    46    34    1
