@<TRIPOS>MOLECULE
outputs/IAG933/test6/raw/output_926_IAG933_linker_design_.xyz
 39 41 0 0 0
SMALL
GASTEIGER

@<TRIPOS>ATOM
      1 C         -24.8550   -1.0120   30.1430 C.3     1  UNL1        0.0651
      2 C         -24.9730   -2.5050   29.7880 C.2     1  UNL1       -0.0192
      3 C         -23.9060   -3.1730   29.1460 C.2     1  UNL1       -0.0042
      4 C         -23.9890   -4.5490   28.8530 C.2     1  UNL1       -0.0003
      5 C         -25.1370   -5.2800   29.2050 C.2     1  UNL1       -0.0000
      6 C         -26.2320   -4.6110   29.7840 C.2     1  UNL1       -0.0003
      7 C         -26.1550   -3.2320   30.0650 C.2     1  UNL1       -0.0042
      8 C         -25.3870   -0.6790   31.5710 C.3     1  UNL1        0.0787
      9 C         -25.1890    0.7730   32.0280 C.3     1  UNL1        0.0193
     10 C         -25.3360    0.6840   33.5440 C.3     1  UNL1        0.0202
     11 C         -24.8290   -0.7150   33.9050 C.3     1  UNL1        0.0887
     12 N         -24.7580   -1.4810   32.6460 N.3     1  UNL1       -0.2191
     13 C         -25.6880    1.6140   26.4610 C.2     1  UNL1        0.1015
     14 C         -26.2500    2.9200   26.3950 C.2     1  UNL1        0.0912
     15 C         -25.6420    4.0930   27.1230 C.2     1  UNL1        0.2677
     16 N         -25.6140    5.2520   26.4490 N.am    1  UNL1       -0.1997
     17 C         -25.0260    6.4790   26.9630 C.3     1  UNL1        0.1388
     18 O         -25.1430    3.9660   28.2430 O.2     1  UNL1       -0.2683
     19 C         -27.4380    3.0910   25.6450 C.2     1  UNL1        0.1080
     20 N         -28.0750    2.0890   25.0030 N.2     1  UNL1       -0.2080
     21 C         -27.5430    0.8490   25.0790 C.2     1  UNL1        0.2546
     22 O         -28.1930   -0.2080   24.4770 O.2     1  UNL1       -0.4558
     23 C         -29.4600    0.0050   23.8660 C.3     1  UNL1        0.2426
     24 C         -30.0650   -1.3770   23.5730 C.3     1  UNL1        0.2292
     25 O         -30.7290   -1.8780   24.7210 O.3     1  UNL1       -0.2162
     26 C         -26.3540    0.5760   25.7770 C.2     1  UNL1        0.2075
     27 F         -25.8600   -0.6810   25.7950 F       1  UNL1       -0.1979
     28 C         -29.3980    2.7387   30.3716 C.3     1  UNL1        0.0252
     29 C         -23.4194    1.5870   26.8461 C.3     1  UNL1        0.1429
     30 C         -21.0493    1.4474   27.7528 C.3     1  UNL1        0.0374
     31 N         -24.8090    1.3415   27.2979 N.pl3   1  UNL1       -0.2312
     32 O         -22.6896   -0.0785   28.6680 O.3     1  UNL1       -0.2213
     33 C         -28.5945    1.4807   30.7425 C.3     1  UNL1        0.1152
     34 N         -27.5763    1.3097   29.6758 N.am    1  UNL1       -0.2042
     35 O         -28.0673   -0.7629   28.9076 O.2     1  UNL1       -0.2718
     36 C         -22.5420    1.1573   27.9944 C.3     1  UNL1        0.1733
     37 C         -25.7340   -0.2258   29.0800 C.3     1  UNL1        0.1766
     38 C         -27.2506    0.0835   29.2343 C.2     1  UNL1        0.2594
     39 N         -24.9677    0.8221   28.4400 N.3     1  UNL1       -0.1217
@<TRIPOS>BOND
     1     1    37    1
     2     2     7    1
     3     2     1    1
     4     3     2    2
     5     4     3    1
     6     4     5    2
     7     5     6    1
     8     6     7    2
     9     8     1    1
    10     8     9    1
    11     8    12    1
    12     9    10    1
    13    10    11    1
    14    12    11    1
    15    13    31    1
    16    14    13    1
    17    14    15    1
    18    15    18    2
    19    16    17    1
    20    16    15    1
    21    19    14    2
    22    20    21    2
    23    20    19    1
    24    21    26    1
    25    22    21    1
    26    23    22    1
    27    24    23    1
    28    24    25    1
    29    26    27    1
    30    26    13    2
    31    28    33    1
    32    29    31    1
    33    29    36    1
    34    31    39    1
    35    34    33    1
    36    35    38    2
    37    36    30    1
    38    36    32    1
    39    37    39    1
    40    37    38    1
    41    38    34    1
