@<TRIPOS>MOLECULE
outputs/IAG933/test6/raw/output_9260_IAG933_linker_design_.xyz
 44 48 0 0 0
SMALL
GASTEIGER

@<TRIPOS>ATOM
      1 C         -24.8550   -1.0120   30.1430 C.3     1  UNL1        0.0971
      2 C         -24.9730   -2.5050   29.7880 C.2     1  UNL1       -0.0064
      3 C         -23.9060   -3.1730   29.1460 C.2     1  UNL1       -0.0029
      4 C         -23.9890   -4.5490   28.8530 C.2     1  UNL1       -0.0003
      5 C         -25.1370   -5.2800   29.2050 C.2     1  UNL1       -0.0000
      6 C         -26.2320   -4.6110   29.7840 C.2     1  UNL1       -0.0003
      7 C         -26.1550   -3.2320   30.0650 C.2     1  UNL1       -0.0029
      8 C         -25.3870   -0.6790   31.5710 C.3     1  UNL1        0.0916
      9 C         -25.1890    0.7730   32.0280 C.3     1  UNL1        0.0206
     10 C         -25.3360    0.6840   33.5440 C.3     1  UNL1        0.0203
     11 C         -24.8290   -0.7150   33.9050 C.3     1  UNL1        0.0888
     12 N         -24.7580   -1.4810   32.6460 N.3     1  UNL1       -0.2178
     13 C         -25.6880    1.6140   26.4610 C.2     1  UNL1        0.0389
     14 C         -26.2500    2.9200   26.3950 C.2     1  UNL1        0.0764
     15 C         -25.6420    4.0930   27.1230 C.2     1  UNL1        0.2664
     16 N         -25.6140    5.2520   26.4490 N.am    1  UNL1       -0.1997
     17 C         -25.0260    6.4790   26.9630 C.3     1  UNL1        0.1388
     18 O         -25.1430    3.9660   28.2430 O.2     1  UNL1       -0.2683
     19 C         -27.4380    3.0910   25.6450 C.2     1  UNL1        0.1067
     20 N         -28.0750    2.0890   25.0030 N.2     1  UNL1       -0.2081
     21 C         -27.5430    0.8490   25.0790 C.2     1  UNL1        0.2533
     22 O         -28.1930   -0.2080   24.4770 O.2     1  UNL1       -0.4558
     23 C         -29.4600    0.0050   23.8660 C.3     1  UNL1        0.2426
     24 C         -30.0650   -1.3770   23.5730 C.3     1  UNL1        0.2292
     25 O         -30.7290   -1.8780   24.7210 O.3     1  UNL1       -0.2162
     26 C         -26.3540    0.5760   25.7770 C.2     1  UNL1        0.1929
     27 F         -25.8600   -0.6810   25.7950 F       1  UNL1       -0.1992
     28 C         -23.1654    0.4498   28.7950 C.2     1  UNL1        0.1961
     29 C         -24.6041    0.5744   28.4493 C.3     1  UNL1        0.1465
     30 C         -27.9864    0.7681   29.0654 C.2     1  UNL1        0.1664
     31 C         -22.6555    1.3777   28.1121 C.2     1  UNL1        0.1184
     32 F         -20.2642    0.9020   28.1066 F       1  UNL1       -0.1930
     33 O         -23.1885    2.7864   26.1665 O.2     1  UNL1       -0.2869
     34 C         -24.6868    1.3470   27.2735 C.2     1  UNL1        0.0410
     35 N         -25.5455   -0.0797   29.1610 N.3     1  UNL1       -0.2542
     36 C         -23.4887    1.9229   27.1017 C.2     1  UNL1        0.1975
     37 C         -21.3306    1.3245   27.6317 C.3     1  UNL1        0.3469
     38 C         -27.9477    2.0620   30.0250 C.3     1  UNL1        0.0591
     39 C         -28.2829    3.4935   30.4148 C.3     1  UNL1        0.0078
     40 O         -29.1449    0.4001   28.8135 O.2     1  UNL1       -0.2946
     41 O         -22.4369   -0.3772   29.6088 O.2     1  UNL1       -0.2896
     42 C         -29.3601    2.4871   30.4993 C.3     1  UNL1        0.0078
     43 C         -26.9199   -0.1728   28.7057 C.3     1  UNL1        0.1383
     44 F         -20.9427    1.8759   26.5637 F       1  UNL1       -0.1930
@<TRIPOS>BOND
     1     1    35    1
     2     2     7    1
     3     2     1    1
     4     3     2    2
     5     4     3    1
     6     4     5    2
     7     5     6    1
     8     6     7    2
     9     8     1    1
    10     8     9    1
    11     8    12    1
    12     9    10    1
    13    10    11    1
    14    12    11    1
    15    13    34    1
    16    14    13    1
    17    14    15    1
    18    15    18    2
    19    16    17    1
    20    16    15    1
    21    19    14    2
    22    20    21    2
    23    20    19    1
    24    21    26    1
    25    22    21    1
    26    23    22    1
    27    24    23    1
    28    24    25    1
    29    26    27    1
    30    26    13    2
    31    28    41    1
    32    29    28    1
    33    29    35    1
    34    30    38    1
    35    31    28    2
    36    33    36    1
    37    34    29    1
    38    36    34    2
    39    36    31    1
    40    37    32    1
    41    37    31    1
    42    38    39    1
    43    38    42    1
    44    39    42    1
    45    40    30    2
    46    43    30    1
    47    43    35    1
    48    44    37    1
