@<TRIPOS>MOLECULE
outputs/IAG933/test6/raw/output_9264_IAG933_linker_design_.xyz
 45 49 0 0 0
SMALL
GASTEIGER

@<TRIPOS>ATOM
      1 C         -24.8550   -1.0120   30.1430 C.3     1  UNL1        0.0966
      2 C         -24.9730   -2.5050   29.7880 C.2     1  UNL1       -0.0064
      3 C         -23.9060   -3.1730   29.1460 C.2     1  UNL1       -0.0029
      4 C         -23.9890   -4.5490   28.8530 C.2     1  UNL1       -0.0003
      5 C         -25.1370   -5.2800   29.2050 C.2     1  UNL1       -0.0000
      6 C         -26.2320   -4.6110   29.7840 C.2     1  UNL1       -0.0003
      7 C         -26.1550   -3.2320   30.0650 C.2     1  UNL1       -0.0029
      8 C         -25.3870   -0.6790   31.5710 C.3     1  UNL1        0.0916
      9 C         -25.1890    0.7730   32.0280 C.3     1  UNL1        0.0206
     10 C         -25.3360    0.6840   33.5440 C.3     1  UNL1        0.0203
     11 C         -24.8290   -0.7150   33.9050 C.3     1  UNL1        0.0888
     12 N         -24.7580   -1.4810   32.6460 N.3     1  UNL1       -0.2178
     13 C         -25.6880    1.6140   26.4610 C.3     1  UNL1        0.0869
     14 C         -26.2500    2.9200   26.3950 C.2     1  UNL1        0.0562
     15 C         -25.6420    4.0930   27.1230 C.2     1  UNL1        0.2625
     16 N         -25.6140    5.2520   26.4490 N.am    1  UNL1       -0.2000
     17 C         -25.0260    6.4790   26.9630 C.3     1  UNL1        0.1388
     18 O         -25.1430    3.9660   28.2430 O.2     1  UNL1       -0.2687
     19 C         -27.4380    3.0910   25.6450 C.2     1  UNL1        0.1022
     20 N         -28.0750    2.0890   25.0030 N.2     1  UNL1       -0.2119
     21 C         -27.5430    0.8490   25.0790 C.2     1  UNL1        0.2341
     22 O         -28.1930   -0.2080   24.4770 O.2     1  UNL1       -0.4585
     23 C         -29.4600    0.0050   23.8660 C.3     1  UNL1        0.2423
     24 C         -30.0650   -1.3770   23.5730 C.3     1  UNL1        0.2292
     25 O         -30.7290   -1.8780   24.7210 O.3     1  UNL1       -0.2162
     26 C         -26.3540    0.5760   25.7770 C.3     1  UNL1        0.2414
     27 F         -25.8600   -0.6810   25.7950 F       1  UNL1       -0.2268
     28 O         -30.3557   -3.2507   29.3375 O.3     1  UNL1       -0.2188
     29 O         -29.3038   -0.9405   29.2016 O.3     1  UNL1       -0.3431
     30 O         -28.1905    1.5413   29.9508 O.2     1  UNL1       -0.2920
     31 N         -29.8514   -3.0985   32.8223 N.3     1  UNL1       -0.1285
     32 C         -21.8188    1.8101   26.3329 C.3     1  UNL1        0.0292
     33 C         -27.5622    0.8049   29.2662 C.2     1  UNL1        0.1960
     34 C         -30.0082   -2.7534   30.5973 C.3     1  UNL1        0.2003
     35 N         -25.2365   -0.1841   29.0389 N.3     1  UNL1       -0.2621
     36 N         -22.9687    0.2642   28.2646 N.pl3   1  UNL1       -0.2370
     37 C         -21.9653    0.9946   28.5788 C.2     1  UNL1        0.0755
     38 C         -23.0190    1.2494   26.0922 C.3     1  UNL1        0.0277
     39 C         -24.9708    1.0101   27.6534 C.3     1  UNL1        0.0915
     40 C         -29.5462   -1.3292   30.6758 C.3     1  UNL1        0.1770
     41 C         -23.5997    0.7999   27.2700 C.3     1  UNL1        0.1082
     42 C         -28.1939   -0.3032   28.4065 C.3     1  UNL1        0.2076
     43 C         -21.3694    1.7644   27.6249 C.2     1  UNL1       -0.0087
     44 C         -25.9671    1.0068   28.9881 C.3     1  UNL1        0.1340
     45 C         -29.5321   -3.8542   31.5673 C.3     1  UNL1        0.1447
@<TRIPOS>BOND
     1     1     2    1
     2     2     7    1
     3     3     2    2
     4     4     3    1
     5     4     5    2
     6     5     6    1
     7     6     7    2
     8     8     1    1
     9     8     9    1
    10     8    12    1
    11     9    10    1
    12    10    11    1
    13    12    11    1
    14    13    14    1
    15    13    39    1
    16    14    15    1
    17    15    18    2
    18    16    17    1
    19    16    15    1
    20    19    14    2
    21    20    21    2
    22    20    19    1
    23    21    26    1
    24    22    21    1
    25    23    22    1
    26    24    23    1
    27    24    25    1
    28    26    27    1
    29    26    13    1
    30    29    40    1
    31    32    43    1
    32    33    30    2
    33    34    28    1
    34    34    40    1
    35    34    45    1
    36    35     1    1
    37    36    37    1
    38    38    32    1
    39    39    44    1
    40    39    35    1
    41    41    38    1
    42    41    39    1
    43    41    36    1
    44    42    29    1
    45    42    33    1
    46    43    37    2
    47    44    35    1
    48    44    33    1
    49    45    31    1
