@<TRIPOS>MOLECULE
outputs/IAG933/test6/raw/output_9265_IAG933_linker_design_.xyz
 45 49 0 0 0
SMALL
GASTEIGER

@<TRIPOS>ATOM
      1 C         -24.8550   -1.0120   30.1430 C.3     1  UNL1        0.0621
      2 C         -24.9730   -2.5050   29.7880 C.2     1  UNL1       -0.0193
      3 C         -23.9060   -3.1730   29.1460 C.2     1  UNL1       -0.0042
      4 C         -23.9890   -4.5490   28.8530 C.2     1  UNL1       -0.0003
      5 C         -25.1370   -5.2800   29.2050 C.2     1  UNL1       -0.0000
      6 C         -26.2320   -4.6110   29.7840 C.2     1  UNL1       -0.0003
      7 C         -26.1550   -3.2320   30.0650 C.2     1  UNL1       -0.0042
      8 C         -25.3870   -0.6790   31.5710 C.3     1  UNL1        0.1183
      9 C         -25.1890    0.7730   32.0280 C.3     1  UNL1        0.1835
     10 C         -25.3360    0.6840   33.5440 C.3     1  UNL1        0.0638
     11 C         -24.8290   -0.7150   33.9050 C.3     1  UNL1        0.0926
     12 N         -24.7580   -1.4810   32.6460 N.3     1  UNL1       -0.2153
     13 C         -25.6880    1.6140   26.4610 C.2     1  UNL1        0.0556
     14 C         -26.2500    2.9200   26.3950 C.2     1  UNL1        0.0779
     15 C         -25.6420    4.0930   27.1230 C.2     1  UNL1        0.2665
     16 N         -25.6140    5.2520   26.4490 N.am    1  UNL1       -0.1997
     17 C         -25.0260    6.4790   26.9630 C.3     1  UNL1        0.1388
     18 O         -25.1430    3.9660   28.2430 O.2     1  UNL1       -0.2683
     19 C         -27.4380    3.0910   25.6450 C.2     1  UNL1        0.1068
     20 N         -28.0750    2.0890   25.0030 N.2     1  UNL1       -0.2081
     21 C         -27.5430    0.8490   25.0790 C.2     1  UNL1        0.2533
     22 O         -28.1930   -0.2080   24.4770 O.2     1  UNL1       -0.4558
     23 C         -29.4600    0.0050   23.8660 C.3     1  UNL1        0.2426
     24 C         -30.0650   -1.3770   23.5730 C.3     1  UNL1        0.2292
     25 O         -30.7290   -1.8780   24.7210 O.3     1  UNL1       -0.2162
     26 C         -26.3540    0.5760   25.7770 C.2     1  UNL1        0.1944
     27 F         -25.8600   -0.6810   25.7950 F       1  UNL1       -0.1992
     28 O         -21.8541    1.7716   26.8633 O.2     1  UNL1       -0.4139
     29 C         -24.1763    3.7839   32.4729 C.2     1  UNL1        0.0366
     30 C         -24.2821    1.3377   27.0079 C.2     1  UNL1        0.1022
     31 C         -23.0934    1.8858   26.4223 C.2     1  UNL1        0.2194
     32 N         -24.0232    0.5351   28.1182 N.pl3   1  UNL1       -0.2563
     33 C         -26.6918    4.9459   32.3243 C.2     1  UNL1       -0.0011
     34 C         -24.4968    4.8608   33.3008 C.2     1  UNL1       -0.0011
     35 F         -20.4429    1.0989   28.4201 F       1  UNL1       -0.1588
     36 C         -25.1509   -0.1758   28.7970 C.3     1  UNL1        0.1037
     37 O         -24.9636    1.9323   31.2655 O.2     1  UNL1       -0.4777
     38 C         -26.3768    3.9103   31.4600 C.2     1  UNL1        0.0366
     39 F         -22.3594   -0.5457   29.4203 F       1  UNL1       -0.1816
     40 C         -22.7278    0.3718   28.5279 C.2     1  UNL1        0.2600
     41 C         -25.1681    3.2264   31.6822 C.2     1  UNL1        0.1384
     42 C         -26.3916    5.9116   34.5994 C.3     1  UNL1        0.0310
     43 C         -21.6828    1.0939   27.9639 C.2     1  UNL1        0.3312
     44 C         -25.8337    5.2543   33.3587 C.2     1  UNL1       -0.0217
     45 CL        -23.1080    2.8421   24.9698 Cl      1  UNL1       -0.0412
@<TRIPOS>BOND
     1     1    36    1
     2     2     7    1
     3     2     1    1
     4     3     2    2
     5     4     3    1
     6     4     5    2
     7     5     6    1
     8     6     7    2
     9     8     1    1
    10     8     9    1
    11     8    12    1
    12     9    37    1
    13     9    10    1
    14    10    11    1
    15    12    11    1
    16    13    30    1
    17    14    13    1
    18    14    15    1
    19    15    18    2
    20    16    17    1
    21    16    15    1
    22    19    14    2
    23    20    21    2
    24    20    19    1
    25    21    26    1
    26    22    21    1
    27    23    22    1
    28    24    23    1
    29    24    25    1
    30    26    27    1
    31    26    13    2
    32    28    43    1
    33    29    34    1
    34    30    32    1
    35    31    28    1
    36    31    30    2
    37    32    40    1
    38    32    36    1
    39    33    44    1
    40    34    44    2
    41    37    41    1
    42    38    41    1
    43    38    33    2
    44    40    39    1
    45    41    29    2
    46    43    35    1
    47    43    40    2
    48    44    42    1
    49    45    31    1
