@<TRIPOS>MOLECULE
No_927-gen_results/8p0m/2024-11-27-11-27-31/
 25 27 0 0 0
SMALL
GASTEIGER

@<TRIPOS>ATOM
      1 C         -28.0162   -0.8135   28.8779 C.ar    1  UNL1        0.0695
      2 C         -27.0636   -0.1190   28.6079 C.ar    1  UNL1        0.1511
      3 C         -26.8756    1.1325   28.9134 C.ar    1  UNL1        0.0371
      4 C         -27.9014    1.8066   29.6436 C.ar    1  UNL1        0.0350
      5 C         -29.0458   -0.2316   29.7181 C.ar    1  UNL1        0.1704
      6 C         -28.9402    1.0517   30.0597 C.ar    1  UNL1        0.1676
      7 F         -30.0381   -1.0345   30.0722 F       1  UNL1       -0.2017
      8 C         -25.6630    1.9355   28.4517 C.ar    1  UNL1        0.0052
      9 C         -24.9331    1.7180   27.6869 C.ar    1  UNL1        0.0297
     10 C         -23.7043    2.5326   27.3543 C.ar    1  UNL1        0.1401
     11 C         -25.4764    3.2474   29.2205 C.ar    1  UNL1        0.0002
     12 C         -24.5600    4.2101   28.7519 C.ar    1  UNL1        0.0023
     13 C         -23.6086    3.7558   27.8323 C.ar    1  UNL1        0.0296
     14 F         -22.8620    2.1733   26.3391 F       1  UNL1       -0.2042
     15 O         -25.9963   -0.6846   27.8137 O.3     1  UNL1       -0.4209
     16 F         -29.9193    1.6110   30.7954 F       1  UNL1       -0.2018
     17 C         -25.1585   -1.6242   28.4377 C.2     1  UNL1        0.3488
     18 C         -24.6004   -1.3009   29.7172 C.ar    1  UNL1        0.1148
     19 C         -24.8726   -1.7995   30.5950 C.ar    1  UNL1        0.2019
     20 C         -24.2660   -1.3747   31.9516 C.ar    1  UNL1        0.0422
     21 C         -23.3017   -0.3669   31.9019 C.ar    1  UNL1        0.0033
     22 C         -23.5118   -0.2581   29.8004 C.ar    1  UNL1        0.0097
     23 C         -22.8662    0.1345   30.8117 C.ar    1  UNL1        0.0004
     24 O         -25.0488   -2.7108   27.9433 O.2     1  UNL1       -0.2444
     25 O         -25.8499   -2.6819   30.7012 O.3     1  UNL1       -0.2863
@<TRIPOS>BOND
     1     5     7    1
     2     3     8    1
     3    10    14    1
     4     2    15    1
     5     6    16    1
     6    15    17    1
     7    17    18    1
     8    17    24    2
     9    19    25    1
    10    18    19   ar
    11    19    20   ar
    12    20    21   ar
    13    21    23   ar
    14    23    22   ar
    15    22    18   ar
    16     8     9   ar
    17     9    10   ar
    18    10    13   ar
    19    13    12   ar
    20    12    11   ar
    21    11     8   ar
    22     1     2   ar
    23     2     3   ar
    24     3     4   ar
    25     4     6   ar
    26     6     5   ar
    27     5     1   ar
