@<TRIPOS>MOLECULE
outputs/IAG933/test6/raw/output_9272_IAG933_linker_design_.xyz
 42 45 0 0 0
SMALL
GASTEIGER

@<TRIPOS>ATOM
      1 C         -24.8550   -1.0120   30.1430 C.3     1  UNL1        0.1169
      2 C         -24.9730   -2.5050   29.7880 C.2     1  UNL1       -0.0026
      3 C         -23.9060   -3.1730   29.1460 C.2     1  UNL1       -0.0026
      4 C         -23.9890   -4.5490   28.8530 C.2     1  UNL1       -0.0003
      5 C         -25.1370   -5.2800   29.2050 C.2     1  UNL1       -0.0000
      6 C         -26.2320   -4.6110   29.7840 C.2     1  UNL1       -0.0003
      7 C         -26.1550   -3.2320   30.0650 C.2     1  UNL1       -0.0026
      8 C         -25.3870   -0.6790   31.5710 C.3     1  UNL1        0.0954
      9 C         -25.1890    0.7730   32.0280 C.3     1  UNL1        0.0209
     10 C         -25.3360    0.6840   33.5440 C.3     1  UNL1        0.0203
     11 C         -24.8290   -0.7150   33.9050 C.3     1  UNL1        0.0888
     12 N         -24.7580   -1.4810   32.6460 N.3     1  UNL1       -0.2174
     13 C         -25.6880    1.6140   26.4610 C.2     1  UNL1        0.1031
     14 C         -26.2500    2.9200   26.3950 C.2     1  UNL1        0.0927
     15 C         -25.6420    4.0930   27.1230 C.2     1  UNL1        0.2678
     16 N         -25.6140    5.2520   26.4490 N.am    1  UNL1       -0.1997
     17 C         -25.0260    6.4790   26.9630 C.3     1  UNL1        0.1388
     18 O         -25.1430    3.9660   28.2430 O.2     1  UNL1       -0.2683
     19 C         -27.4380    3.0910   25.6450 C.2     1  UNL1        0.1082
     20 N         -28.0750    2.0890   25.0030 N.2     1  UNL1       -0.2080
     21 C         -27.5430    0.8490   25.0790 C.2     1  UNL1        0.2548
     22 O         -28.1930   -0.2080   24.4770 O.2     1  UNL1       -0.4558
     23 C         -29.4600    0.0050   23.8660 C.3     1  UNL1        0.2426
     24 C         -30.0650   -1.3770   23.5730 C.3     1  UNL1        0.2292
     25 O         -30.7290   -1.8780   24.7210 O.3     1  UNL1       -0.2162
     26 C         -26.3540    0.5760   25.7770 C.2     1  UNL1        0.2090
     27 F         -25.8600   -0.6810   25.7950 F       1  UNL1       -0.1977
     28 O         -22.1454    0.1216   29.5141 O.3     1  UNL1       -0.2811
     29 N         -24.5054    1.2838   27.1332 N.ar    1  UNL1       -0.2885
     30 C         -23.0468    2.3715   25.3506 C.3     1  UNL1        0.2394
     31 O         -29.6702   -0.1572   28.5194 O.3     1  UNL1       -0.2200
     32 C         -23.2465    1.7155   26.6373 C.ar    1  UNL1        0.1089
     33 C         -27.3761    1.2290   29.4383 C.2     1  UNL1       -0.0073
     34 C         -26.6539    0.0231   28.8143 C.2     1  UNL1        0.0622
     35 C         -24.3005    0.6089   28.3113 C.ar    1  UNL1        0.1625
     36 C         -22.7566    0.6958   28.5403 C.ar    1  UNL1        0.2542
     37 C         -22.2407    1.4390   27.5193 C.ar    1  UNL1        0.1962
     38 C         -28.7460    1.9418   29.3372 C.3     1  UNL1        0.0629
     39 F         -21.7017    2.5763   25.0612 F       1  UNL1       -0.2274
     40 F         -20.9277    1.8037   27.4674 F       1  UNL1       -0.1994
     41 N         -25.2195   -0.0587   29.0896 N.pl3   1  UNL1       -0.2663
     42 C         -29.7545    1.2126   28.4021 C.3     1  UNL1        0.1868
@<TRIPOS>BOND
     1     1    41    1
     2     2     7    1
     3     2     1    1
     4     3     2    2
     5     4     3    1
     6     4     5    2
     7     5     6    1
     8     6     7    2
     9     8     1    1
    10     8     9    1
    11     8    12    1
    12     9    10    1
    13    10    11    1
    14    12    11    1
    15    13    29    1
    16    14    13    1
    17    14    15    1
    18    15    18    2
    19    16    17    1
    20    16    15    1
    21    19    14    2
    22    20    21    2
    23    20    19    1
    24    21    26    1
    25    22    21    1
    26    23    22    1
    27    24    23    1
    28    24    25    1
    29    26    27    1
    30    26    13    2
    31    29    35   ar
    32    30    32    1
    33    32    29   ar
    34    32    37   ar
    35    34    41    1
    36    34    33    2
    37    35    36   ar
    38    35    41    1
    39    36    28    1
    40    37    36   ar
    41    38    33    1
    42    39    30    1
    43    40    37    1
    44    42    31    1
    45    42    38    1
