@<TRIPOS>MOLECULE
outputs/IAG933/test6/raw/output_9273_IAG933_linker_design_.xyz
 45 49 0 0 0
SMALL
GASTEIGER

@<TRIPOS>ATOM
      1 C         -24.8550   -1.0120   30.1430 C.3     1  UNL1        0.0391
      2 C         -24.9730   -2.5050   29.7880 C.2     1  UNL1       -0.0211
      3 C         -23.9060   -3.1730   29.1460 C.2     1  UNL1       -0.0042
      4 C         -23.9890   -4.5490   28.8530 C.2     1  UNL1       -0.0003
      5 C         -25.1370   -5.2800   29.2050 C.2     1  UNL1       -0.0000
      6 C         -26.2320   -4.6110   29.7840 C.2     1  UNL1       -0.0003
      7 C         -26.1550   -3.2320   30.0650 C.2     1  UNL1       -0.0042
      8 C         -25.3870   -0.6790   31.5710 C.3     1  UNL1        0.0768
      9 C         -25.1890    0.7730   32.0280 C.3     1  UNL1        0.0192
     10 C         -25.3360    0.6840   33.5440 C.3     1  UNL1        0.0202
     11 C         -24.8290   -0.7150   33.9050 C.3     1  UNL1        0.0887
     12 N         -24.7580   -1.4810   32.6460 N.3     1  UNL1       -0.2191
     13 C         -25.6880    1.6140   26.4610 C.2     1  UNL1        0.0376
     14 C         -26.2500    2.9200   26.3950 C.2     1  UNL1        0.0763
     15 C         -25.6420    4.0930   27.1230 C.2     1  UNL1        0.2664
     16 N         -25.6140    5.2520   26.4490 N.am    1  UNL1       -0.1997
     17 C         -25.0260    6.4790   26.9630 C.3     1  UNL1        0.1388
     18 O         -25.1430    3.9660   28.2430 O.2     1  UNL1       -0.2683
     19 C         -27.4380    3.0910   25.6450 C.2     1  UNL1        0.1067
     20 N         -28.0750    2.0890   25.0030 N.2     1  UNL1       -0.2081
     21 C         -27.5430    0.8490   25.0790 C.2     1  UNL1        0.2533
     22 O         -28.1930   -0.2080   24.4770 O.2     1  UNL1       -0.4558
     23 C         -29.4600    0.0050   23.8660 C.3     1  UNL1        0.2426
     24 C         -30.0650   -1.3770   23.5730 C.3     1  UNL1        0.2292
     25 O         -30.7290   -1.8780   24.7210 O.3     1  UNL1       -0.2162
     26 C         -26.3540    0.5760   25.7770 C.2     1  UNL1        0.1929
     27 F         -25.8600   -0.6810   25.7950 F       1  UNL1       -0.1992
     28 O         -29.7562    0.1681   28.4617 O.2     1  UNL1       -0.2869
     29 C         -21.8758    1.6866   26.8710 C.2     1  UNL1        0.0446
     30 C         -21.7087    1.0470   28.1000 C.2     1  UNL1        0.0410
     31 C         -24.3375    1.3198   26.9745 C.2     1  UNL1        0.0263
     32 C         -29.0155    3.9007   28.7942 C.2     1  UNL1        0.0033
     33 C         -28.8379    2.8294   30.9443 C.2     1  UNL1       -0.0011
     34 O         -22.5768   -0.0029   29.8950 O.2     1  UNL1       -0.2910
     35 O         -23.2021    2.3950   25.0951 O.2     1  UNL1       -0.2869
     36 C         -27.6287    0.6977   30.3586 C.3     1  UNL1        0.0296
     37 C         -29.4418    2.6862   28.1982 C.2     1  UNL1        0.0417
     38 C         -26.8626    0.1270   29.0797 C.3     1  UNL1        0.0059
     39 C         -29.4183    1.4408   28.8926 C.2     1  UNL1        0.1917
     40 C         -23.1733    1.7925   26.3245 C.2     1  UNL1        0.1923
     41 C         -28.8341    3.9983   30.1982 C.2     1  UNL1       -0.0001
     42 C         -28.7915    1.5830   30.2406 C.2     1  UNL1        0.0167
     43 C         -24.1840    0.5572   28.1872 C.3     1  UNL1        0.0877
     44 C         -25.3636   -0.1756   28.9134 C.3     1  UNL1        0.0172
     45 C         -22.8386    0.4763   28.7637 C.2     1  UNL1        0.1770
@<TRIPOS>BOND
     1     1    44    1
     2     2     7    1
     3     2     1    1
     4     3     2    2
     5     4     3    1
     6     4     5    2
     7     5     6    1
     8     6     7    2
     9     8     1    1
    10     8     9    1
    11     8    12    1
    12     9    10    1
    13    10    11    1
    14    12    11    1
    15    13    31    1
    16    14    13    1
    17    14    15    1
    18    15    18    2
    19    16    17    1
    20    16    15    1
    21    19    14    2
    22    20    21    2
    23    20    19    1
    24    21    26    1
    25    22    21    1
    26    23    22    1
    27    24    23    1
    28    24    25    1
    29    26    27    1
    30    26    13    2
    31    28    39    1
    32    29    30    2
    33    30    45    1
    34    31    43    1
    35    32    41    1
    36    35    40    1
    37    37    32    2
    38    37    39    1
    39    38    36    1
    40    39    42    2
    41    40    29    1
    42    40    31    2
    43    41    33    2
    44    42    36    1
    45    42    33    1
    46    43    45    1
    47    43    44    1
    48    44    38    1
    49    45    34    2
