@<TRIPOS>MOLECULE
outputs/IAG933/test6/raw/output_9281_IAG933_linker_design_.xyz
 42 45 0 0 0
SMALL
GASTEIGER

@<TRIPOS>ATOM
      1 C         -24.8550   -1.0120   30.1430 C.3     1  UNL1        0.0587
      2 C         -24.9730   -2.5050   29.7880 C.2     1  UNL1       -0.0195
      3 C         -23.9060   -3.1730   29.1460 C.2     1  UNL1       -0.0042
      4 C         -23.9890   -4.5490   28.8530 C.2     1  UNL1       -0.0003
      5 C         -25.1370   -5.2800   29.2050 C.2     1  UNL1       -0.0000
      6 C         -26.2320   -4.6110   29.7840 C.2     1  UNL1       -0.0003
      7 C         -26.1550   -3.2320   30.0650 C.2     1  UNL1       -0.0042
      8 C         -25.3870   -0.6790   31.5710 C.3     1  UNL1        0.0785
      9 C         -25.1890    0.7730   32.0280 C.3     1  UNL1        0.0192
     10 C         -25.3360    0.6840   33.5440 C.3     1  UNL1        0.0202
     11 C         -24.8290   -0.7150   33.9050 C.3     1  UNL1        0.0887
     12 N         -24.7580   -1.4810   32.6460 N.3     1  UNL1       -0.2191
     13 C         -25.6880    1.6140   26.4610 C.2     1  UNL1        0.1086
     14 C         -26.2500    2.9200   26.3950 C.2     1  UNL1        0.0918
     15 C         -25.6420    4.0930   27.1230 C.2     1  UNL1        0.2677
     16 N         -25.6140    5.2520   26.4490 N.am    1  UNL1       -0.1997
     17 C         -25.0260    6.4790   26.9630 C.3     1  UNL1        0.1388
     18 O         -25.1430    3.9660   28.2430 O.2     1  UNL1       -0.2683
     19 C         -27.4380    3.0910   25.6450 C.2     1  UNL1        0.1080
     20 N         -28.0750    2.0890   25.0030 N.2     1  UNL1       -0.2080
     21 C         -27.5430    0.8490   25.0790 C.2     1  UNL1        0.2546
     22 O         -28.1930   -0.2080   24.4770 O.2     1  UNL1       -0.4558
     23 C         -29.4600    0.0050   23.8660 C.3     1  UNL1        0.2426
     24 C         -30.0650   -1.3770   23.5730 C.3     1  UNL1        0.2292
     25 O         -30.7290   -1.8780   24.7210 O.3     1  UNL1       -0.2162
     26 C         -26.3540    0.5760   25.7770 C.2     1  UNL1        0.2082
     27 F         -25.8600   -0.6810   25.7950 F       1  UNL1       -0.1978
     28 C         -22.4309    0.1755   28.8744 C.ar    1  UNL1        0.2345
     29 C         -23.6551    0.4716   28.5352 C.ar    1  UNL1        0.0653
     30 C         -25.0113   -0.0054   29.0750 C.3     1  UNL1        0.1061
     31 N         -24.6011    1.4135   27.0205 N.pl3   1  UNL1       -0.2060
     32 C         -23.5276    1.3471   27.4295 C.ar    1  UNL1        0.1178
     33 N         -21.9448   -0.6404   29.8459 N.pl3   1  UNL1       -0.0880
     34 O         -27.4463    2.3401   29.7370 O.3     1  UNL1       -0.2175
     35 C         -28.1646    0.4408   28.3148 C.3     1  UNL1        0.2020
     36 C         -28.0544    1.7685   28.6631 C.3     1  UNL1        0.2162
     37 O         -21.5902    0.7389   27.9180 O.2     1  UNL1       -0.4247
     38 C         -22.2958    1.4723   27.0522 C.ar    1  UNL1        0.2198
     39 O         -29.2165   -0.1554   27.5203 O.3     1  UNL1       -0.2188
     40 CL        -21.6841    2.1837   25.6107 Cl      1  UNL1       -0.0412
     41 C         -27.4431   -0.7467   28.8746 C.3     1  UNL1        0.1245
     42 N         -26.1825   -0.0285   28.6679 N.3     1  UNL1       -0.2117
@<TRIPOS>BOND
     1     1    30    1
     2     2     7    1
     3     2     1    1
     4     3     2    2
     5     4     3    1
     6     4     5    2
     7     5     6    1
     8     6     7    2
     9     8     1    1
    10     8     9    1
    11     8    12    1
    12     9    10    1
    13    10    11    1
    14    12    11    1
    15    13    31    1
    16    14    13    1
    17    14    15    1
    18    15    18    2
    19    16    17    1
    20    16    15    1
    21    19    14    2
    22    20    21    2
    23    20    19    1
    24    21    26    1
    25    22    21    1
    26    23    22    1
    27    24    23    1
    28    24    25    1
    29    26    27    1
    30    26    13    2
    31    28    33    1
    32    29    28   ar
    33    29    30    1
    34    30    42    1
    35    31    32    1
    36    32    29   ar
    37    35    39    1
    38    35    36    1
    39    35    41    1
    40    36    34    1
    41    37    28   ar
    42    38    32   ar
    43    38    37   ar
    44    40    38    1
    45    42    41    1
