@<TRIPOS>MOLECULE
outputs/IAG933/test6/raw/output_9284_IAG933_linker_design_.xyz
 43 46 0 0 0
SMALL
GASTEIGER

@<TRIPOS>ATOM
      1 C         -24.8550   -1.0120   30.1430 C.3     1  UNL1        0.1156
      2 C         -24.9730   -2.5050   29.7880 C.2     1  UNL1       -0.0125
      3 C         -23.9060   -3.1730   29.1460 C.2     1  UNL1       -0.0038
      4 C         -23.9890   -4.5490   28.8530 C.2     1  UNL1       -0.0003
      5 C         -25.1370   -5.2800   29.2050 C.2     1  UNL1       -0.0000
      6 C         -26.2320   -4.6110   29.7840 C.2     1  UNL1       -0.0003
      7 C         -26.1550   -3.2320   30.0650 C.2     1  UNL1       -0.0038
      8 C         -25.3870   -0.6790   31.5710 C.3     1  UNL1        0.0855
      9 C         -25.1890    0.7730   32.0280 C.3     1  UNL1        0.0197
     10 C         -25.3360    0.6840   33.5440 C.3     1  UNL1        0.0203
     11 C         -24.8290   -0.7150   33.9050 C.3     1  UNL1        0.0887
     12 N         -24.7580   -1.4810   32.6460 N.3     1  UNL1       -0.2186
     13 C         -25.6880    1.6140   26.4610 C.3     1  UNL1        0.0708
     14 C         -26.2500    2.9200   26.3950 C.2     1  UNL1        0.0548
     15 C         -25.6420    4.0930   27.1230 C.2     1  UNL1        0.2624
     16 N         -25.6140    5.2520   26.4490 N.am    1  UNL1       -0.2000
     17 C         -25.0260    6.4790   26.9630 C.3     1  UNL1        0.1388
     18 O         -25.1430    3.9660   28.2430 O.2     1  UNL1       -0.2687
     19 C         -27.4380    3.0910   25.6450 C.2     1  UNL1        0.1021
     20 N         -28.0750    2.0890   25.0030 N.2     1  UNL1       -0.2119
     21 C         -27.5430    0.8490   25.0790 C.2     1  UNL1        0.2341
     22 O         -28.1930   -0.2080   24.4770 O.2     1  UNL1       -0.4585
     23 C         -29.4600    0.0050   23.8660 C.3     1  UNL1        0.2423
     24 C         -30.0650   -1.3770   23.5730 C.3     1  UNL1        0.2292
     25 O         -30.7290   -1.8780   24.7210 O.3     1  UNL1       -0.2162
     26 C         -26.3540    0.5760   25.7770 C.3     1  UNL1        0.2400
     27 F         -25.8600   -0.6810   25.7950 F       1  UNL1       -0.2269
     28 C         -24.2839    1.1889   26.7143 C.3     1  UNL1        0.0227
     29 C         -26.2576    2.1923   29.7175 C.2     1  UNL1        0.0607
     30 C         -27.6802    1.8689   29.6562 C.2     1  UNL1        0.0153
     31 C         -28.6275    2.5417   30.4815 C.2     1  UNL1        0.0013
     32 C         -23.2646    1.2464   27.5745 C.3     1  UNL1        0.1444
     33 C         -26.9182    4.0733   31.2573 C.2     1  UNL1        0.0013
     34 N         -25.0701    1.3023   29.1880 N.am    1  UNL1       -0.2077
     35 C         -28.2725    3.6341   31.2889 C.2     1  UNL1        0.0001
     36 C         -23.5892    1.1375   28.7491 C.2     1  UNL1        0.2402
     37 C         -25.6197   -0.0065   29.1682 C.2     1  UNL1        0.2401
     38 F         -21.0450    2.0333   27.5512 F       1  UNL1       -0.1979
     39 O         -22.7840    0.8742   29.6525 O.2     1  UNL1       -0.2739
     40 F         -22.1898    2.1737   25.6947 F       1  UNL1       -0.1979
     41 C         -22.2551    1.8566   26.8087 C.3     1  UNL1        0.3270
     42 O         -26.5792   -0.4612   28.4735 O.2     1  UNL1       -0.2737
     43 C         -25.9264    3.3165   30.5585 C.2     1  UNL1        0.0153
@<TRIPOS>BOND
     1     1    37    1
     2     2     7    1
     3     2     1    1
     4     3     2    2
     5     4     3    1
     6     4     5    2
     7     5     6    1
     8     6     7    2
     9     8     1    1
    10     8     9    1
    11     8    12    1
    12     9    10    1
    13    10    11    1
    14    12    11    1
    15    13    28    1
    16    14    13    1
    17    14    15    1
    18    15    18    2
    19    16    17    1
    20    16    15    1
    21    19    14    2
    22    20    21    2
    23    20    19    1
    24    21    26    1
    25    22    21    1
    26    23    22    1
    27    24    23    1
    28    24    25    1
    29    26    27    1
    30    26    13    1
    31    29    43    1
    32    30    29    2
    33    30    31    1
    34    31    35    2
    35    32    28    1
    36    32    36    1
    37    33    35    1
    38    34    29    1
    39    36    34   am
    40    36    39    2
    41    37    34   am
    42    40    41    1
    43    41    38    1
    44    41    32    1
    45    42    37    2
    46    43    33    2
