@<TRIPOS>MOLECULE
outputs/IAG933/test6/raw/output_9285_IAG933_linker_design_.xyz
 46 50 0 0 0
SMALL
GASTEIGER

@<TRIPOS>ATOM
      1 C         -24.8550   -1.0120   30.1430 C.3     1  UNL1        0.0454
      2 C         -24.9730   -2.5050   29.7880 C.2     1  UNL1       -0.0207
      3 C         -23.9060   -3.1730   29.1460 C.2     1  UNL1       -0.0042
      4 C         -23.9890   -4.5490   28.8530 C.2     1  UNL1       -0.0003
      5 C         -25.1370   -5.2800   29.2050 C.2     1  UNL1       -0.0000
      6 C         -26.2320   -4.6110   29.7840 C.2     1  UNL1       -0.0003
      7 C         -26.1550   -3.2320   30.0650 C.2     1  UNL1       -0.0042
      8 C         -25.3870   -0.6790   31.5710 C.3     1  UNL1        0.0952
      9 C         -25.1890    0.7730   32.0280 C.3     1  UNL1        0.0933
     10 C         -25.3360    0.6840   33.5440 C.3     1  UNL1        0.0400
     11 C         -24.8290   -0.7150   33.9050 C.3     1  UNL1        0.0905
     12 N         -24.7580   -1.4810   32.6460 N.3     1  UNL1       -0.2174
     13 C         -25.6880    1.6140   26.4610 C.2     1  UNL1        0.0382
     14 C         -26.2500    2.9200   26.3950 C.2     1  UNL1        0.0765
     15 C         -25.6420    4.0930   27.1230 C.2     1  UNL1        0.2664
     16 N         -25.6140    5.2520   26.4490 N.am    1  UNL1       -0.1997
     17 C         -25.0260    6.4790   26.9630 C.3     1  UNL1        0.1388
     18 O         -25.1430    3.9660   28.2430 O.2     1  UNL1       -0.2683
     19 C         -27.4380    3.0910   25.6450 C.2     1  UNL1        0.1067
     20 N         -28.0750    2.0890   25.0030 N.2     1  UNL1       -0.2081
     21 C         -27.5430    0.8490   25.0790 C.2     1  UNL1        0.2533
     22 O         -28.1930   -0.2080   24.4770 O.2     1  UNL1       -0.4558
     23 C         -29.4600    0.0050   23.8660 C.3     1  UNL1        0.2426
     24 C         -30.0650   -1.3770   23.5730 C.3     1  UNL1        0.2292
     25 O         -30.7290   -1.8780   24.7210 O.3     1  UNL1       -0.2162
     26 C         -26.3540    0.5760   25.7770 C.2     1  UNL1        0.1930
     27 F         -25.8600   -0.6810   25.7950 F       1  UNL1       -0.1992
     28 C         -26.6356    4.4672   33.3880 C.3     1  UNL1        0.0869
     29 C         -24.3548    1.4267   26.9202 C.2     1  UNL1        0.0069
     30 CL        -28.0298    4.0368   34.3946 Cl      1  UNL1       -0.1146
     31 O         -26.3634    0.3540   28.7387 O.2     1  UNL1       -0.2699
     32 N         -25.2118    1.3781   30.5985 N.am    1  UNL1       -0.2763
     33 C         -25.1743    6.1145   31.7260 C.2     1  UNL1       -0.0009
     34 C         -26.5541    4.2084   32.0388 C.3     1  UNL1        0.0216
     35 C         -23.2940    1.7060   26.0643 C.2     1  UNL1        0.0002
     36 C         -22.0036    1.7204   26.5436 C.2     1  UNL1        0.0000
     37 C         -24.1575    1.1312   28.2530 C.2     1  UNL1        0.0537
     38 C         -26.0645    2.5557   30.4381 C.3     1  UNL1        0.0937
     39 C         -26.0611    5.1713   31.1678 C.3     1  UNL1        0.0293
     40 C         -22.8094    1.1348   28.7379 C.2     1  UNL1        0.0045
     41 F         -23.7821    6.6588   33.5185 F       1  UNL1       -0.2092
     42 C         -25.6059    5.2047   33.9832 C.3     1  UNL1        0.0724
     43 C         -25.3217    0.9251   29.0380 C.2     1  UNL1        0.2490
     44 C         -26.8624    2.7840   31.6915 C.3     1  UNL1        0.0231
     45 C         -24.8625    6.0015   33.0939 C.2     1  UNL1        0.1146
     46 C         -21.7453    1.4591   27.8920 C.2     1  UNL1        0.0001
@<TRIPOS>BOND
     1     2     7    1
     2     2     1    1
     3     3     2    2
     4     4     3    1
     5     4     5    2
     6     5     6    1
     7     6     7    2
     8     8     1    1
     9     8     9    1
    10     8    12    1
    11     9    32    1
    12     9    10    1
    13    10    11    1
    14    12    11    1
    15    13    29    1
    16    14    13    1
    17    14    15    1
    18    15    18    2
    19    16    17    1
    20    16    15    1
    21    19    14    2
    22    20    21    2
    23    20    19    1
    24    21    26    1
    25    22    21    1
    26    23    22    1
    27    24    23    1
    28    24    25    1
    29    26    27    1
    30    26    13    2
    31    28    42    1
    32    28    30    1
    33    29    37    1
    34    31    43    2
    35    33    45    2
    36    34    44    1
    37    34    28    1
    38    35    36    1
    39    35    29    2
    40    36    46    2
    41    37    40    2
    42    37    43    1
    43    38    32    1
    44    38    44    1
    45    39    33    1
    46    39    34    1
    47    43    32   am
    48    45    41    1
    49    45    42    1
    50    46    40    1
