@<TRIPOS>MOLECULE
outputs/IAG933/test6/raw/output_9286_IAG933_linker_design_.xyz
 40 43 0 0 0
SMALL
GASTEIGER

@<TRIPOS>ATOM
      1 C         -24.8550   -1.0120   30.1430 C.3     1  UNL1        0.0763
      2 C         -24.9730   -2.5050   29.7880 C.2     1  UNL1       -0.0157
      3 C         -23.9060   -3.1730   29.1460 C.2     1  UNL1       -0.0039
      4 C         -23.9890   -4.5490   28.8530 C.2     1  UNL1       -0.0003
      5 C         -25.1370   -5.2800   29.2050 C.2     1  UNL1       -0.0000
      6 C         -26.2320   -4.6110   29.7840 C.2     1  UNL1       -0.0003
      7 C         -26.1550   -3.2320   30.0650 C.2     1  UNL1       -0.0039
      8 C         -25.3870   -0.6790   31.5710 C.3     1  UNL1        0.0822
      9 C         -25.1890    0.7730   32.0280 C.3     1  UNL1        0.0196
     10 C         -25.3360    0.6840   33.5440 C.3     1  UNL1        0.0203
     11 C         -24.8290   -0.7150   33.9050 C.3     1  UNL1        0.0887
     12 N         -24.7580   -1.4810   32.6460 N.3     1  UNL1       -0.2188
     13 C         -25.6880    1.6140   26.4610 C.2     1  UNL1        0.0404
     14 C         -26.2500    2.9200   26.3950 C.2     1  UNL1        0.0766
     15 C         -25.6420    4.0930   27.1230 C.2     1  UNL1        0.2664
     16 N         -25.6140    5.2520   26.4490 N.am    1  UNL1       -0.1997
     17 C         -25.0260    6.4790   26.9630 C.3     1  UNL1        0.1388
     18 O         -25.1430    3.9660   28.2430 O.2     1  UNL1       -0.2683
     19 C         -27.4380    3.0910   25.6450 C.2     1  UNL1        0.1067
     20 N         -28.0750    2.0890   25.0030 N.2     1  UNL1       -0.2081
     21 C         -27.5430    0.8490   25.0790 C.2     1  UNL1        0.2533
     22 O         -28.1930   -0.2080   24.4770 O.2     1  UNL1       -0.4558
     23 C         -29.4600    0.0050   23.8660 C.3     1  UNL1        0.2426
     24 C         -30.0650   -1.3770   23.5730 C.3     1  UNL1        0.2292
     25 O         -30.7290   -1.8780   24.7210 O.3     1  UNL1       -0.2162
     26 C         -26.3540    0.5760   25.7770 C.2     1  UNL1        0.1931
     27 F         -25.8600   -0.6810   25.7950 F       1  UNL1       -0.1992
     28 C         -28.0367    0.0174   28.7356 C.2     1  UNL1        0.4668
     29 C         -22.9280    0.6988   28.5719 C.2     1  UNL1        0.1706
     30 N         -26.6784    0.0015   28.9630 N.am    1  UNL1       -0.1434
     31 C         -24.4069    1.3724   27.0932 C.2     1  UNL1        0.0355
     32 C         -24.2816    0.6195   28.2879 C.2     1  UNL1        0.0438
     33 F         -22.9260    2.4377   25.4995 F       1  UNL1       -0.2017
     34 F         -22.4239    0.1964   29.6864 F       1  UNL1       -0.2017
     35 O         -28.8893    0.4649   29.6131 O.co2   1  UNL1       -0.2203
     36 C         -25.2651   -0.0821   29.0895 C.2     1  UNL1        0.0618
     37 O         -28.4053   -0.4063   27.6840 O.co2   1  UNL1       -0.2203
     38 C         -22.2076    1.4119   27.5125 C.2     1  UNL1        0.1946
     39 F         -20.8501    1.7381   27.4131 F       1  UNL1       -0.1994
     40 C         -23.1794    1.7346   26.6401 C.2     1  UNL1        0.1697
@<TRIPOS>BOND
     1     1    36    1
     2     2     7    1
     3     2     1    1
     4     3     2    2
     5     4     3    1
     6     4     5    2
     7     5     6    1
     8     6     7    2
     9     8     1    1
    10     8     9    1
    11     8    12    1
    12     9    10    1
    13    10    11    1
    14    12    11    1
    15    13    31    1
    16    14    13    1
    17    14    15    1
    18    15    18    2
    19    16    17    1
    20    16    15    1
    21    19    14    2
    22    20    21    2
    23    20    19    1
    24    21    26    1
    25    22    21    1
    26    23    22    1
    27    24    23    1
    28    24    25    1
    29    26    27    1
    30    26    13    2
    31    28    30    1
    32    28    35   ar
    33    29    34    1
    34    30    36    1
    35    31    32    1
    36    32    29    1
    37    32    36    2
    38    33    40    1
    39    37    28   ar
    40    38    29    2
    41    39    38    1
    42    40    31    2
    43    40    38    1
