@<TRIPOS>MOLECULE
outputs/IAG933/test6/raw/output_9287_IAG933_linker_design_.xyz
 44 47 0 0 0
SMALL
GASTEIGER

@<TRIPOS>ATOM
      1 C         -24.8550   -1.0120   30.1430 C.3     1  UNL1        0.2003
      2 C         -24.9730   -2.5050   29.7880 C.2     1  UNL1        0.0213
      3 C         -23.9060   -3.1730   29.1460 C.2     1  UNL1       -0.0004
      4 C         -23.9890   -4.5490   28.8530 C.2     1  UNL1       -0.0002
      5 C         -25.1370   -5.2800   29.2050 C.2     1  UNL1       -0.0000
      6 C         -26.2320   -4.6110   29.7840 C.2     1  UNL1       -0.0002
      7 C         -26.1550   -3.2320   30.0650 C.2     1  UNL1       -0.0004
      8 C         -25.3870   -0.6790   31.5710 C.3     1  UNL1        0.1198
      9 C         -25.1890    0.7730   32.0280 C.3     1  UNL1        0.0233
     10 C         -25.3360    0.6840   33.5440 C.3     1  UNL1        0.0204
     11 C         -24.8290   -0.7150   33.9050 C.3     1  UNL1        0.0889
     12 N         -24.7580   -1.4810   32.6460 N.3     1  UNL1       -0.2150
     13 C         -25.6880    1.6140   26.4610 C.3     1  UNL1        0.1467
     14 C         -26.2500    2.9200   26.3950 C.2     1  UNL1        0.0732
     15 C         -25.6420    4.0930   27.1230 C.2     1  UNL1        0.2640
     16 N         -25.6140    5.2520   26.4490 N.am    1  UNL1       -0.1999
     17 C         -25.0260    6.4790   26.9630 C.3     1  UNL1        0.1388
     18 O         -25.1430    3.9660   28.2430 O.2     1  UNL1       -0.2686
     19 C         -27.4380    3.0910   25.6450 C.2     1  UNL1        0.1038
     20 N         -28.0750    2.0890   25.0030 N.2     1  UNL1       -0.2118
     21 C         -27.5430    0.8490   25.0790 C.2     1  UNL1        0.2358
     22 O         -28.1930   -0.2080   24.4770 O.2     1  UNL1       -0.4585
     23 C         -29.4600    0.0050   23.8660 C.3     1  UNL1        0.2423
     24 C         -30.0650   -1.3770   23.5730 C.3     1  UNL1        0.2292
     25 O         -30.7290   -1.8780   24.7210 O.3     1  UNL1       -0.2162
     26 C         -26.3540    0.5760   25.7770 C.3     1  UNL1        0.2581
     27 F         -25.8600   -0.6810   25.7950 F       1  UNL1       -0.2251
     28 N         -24.9894    1.2266   27.5719 N.pl3   1  UNL1       -0.2567
     29 C         -23.5825    1.0995   27.8008 C.2     1  UNL1        0.1288
     30 C         -23.3978    0.2183   28.9166 C.2     1  UNL1        0.3765
     31 C         -29.9409    3.0522   29.3675 C.2     1  UNL1        0.3395
     32 N         -22.2944   -0.2388   29.5694 N.pl3   1  UNL1        0.2108
     33 C         -28.7256    2.2384   29.8568 C.3     1  UNL1        0.2242
     34 N         -24.6600   -0.0664   29.3073 N.pl3   1  UNL1       -0.1658
     35 C         -21.0824    1.6287   27.5556 C.3     1  UNL1        0.0239
     36 C         -25.5284    0.7043   28.5872 C.3     1  UNL1        0.3202
     37 O         -30.8451    3.1689   30.2702 O.3     1  UNL1       -0.4432
     38 O         -30.0641    3.4288   28.2180 O.2     1  UNL1       -0.2481
     39 C         -22.5347    1.7502   27.1172 C.3     1  UNL1        0.1229
     40 O         -27.6073   -0.3209   28.6278 O.2     1  UNL1       -0.2670
     41 N         -27.7104    1.9811   28.8016 N.am    1  UNL1       -0.1884
     42 C         -26.9825    0.6273   28.7641 C.2     1  UNL1        0.3058
     43 CL        -22.7548    2.3799   25.4984 Cl      1  UNL1       -0.1086
     44 C         -31.8959    4.1458   30.3109 C.3     1  UNL1        0.2557
@<TRIPOS>BOND
     1     1     2    1
     2     2     7    1
     3     3     2    2
     4     4     3    1
     5     4     5    2
     6     5     6    1
     7     6     7    2
     8     8     1    1
     9     8     9    1
    10     8    12    1
    11     9    10    1
    12    10    11    1
    13    12    11    1
    14    13    28    1
    15    14    13    1
    16    14    15    1
    17    15    18    2
    18    16    17    1
    19    16    15    1
    20    19    14    2
    21    20    21    2
    22    20    19    1
    23    21    26    1
    24    22    21    1
    25    23    22    1
    26    24    23    1
    27    24    25    1
    28    26    27    1
    29    26    13    1
    30    28    29    1
    31    28    36    1
    32    29    30    2
    33    30    34    1
    34    30    32    1
    35    31    33    1
    36    31    37    1
    37    34     1    1
    38    36    42    1
    39    36    34    1
    40    37    44    1
    41    38    31    2
    42    39    35    1
    43    39    29    1
    44    40    42    2
    45    41    33    1
    46    42    41    1
    47    43    39    1
