@<TRIPOS>MOLECULE
outputs/IAG933/test6/raw/output_9288_IAG933_linker_design_.xyz
 45 48 0 0 0
SMALL
GASTEIGER

@<TRIPOS>ATOM
      1 C         -24.8550   -1.0120   30.1430 C.3     1  UNL1        0.0567
      2 C         -24.9730   -2.5050   29.7880 C.2     1  UNL1       -0.0197
      3 C         -23.9060   -3.1730   29.1460 C.2     1  UNL1       -0.0042
      4 C         -23.9890   -4.5490   28.8530 C.2     1  UNL1       -0.0003
      5 C         -25.1370   -5.2800   29.2050 C.2     1  UNL1       -0.0000
      6 C         -26.2320   -4.6110   29.7840 C.2     1  UNL1       -0.0003
      7 C         -26.1550   -3.2320   30.0650 C.2     1  UNL1       -0.0042
      8 C         -25.3870   -0.6790   31.5710 C.3     1  UNL1        0.0782
      9 C         -25.1890    0.7730   32.0280 C.3     1  UNL1        0.0192
     10 C         -25.3360    0.6840   33.5440 C.3     1  UNL1        0.0202
     11 C         -24.8290   -0.7150   33.9050 C.3     1  UNL1        0.0887
     12 N         -24.7580   -1.4810   32.6460 N.3     1  UNL1       -0.2191
     13 C         -25.6880    1.6140   26.4610 C.2     1  UNL1        0.0407
     14 C         -26.2500    2.9200   26.3950 C.2     1  UNL1        0.0745
     15 C         -25.6420    4.0930   27.1230 C.2     1  UNL1        0.2241
     16 N         -25.6140    5.2520   26.4490 N.2     1  UNL1       -0.2356
     17 C         -25.0260    6.4790   26.9630 C.3     1  UNL1        0.1550
     18 O         -25.1430    3.9660   28.2430 O.2     1  UNL1       -0.4349
     19 C         -27.4380    3.0910   25.6450 C.2     1  UNL1        0.1068
     20 N         -28.0750    2.0890   25.0030 N.2     1  UNL1       -0.2081
     21 C         -27.5430    0.8490   25.0790 C.2     1  UNL1        0.2533
     22 O         -28.1930   -0.2080   24.4770 O.2     1  UNL1       -0.4558
     23 C         -29.4600    0.0050   23.8660 C.3     1  UNL1        0.2426
     24 C         -30.0650   -1.3770   23.5730 C.3     1  UNL1        0.2292
     25 O         -30.7290   -1.8780   24.7210 O.3     1  UNL1       -0.2162
     26 C         -26.3540    0.5760   25.7770 C.2     1  UNL1        0.1931
     27 F         -25.8600   -0.6810   25.7950 F       1  UNL1       -0.1992
     28 C         -24.8968   -0.1442   28.8631 C.3     1  UNL1        0.1070
     29 C         -25.5096    3.4927   30.5720 C.3     1  UNL1        0.1042
     30 C         -21.8660    1.4291   27.6432 C.3     1  UNL1        0.2971
     31 C         -28.5410    5.0461   28.8168 C.2     1  UNL1       -0.0034
     32 C         -24.9961    3.0762   29.1745 C.3     1  UNL1        0.3098
     33 C         -27.6748    4.0496   31.5767 C.2     1  UNL1       -0.0043
     34 C         -27.3956    4.4319   29.1695 C.2     1  UNL1       -0.0069
     35 C         -26.8962    4.0323   30.4628 C.2     1  UNL1       -0.0161
     36 O         -22.8515    1.9261   26.7719 O.3     1  UNL1       -0.3230
     37 C         -22.4097    2.2880   25.5933 C.3     1  UNL1        0.1772
     38 C         -28.9445    4.5473   31.8309 C.2     1  UNL1       -0.0031
     39 N         -30.6691    5.9200   28.7706 N.3     1  UNL1       -0.1233
     40 C         -29.6790    5.3060   29.5282 C.3     1  UNL1        0.1357
     41 O         -24.1383    2.0535   29.5052 O.3     1  UNL1       -0.2413
     42 F         -20.7516    1.8832   27.5211 F       1  UNL1       -0.2024
     43 C         -29.8468    5.0293   30.8912 C.2     1  UNL1       -0.0031
     44 C         -22.3842    0.6128   28.7029 C.3     1  UNL1        0.1677
     45 N         -23.7934    0.8105   29.1769 N.3     1  UNL1       -0.1564
@<TRIPOS>BOND
     1     1    28    1
     2     2     7    1
     3     2     1    1
     4     3     2    2
     5     4     3    1
     6     4     5    2
     7     5     6    1
     8     6     7    2
     9     8     1    1
    10     8     9    1
    11     8    12    1
    12     9    10    1
    13    10    11    1
    14    12    11    1
    15    14    13    1
    16    14    15    1
    17    15    18    1
    18    16    17    1
    19    16    15    2
    20    18    32    1
    21    19    14    2
    22    20    21    2
    23    20    19    1
    24    21    26    1
    25    22    21    1
    26    23    22    1
    27    24    23    1
    28    24    25    1
    29    26    27    1
    30    26    13    2
    31    28    45    1
    32    30    42    1
    33    30    44    1
    34    31    34    2
    35    31    40    1
    36    32    41    1
    37    32    29    1
    38    33    38    1
    39    34    35    1
    40    35    29    1
    41    35    33    2
    42    36    30    1
    43    37    36    1
    44    40    39    1
    45    40    43    1
    46    43    38    2
    47    44    45    1
    48    45    41    1
