@<TRIPOS>MOLECULE
outputs/IAG933/test6/raw/output_9289_IAG933_linker_design_.xyz
 42 46 0 0 0
SMALL
GASTEIGER

@<TRIPOS>ATOM
      1 C         -24.8550   -1.0120   30.1430 C.3     1  UNL1        0.1110
      2 C         -24.9730   -2.5050   29.7880 C.2     1  UNL1       -0.0030
      3 C         -23.9060   -3.1730   29.1460 C.2     1  UNL1       -0.0026
      4 C         -23.9890   -4.5490   28.8530 C.2     1  UNL1       -0.0003
      5 C         -25.1370   -5.2800   29.2050 C.2     1  UNL1       -0.0000
      6 C         -26.2320   -4.6110   29.7840 C.2     1  UNL1       -0.0003
      7 C         -26.1550   -3.2320   30.0650 C.2     1  UNL1       -0.0026
      8 C         -25.3870   -0.6790   31.5710 C.3     1  UNL1        0.0950
      9 C         -25.1890    0.7730   32.0280 C.3     1  UNL1        0.0209
     10 C         -25.3360    0.6840   33.5440 C.3     1  UNL1        0.0203
     11 C         -24.8290   -0.7150   33.9050 C.3     1  UNL1        0.0888
     12 N         -24.7580   -1.4810   32.6460 N.3     1  UNL1       -0.2174
     13 C         -25.6880    1.6140   26.4610 C.2     1  UNL1        0.0172
     14 C         -26.2500    2.9200   26.3950 C.2     1  UNL1        0.0726
     15 C         -25.6420    4.0930   27.1230 C.2     1  UNL1        0.2661
     16 N         -25.6140    5.2520   26.4490 N.am    1  UNL1       -0.1997
     17 C         -25.0260    6.4790   26.9630 C.3     1  UNL1        0.1388
     18 O         -25.1430    3.9660   28.2430 O.2     1  UNL1       -0.2683
     19 C         -27.4380    3.0910   25.6450 C.2     1  UNL1        0.1064
     20 N         -28.0750    2.0890   25.0030 N.2     1  UNL1       -0.2081
     21 C         -27.5430    0.8490   25.0790 C.2     1  UNL1        0.2530
     22 O         -28.1930   -0.2080   24.4770 O.2     1  UNL1       -0.4558
     23 C         -29.4600    0.0050   23.8660 C.3     1  UNL1        0.2426
     24 C         -30.0650   -1.3770   23.5730 C.3     1  UNL1        0.2292
     25 O         -30.7290   -1.8780   24.7210 O.3     1  UNL1       -0.2162
     26 C         -26.3540    0.5760   25.7770 C.2     1  UNL1        0.1892
     27 F         -25.8600   -0.6810   25.7950 F       1  UNL1       -0.1996
     28 N         -25.3142   -0.1007   29.1122 N.pl3   1  UNL1       -0.3089
     29 C         -23.0389    0.0732   28.6461 C.3     1  UNL1        0.0201
     30 C         -24.3952    0.4079   28.3534 C.3     1  UNL1        0.0768
     31 C         -27.5797   -0.5194   28.3327 C.2     1  UNL1       -0.0161
     32 C         -23.1967    1.3283   26.7358 C.3     1  UNL1        0.0058
     33 C         -26.9423    1.6330   29.4734 C.3     1  UNL1        0.0407
     34 C         -22.3755    1.3096   28.0105 C.3     1  UNL1        0.0020
     35 C         -28.0238    2.4994   29.1461 C.3     1  UNL1        0.0060
     36 C         -23.0434    2.0937   25.4185 C.3     1  UNL1        0.0004
     37 C         -20.9390    1.5153   27.6305 C.3     1  UNL1        0.0001
     38 C         -29.5578    1.2958   27.6479 C.3     1  UNL1        0.0047
     39 C         -29.3970    1.8535   29.0431 C.3     1  UNL1        0.0007
     40 C         -26.6437    0.3365   28.9951 C.2     1  UNL1        0.0207
     41 C         -28.9278   -0.1103   27.7503 C.3     1  UNL1        0.0270
     42 C         -24.5973    1.3227   27.2131 C.3     1  UNL1        0.0430
@<TRIPOS>BOND
     1     1    28    1
     2     2     7    1
     3     2     1    1
     4     3     2    2
     5     4     3    1
     6     4     5    2
     7     5     6    1
     8     6     7    2
     9     8     1    1
    10     8     9    1
    11     8    12    1
    12     9    10    1
    13    10    11    1
    14    12    11    1
    15    14    13    1
    16    14    15    1
    17    15    18    2
    18    16    17    1
    19    16    15    1
    20    19    14    2
    21    20    21    2
    22    20    19    1
    23    21    26    1
    24    22    21    1
    25    23    22    1
    26    24    23    1
    27    24    25    1
    28    26    27    1
    29    26    13    2
    30    30    29    1
    31    30    28    1
    32    31    40    2
    33    32    36    1
    34    32    42    1
    35    32    34    1
    36    34    37    1
    37    34    29    1
    38    35    33    1
    39    38    41    1
    40    38    39    1
    41    39    35    1
    42    40    28    1
    43    40    33    1
    44    41    31    1
    45    42    13    1
    46    42    30    1
