@<TRIPOS>MOLECULE
outputs/IAG933/test6/raw/output_9290_IAG933_linker_design_.xyz
 41 46 0 0 0
SMALL
GASTEIGER

@<TRIPOS>ATOM
      1 C         -24.8550   -1.0120   30.1430 C.3     1  UNL1        0.1254
      2 C         -24.9730   -2.5050   29.7880 C.2     1  UNL1       -0.0041
      3 C         -23.9060   -3.1730   29.1460 C.2     1  UNL1       -0.0029
      4 C         -23.9890   -4.5490   28.8530 C.2     1  UNL1       -0.0003
      5 C         -25.1370   -5.2800   29.2050 C.2     1  UNL1       -0.0000
      6 C         -26.2320   -4.6110   29.7840 C.2     1  UNL1       -0.0003
      7 C         -26.1550   -3.2320   30.0650 C.2     1  UNL1       -0.0029
      8 C         -25.3870   -0.6790   31.5710 C.3     1  UNL1        0.0963
      9 C         -25.1890    0.7730   32.0280 C.3     1  UNL1        0.0488
     10 C         -25.3360    0.6840   33.5440 C.3     1  UNL1        0.0228
     11 C         -24.8290   -0.7150   33.9050 C.3     1  UNL1        0.0888
     12 N         -24.7580   -1.4810   32.6460 N.3     1  UNL1       -0.2176
     13 C         -25.6880    1.6140   26.4610 C.2     1  UNL1        0.0403
     14 C         -26.2500    2.9200   26.3950 C.2     1  UNL1        0.0764
     15 C         -25.6420    4.0930   27.1230 C.2     1  UNL1        0.2664
     16 N         -25.6140    5.2520   26.4490 N.am    1  UNL1       -0.1997
     17 C         -25.0260    6.4790   26.9630 C.3     1  UNL1        0.1388
     18 O         -25.1430    3.9660   28.2430 O.2     1  UNL1       -0.2683
     19 C         -27.4380    3.0910   25.6450 C.2     1  UNL1        0.1067
     20 N         -28.0750    2.0890   25.0030 N.2     1  UNL1       -0.2081
     21 C         -27.5430    0.8490   25.0790 C.2     1  UNL1        0.2533
     22 O         -28.1930   -0.2080   24.4770 O.2     1  UNL1       -0.4558
     23 C         -29.4600    0.0050   23.8660 C.3     1  UNL1        0.2426
     24 C         -30.0650   -1.3770   23.5730 C.3     1  UNL1        0.2292
     25 O         -30.7290   -1.8780   24.7210 O.3     1  UNL1       -0.2162
     26 C         -26.3540    0.5760   25.7770 C.2     1  UNL1        0.1929
     27 F         -25.8600   -0.6810   25.7950 F       1  UNL1       -0.1992
     28 C         -24.7367    1.9510   31.3988 C.3     1  UNL1        0.1435
     29 C         -23.3960    1.7650   26.6348 C.2     1  UNL1        0.1669
     30 C         -22.7985    0.4578   28.2700 C.2     1  UNL1        0.0319
     31 N         -24.5953    0.0640   29.2385 N.3     1  UNL1       -0.1287
     32 O         -24.8020   -0.5848   28.0300 O.3     1  UNL1       -0.2587
     33 C         -22.0722   -0.2332   29.3360 C.3     1  UNL1        0.0330
     34 C         -24.7822    4.1406   32.3186 C.3     1  UNL1        0.0346
     35 O         -23.6819    2.1735   30.9159 O.3     1  UNL1       -0.3537
     36 C         -22.3890    1.3888   27.3990 C.2     1  UNL1        0.1632
     37 C         -24.5534    3.2689   31.0712 C.3     1  UNL1        0.1423
     38 C         -24.2339    0.5121   28.0819 C.3     1  UNL1        0.2205
     39 F         -21.1026    1.9185   27.4788 F       1  UNL1       -0.2023
     40 C         -24.5225    1.2882   27.0251 C.2     1  UNL1        0.0560
     41 F         -23.2485    2.5847   25.5652 F       1  UNL1       -0.2020
@<TRIPOS>BOND
     1     1     2    1
     2     2     7    1
     3     3     2    2
     4     4     3    1
     5     4     5    2
     6     5     6    1
     7     6     7    2
     8     8     1    1
     9     8     9    1
    10     8    12    1
    11     9    10    1
    12    10    11    1
    13    12    11    1
    14    13    40    1
    15    14    13    1
    16    14    15    1
    17    15    18    2
    18    16    17    1
    19    16    15    1
    20    19    14    2
    21    20    21    2
    22    20    19    1
    23    21    26    1
    24    22    21    1
    25    23    22    1
    26    24    23    1
    27    24    25    1
    28    26    27    1
    29    26    13    2
    30    28    35    1
    31    28     9    1
    32    29    40    2
    33    29    36    1
    34    30    33    1
    35    31     1    1
    36    32    38    1
    37    32    31    1
    38    35    37    1
    39    36    39    1
    40    36    30    2
    41    37    28    1
    42    37    34    1
    43    38    40    1
    44    38    30    1
    45    38    31    1
    46    41    29    1
