@<TRIPOS>MOLECULE
outputs/IAG933/test6/raw/output_9291_IAG933_linker_design_.xyz
 43 46 0 0 0
SMALL
GASTEIGER

@<TRIPOS>ATOM
      1 C         -24.8550   -1.0120   30.1430 C.3     1  UNL1        0.1148
      2 C         -24.9730   -2.5050   29.7880 C.2     1  UNL1       -0.0125
      3 C         -23.9060   -3.1730   29.1460 C.2     1  UNL1       -0.0038
      4 C         -23.9890   -4.5490   28.8530 C.2     1  UNL1       -0.0003
      5 C         -25.1370   -5.2800   29.2050 C.2     1  UNL1       -0.0000
      6 C         -26.2320   -4.6110   29.7840 C.2     1  UNL1       -0.0003
      7 C         -26.1550   -3.2320   30.0650 C.2     1  UNL1       -0.0038
      8 C         -25.3870   -0.6790   31.5710 C.3     1  UNL1        0.0855
      9 C         -25.1890    0.7730   32.0280 C.3     1  UNL1        0.0197
     10 C         -25.3360    0.6840   33.5440 C.3     1  UNL1        0.0203
     11 C         -24.8290   -0.7150   33.9050 C.3     1  UNL1        0.0887
     12 N         -24.7580   -1.4810   32.6460 N.3     1  UNL1       -0.2186
     13 C         -25.6880    1.6140   26.4610 C.2     1  UNL1        0.0407
     14 C         -26.2500    2.9200   26.3950 C.2     1  UNL1        0.0744
     15 C         -25.6420    4.0930   27.1230 C.2     1  UNL1        0.2232
     16 N         -25.6140    5.2520   26.4490 N.2     1  UNL1       -0.2356
     17 C         -25.0260    6.4790   26.9630 C.3     1  UNL1        0.1550
     18 O         -25.1430    3.9660   28.2430 O.2     1  UNL1       -0.4448
     19 C         -27.4380    3.0910   25.6450 C.2     1  UNL1        0.1068
     20 N         -28.0750    2.0890   25.0030 N.2     1  UNL1       -0.2081
     21 C         -27.5430    0.8490   25.0790 C.2     1  UNL1        0.2533
     22 O         -28.1930   -0.2080   24.4770 O.2     1  UNL1       -0.4558
     23 C         -29.4600    0.0050   23.8660 C.3     1  UNL1        0.2426
     24 C         -30.0650   -1.3770   23.5730 C.3     1  UNL1        0.2292
     25 O         -30.7290   -1.8780   24.7210 O.3     1  UNL1       -0.2162
     26 C         -26.3540    0.5760   25.7770 C.2     1  UNL1        0.1931
     27 F         -25.8600   -0.6810   25.7950 F       1  UNL1       -0.1992
     28 C         -27.2786    3.8507   32.7485 C.3     1  UNL1        0.0677
     29 N         -26.9008    5.7623   34.0175 N.3     1  UNL1       -0.2138
     30 C         -27.4918    4.4732   34.0784 C.3     1  UNL1        0.0929
     31 C         -24.4919    0.0766   28.9976 C.2     1  UNL1        0.2308
     32 C         -24.6349    2.5693   29.9807 C.3     1  UNL1        0.1562
     33 C         -26.9105    4.9322   31.7958 C.3     1  UNL1        0.2061
     34 C         -26.1854    5.8373   32.7782 C.3     1  UNL1        0.1359
     35 N         -26.3168    4.5559   30.4683 N.3     1  UNL1       -0.1508
     36 O         -24.4630   -0.3794   27.8626 O.2     1  UNL1       -0.2745
     37 C         -22.2392    1.9239   26.3762 C.3     1  UNL1        0.0018
     38 O         -27.8754    5.7771   31.3801 O.3     1  UNL1       -0.2061
     39 C         -25.2929    3.8683   29.6283 C.3     1  UNL1        0.2647
     40 C         -22.5867    1.6371   29.0767 C.3     1  UNL1        0.0935
     41 N         -24.0653    1.5829   29.0432 N.am    1  UNL1       -0.2742
     42 C         -20.4077    1.8424   27.9560 C.3     1  UNL1        0.0018
     43 C         -21.8522    1.3257   27.7827 C.3     1  UNL1        0.0199
@<TRIPOS>BOND
     1     1    31    1
     2     2     7    1
     3     2     1    1
     4     3     2    2
     5     4     3    1
     6     4     5    2
     7     5     6    1
     8     6     7    2
     9     8     1    1
    10     8     9    1
    11     8    12    1
    12     9    10    1
    13    10    11    1
    14    12    11    1
    15    14    13    1
    16    14    15    1
    17    15    18    1
    18    16    17    1
    19    16    15    2
    20    18    39    1
    21    19    14    2
    22    20    21    2
    23    20    19    1
    24    21    26    1
    25    22    21    1
    26    23    22    1
    27    24    23    1
    28    24    25    1
    29    26    27    1
    30    26    13    2
    31    28    30    1
    32    29    30    1
    33    31    41   am
    34    33    38    1
    35    33    28    1
    36    33    34    1
    37    34    29    1
    38    35    33    1
    39    36    31    2
    40    37    43    1
    41    39    32    1
    42    39    35    1
    43    41    40    1
    44    41    32    1
    45    43    42    1
    46    43    40    1
