@<TRIPOS>MOLECULE
outputs/IAG933/test6/raw/output_9295_IAG933_linker_design_.xyz
 40 43 0 0 0
SMALL
GASTEIGER

@<TRIPOS>ATOM
      1 C         -24.8550   -1.0120   30.1430 C.3     1  UNL1        0.1156
      2 C         -24.9730   -2.5050   29.7880 C.2     1  UNL1       -0.0029
      3 C         -23.9060   -3.1730   29.1460 C.2     1  UNL1       -0.0026
      4 C         -23.9890   -4.5490   28.8530 C.2     1  UNL1       -0.0003
      5 C         -25.1370   -5.2800   29.2050 C.2     1  UNL1       -0.0000
      6 C         -26.2320   -4.6110   29.7840 C.2     1  UNL1       -0.0003
      7 C         -26.1550   -3.2320   30.0650 C.2     1  UNL1       -0.0026
      8 C         -25.3870   -0.6790   31.5710 C.3     1  UNL1        0.0952
      9 C         -25.1890    0.7730   32.0280 C.3     1  UNL1        0.0209
     10 C         -25.3360    0.6840   33.5440 C.3     1  UNL1        0.0203
     11 C         -24.8290   -0.7150   33.9050 C.3     1  UNL1        0.0888
     12 N         -24.7580   -1.4810   32.6460 N.3     1  UNL1       -0.2174
     13 C         -25.6880    1.6140   26.4610 C.2     1  UNL1        0.0913
     14 C         -26.2500    2.9200   26.3950 C.2     1  UNL1        0.0902
     15 C         -25.6420    4.0930   27.1230 C.2     1  UNL1        0.2676
     16 N         -25.6140    5.2520   26.4490 N.am    1  UNL1       -0.1997
     17 C         -25.0260    6.4790   26.9630 C.3     1  UNL1        0.1388
     18 O         -25.1430    3.9660   28.2430 O.2     1  UNL1       -0.2683
     19 C         -27.4380    3.0910   25.6450 C.2     1  UNL1        0.1080
     20 N         -28.0750    2.0890   25.0030 N.2     1  UNL1       -0.2080
     21 C         -27.5430    0.8490   25.0790 C.2     1  UNL1        0.2546
     22 O         -28.1930   -0.2080   24.4770 O.2     1  UNL1       -0.4558
     23 C         -29.4600    0.0050   23.8660 C.3     1  UNL1        0.2426
     24 C         -30.0650   -1.3770   23.5730 C.3     1  UNL1        0.2292
     25 O         -30.7290   -1.8780   24.7210 O.3     1  UNL1       -0.2162
     26 C         -26.3540    0.5760   25.7770 C.2     1  UNL1        0.2066
     27 F         -25.8600   -0.6810   25.7950 F       1  UNL1       -0.1979
     28 F         -20.5828    2.2079   26.9691 F       1  UNL1       -0.2273
     29 C         -22.3862    1.1385   28.1452 C.2     1  UNL1        0.0846
     30 C         -22.8699    0.4087   29.4328 C.2     1  UNL1        0.2507
     31 N         -24.6318    1.2568   27.3330 N.pl3   1  UNL1       -0.2644
     32 O         -22.7107    3.0853   25.6479 O.2     1  UNL1       -0.2818
     33 C         -24.9678    0.6048   28.4549 C.3     1  UNL1        0.1954
     34 C         -20.8151   -0.6676   28.9193 C.2     1  UNL1       -0.0018
     35 O         -22.2600    0.2016   30.5544 O.2     1  UNL1       -0.2701
     36 C         -20.2625    0.0818   28.2927 C.2     1  UNL1        0.0132
     37 C         -21.0582    1.2439   27.7674 C.3     1  UNL1        0.2110
     38 C         -23.4063    2.1120   26.0324 C.2     1  UNL1        0.2489
     39 N         -24.2078    0.0525   29.3609 N.am    1  UNL1       -0.2550
     40 C         -23.4390    1.5028   27.1813 C.2     1  UNL1        0.0989
@<TRIPOS>BOND
     1     1     2    1
     2     2     7    1
     3     3     2    2
     4     4     3    1
     5     4     5    2
     6     5     6    1
     7     6     7    2
     8     8     1    1
     9     8     9    1
    10     8    12    1
    11     9    10    1
    12    10    11    1
    13    12    11    1
    14    13    31    1
    15    14    13    1
    16    14    15    1
    17    15    18    2
    18    16    17    1
    19    16    15    1
    20    19    14    2
    21    20    21    2
    22    20    19    1
    23    21    26    1
    24    22    21    1
    25    23    22    1
    26    24    23    1
    27    24    25    1
    28    26    27    1
    29    26    13    2
    30    29    30    1
    31    30    35    2
    32    31    33    1
    33    32    38    2
    34    33    39    1
    35    36    34    2
    36    37    28    1
    37    37    29    1
    38    37    36    1
    39    38    40    1
    40    39    30   am
    41    39     1    1
    42    40    31    1
    43    40    29    2
