@<TRIPOS>MOLECULE
No_93-gen_results/8p0m/2024-11-27-11-27-31/
 30 33 0 0 0
SMALL
GASTEIGER

@<TRIPOS>ATOM
      1 C         -28.0162   -0.8135   28.8779 C.ar    1  UNL1        0.0178
      2 C         -28.4690   -0.7850   29.8287 C.ar    1  UNL1        0.0769
      3 C         -26.5042   -0.7777   28.8766 C.ar    1  UNL1        0.0579
      4 C         -25.8103   -0.8531   30.1028 C.ar    1  UNL1        0.0114
      5 C         -27.9906   -0.8916   31.2257 C.ar    1  UNL1        0.0065
      6 C         -26.6042   -0.8676   31.2652 C.ar    1  UNL1        0.0011
      7 C         -30.0773   -0.8857   30.0240 C.2     1  UNL1        0.3457
      8 O         -30.6821   -0.3163   29.2532 O.3     1  UNL1       -0.4209
      9 O         -30.6119   -1.2922   31.1199 O.2     1  UNL1       -0.2445
     10 CL        -25.3950   -0.7468   27.5444 Cl      1  UNL1       -0.0822
     11 C         -31.8833   -0.0376   29.1219 C.ar    1  UNL1        0.1519
     12 C         -32.3069    0.1975   27.9745 C.ar    1  UNL1        0.0387
     13 C         -33.7302    0.5166   27.7205 C.ar    1  UNL1        0.0176
     14 C         -34.5784    0.5701   28.8571 C.ar    1  UNL1        0.0923
     15 C         -34.0180    0.3182   30.0836 C.ar    1  UNL1        0.1588
     16 C         -32.6936    0.0397   30.2633 C.ar    1  UNL1        0.0759
     17 CL        -36.1855    0.9568   28.5915 Cl      1  UNL1       -0.0791
     18 O         -34.8610    0.4265   31.1758 O.3     1  UNL1       -0.4525
     19 C         -35.1393    1.5829   31.7402 C.ar    1  UNL1        0.1453
     20 C         -36.3988    1.7555   32.1459 C.ar    1  UNL1        0.0375
     21 C         -36.7664    3.0249   32.7708 C.ar    1  UNL1        0.0031
     22 C         -34.2006    2.6123   31.9542 C.ar    1  UNL1        0.0375
     23 C         -34.5027    3.8042   32.5459 C.ar    1  UNL1        0.0031
     24 C         -35.7811    4.0109   32.9801 C.ar    1  UNL1        0.0002
     25 C         -36.1514    5.2828   33.6281 C.ar    1  UNL1        0.0000
     26 C         -35.2839    5.7758   34.4043 C.ar    1  UNL1        0.0000
     27 C         -35.5805    7.0043   35.1779 C.ar    1  UNL1        0.0000
     28 C         -36.8654    7.5651   34.9795 C.ar    1  UNL1        0.0000
     29 C         -37.7350    6.9528   34.1126 C.ar    1  UNL1        0.0000
     30 C         -37.4067    5.7722   33.4221 C.ar    1  UNL1        0.0000
@<TRIPOS>BOND
     1     2     7    1
     2     7     8    1
     3     7     9    2
     4     3    10    1
     5     8    11    1
     6    14    17    1
     7    15    18    1
     8    18    19    1
     9    24    25    1
    10    11    12   ar
    11    12    13   ar
    12    13    14   ar
    13    14    15   ar
    14    15    16   ar
    15    16    11   ar
    16    19    20   ar
    17    20    21   ar
    18    21    24   ar
    19    24    23   ar
    20    23    22   ar
    21    22    19   ar
    22     1     2   ar
    23     2     5   ar
    24     5     6   ar
    25     6     4   ar
    26     4     3   ar
    27     3     1   ar
    28    25    26   ar
    29    26    27   ar
    30    27    28   ar
    31    28    29   ar
    32    29    30   ar
    33    30    25   ar
