@<TRIPOS>MOLECULE
outputs/IAG933/test6/raw/output_930_IAG933_linker_design_.xyz
 47 51 0 0 0
SMALL
GASTEIGER

@<TRIPOS>ATOM
      1 C         -24.8550   -1.0120   30.1430 C.3     1  UNL1        0.0747
      2 C         -24.9730   -2.5050   29.7880 C.2     1  UNL1       -0.0179
      3 C         -23.9060   -3.1730   29.1460 C.2     1  UNL1       -0.0041
      4 C         -23.9890   -4.5490   28.8530 C.2     1  UNL1       -0.0003
      5 C         -25.1370   -5.2800   29.2050 C.2     1  UNL1       -0.0000
      6 C         -26.2320   -4.6110   29.7840 C.2     1  UNL1       -0.0003
      7 C         -26.1550   -3.2320   30.0650 C.2     1  UNL1       -0.0041
      8 C         -25.3870   -0.6790   31.5710 C.3     1  UNL1        0.0801
      9 C         -25.1890    0.7730   32.0280 C.3     1  UNL1        0.0193
     10 C         -25.3360    0.6840   33.5440 C.3     1  UNL1        0.0202
     11 C         -24.8290   -0.7150   33.9050 C.3     1  UNL1        0.0887
     12 N         -24.7580   -1.4810   32.6460 N.3     1  UNL1       -0.2190
     13 C         -25.6880    1.6140   26.4610 C.2     1  UNL1        0.0913
     14 C         -26.2500    2.9200   26.3950 C.2     1  UNL1        0.0902
     15 C         -25.6420    4.0930   27.1230 C.2     1  UNL1        0.2676
     16 N         -25.6140    5.2520   26.4490 N.am    1  UNL1       -0.1997
     17 C         -25.0260    6.4790   26.9630 C.3     1  UNL1        0.1388
     18 O         -25.1430    3.9660   28.2430 O.2     1  UNL1       -0.2683
     19 C         -27.4380    3.0910   25.6450 C.2     1  UNL1        0.1080
     20 N         -28.0750    2.0890   25.0030 N.2     1  UNL1       -0.2080
     21 C         -27.5430    0.8490   25.0790 C.2     1  UNL1        0.2546
     22 O         -28.1930   -0.2080   24.4770 O.2     1  UNL1       -0.4558
     23 C         -29.4600    0.0050   23.8660 C.3     1  UNL1        0.2426
     24 C         -30.0650   -1.3770   23.5730 C.3     1  UNL1        0.2292
     25 O         -30.7290   -1.8780   24.7210 O.3     1  UNL1       -0.2162
     26 C         -26.3540    0.5760   25.7770 C.2     1  UNL1        0.2066
     27 F         -25.8600   -0.6810   25.7950 F       1  UNL1       -0.1979
     28 C         -22.1736    0.2724   28.5793 C.2     1  UNL1        0.0418
     29 C         -27.8767    2.1898   30.0897 C.3     1  UNL1        0.0318
     30 O         -28.5989   -0.6211   27.9024 O.2     1  UNL1       -0.2946
     31 C         -27.5298    0.8013   29.5269 C.3     1  UNL1        0.1320
     32 C         -30.7716    0.8265   27.3559 C.3     1  UNL1        0.0078
     33 C         -30.1583    2.2993   29.3155 C.3     1  UNL1        0.0143
     34 C         -24.8762    0.0874   28.8945 C.3     1  UNL1        0.1465
     35 C         -23.3959   -0.1527   29.0737 C.2     1  UNL1        0.0119
     36 N         -24.6425    1.1227   27.3881 N.pl3   1  UNL1       -0.2669
     37 N         -29.1575    3.8889   32.2299 N.3     1  UNL1       -0.0687
     38 C         -29.5836    1.4410   28.1679 C.3     1  UNL1        0.0593
     39 C         -30.1151    3.4710   31.4625 C.3     1  UNL1        0.3333
     40 N         -26.4470    0.5292   28.6094 N.3     1  UNL1       -0.1924
     41 O         -21.0248    1.9136   27.3048 O.2     1  UNL1       -0.2852
     42 C         -22.2621    1.2796   27.6809 C.2     1  UNL1        0.2103
     43 O         -30.7417    4.3782   30.8454 O.3     1  UNL1       -0.1699
     44 C         -23.3627    1.6207   27.0432 C.2     1  UNL1        0.1092
     45 C         -29.3499    2.1726   30.6331 C.3     1  UNL1        0.0796
     46 C         -28.4671    0.5040   28.2931 C.2     1  UNL1        0.1659
     47 F         -31.0604    2.6801   31.9995 F       1  UNL1       -0.1861
@<TRIPOS>BOND
     1     1     2    1
     2     2     7    1
     3     3     2    2
     4     4     3    1
     5     4     5    2
     6     5     6    1
     7     6     7    2
     8     8     1    1
     9     8     9    1
    10     8    12    1
    11     9    10    1
    12    10    11    1
    13    12    11    1
    14    13    36    1
    15    14    13    1
    16    14    15    1
    17    15    18    2
    18    16    17    1
    19    16    15    1
    20    19    14    2
    21    20    21    2
    22    20    19    1
    23    21    26    1
    24    22    21    1
    25    23    22    1
    26    24    23    1
    27    24    25    1
    28    26    27    1
    29    26    13    2
    30    28    35    2
    31    29    45    1
    32    30    46    2
    33    31    40    1
    34    31    29    1
    35    33    45    1
    36    34    40    1
    37    34    35    1
    38    34     1    1
    39    36    34    1
    40    38    32    1
    41    38    46    1
    42    38    33    1
    43    39    43    1
    44    39    47    1
    45    39    37    1
    46    41    42    1
    47    42    28    1
    48    44    36    1
    49    44    42    2
    50    45    39    1
    51    46    31    1
