@<TRIPOS>MOLECULE
outputs/IAG933/test6/raw/output_9300_IAG933_linker_design_.xyz
 40 44 0 0 0
SMALL
GASTEIGER

@<TRIPOS>ATOM
      1 C         -24.8550   -1.0120   30.1430 C.3     1  UNL1        0.1174
      2 C         -24.9730   -2.5050   29.7880 C.2     1  UNL1       -0.0028
      3 C         -23.9060   -3.1730   29.1460 C.2     1  UNL1       -0.0026
      4 C         -23.9890   -4.5490   28.8530 C.2     1  UNL1       -0.0003
      5 C         -25.1370   -5.2800   29.2050 C.2     1  UNL1       -0.0000
      6 C         -26.2320   -4.6110   29.7840 C.2     1  UNL1       -0.0003
      7 C         -26.1550   -3.2320   30.0650 C.2     1  UNL1       -0.0026
      8 C         -25.3870   -0.6790   31.5710 C.3     1  UNL1        0.0952
      9 C         -25.1890    0.7730   32.0280 C.3     1  UNL1        0.0209
     10 C         -25.3360    0.6840   33.5440 C.3     1  UNL1        0.0203
     11 C         -24.8290   -0.7150   33.9050 C.3     1  UNL1        0.0888
     12 N         -24.7580   -1.4810   32.6460 N.3     1  UNL1       -0.2174
     13 C         -25.6880    1.6140   26.4610 C.3     1  UNL1        0.1471
     14 C         -26.2500    2.9200   26.3950 C.2     1  UNL1        0.0732
     15 C         -25.6420    4.0930   27.1230 C.2     1  UNL1        0.2640
     16 N         -25.6140    5.2520   26.4490 N.am    1  UNL1       -0.1999
     17 C         -25.0260    6.4790   26.9630 C.3     1  UNL1        0.1388
     18 O         -25.1430    3.9660   28.2430 O.2     1  UNL1       -0.2686
     19 C         -27.4380    3.0910   25.6450 C.2     1  UNL1        0.1038
     20 N         -28.0750    2.0890   25.0030 N.2     1  UNL1       -0.2118
     21 C         -27.5430    0.8490   25.0790 C.2     1  UNL1        0.2358
     22 O         -28.1930   -0.2080   24.4770 O.2     1  UNL1       -0.4585
     23 C         -29.4600    0.0050   23.8660 C.3     1  UNL1        0.2423
     24 C         -30.0650   -1.3770   23.5730 C.3     1  UNL1        0.2292
     25 O         -30.7290   -1.8780   24.7210 O.3     1  UNL1       -0.2162
     26 C         -26.3540    0.5760   25.7770 C.3     1  UNL1        0.2582
     27 F         -25.8600   -0.6810   25.7950 F       1  UNL1       -0.2251
     28 C         -22.1442    0.5909   29.3161 C.3     1  UNL1        0.0775
     29 O         -23.8226    1.9019   30.2710 O.3     1  UNL1       -0.2028
     30 N         -24.6684    0.0203   29.2522 N.am    1  UNL1       -0.2374
     31 N         -25.0097    0.9750   27.4973 N.am    1  UNL1       -0.2532
     32 C         -23.6037    0.9284   29.1276 C.3     1  UNL1        0.2129
     33 C         -25.7038    0.1599   28.3470 C.2     1  UNL1        0.3095
     34 C         -22.8247    1.8323   26.8104 C.3     1  UNL1        0.1592
     35 C         -22.2565    2.4274   24.6139 C.3     1  UNL1        0.1745
     36 O         -26.8396   -0.3496   28.1678 O.2     1  UNL1       -0.2523
     37 C         -21.1816    1.0245   28.2877 C.2     1  UNL1       -0.0239
     38 C         -21.4794    1.6415   27.1126 C.2     1  UNL1        0.0002
     39 C         -23.8240    1.3356   27.6585 C.3     1  UNL1        0.1542
     40 O         -23.1518    2.6089   25.7227 O.3     1  UNL1       -0.3474
@<TRIPOS>BOND
     1     1     2    1
     2     2     7    1
     3     3     2    2
     4     4     3    1
     5     4     5    2
     6     5     6    1
     7     6     7    2
     8     8     1    1
     9     8     9    1
    10     8    12    1
    11     9    10    1
    12    10    11    1
    13    12    11    1
    14    13    31    1
    15    14    13    1
    16    14    15    1
    17    15    18    2
    18    16    17    1
    19    16    15    1
    20    19    14    2
    21    20    21    2
    22    20    19    1
    23    21    26    1
    24    22    21    1
    25    23    22    1
    26    24    23    1
    27    24    25    1
    28    26    27    1
    29    26    13    1
    30    30     1    1
    31    31    33   am
    32    32    30    1
    33    32    28    1
    34    32    29    1
    35    33    30   am
    36    34    40    1
    37    34    38    1
    38    34    39    1
    39    35    40    1
    40    36    33    2
    41    37    28    1
    42    38    37    2
    43    39    31    1
    44    39    32    1
