@<TRIPOS>MOLECULE
outputs/IAG933/test6/raw/output_9303_IAG933_linker_design_.xyz
 44 48 0 0 0
SMALL
GASTEIGER

@<TRIPOS>ATOM
      1 C         -24.8550   -1.0120   30.1430 C.3     1  UNL1        0.0684
      2 C         -24.9730   -2.5050   29.7880 C.2     1  UNL1       -0.0187
      3 C         -23.9060   -3.1730   29.1460 C.2     1  UNL1       -0.0042
      4 C         -23.9890   -4.5490   28.8530 C.2     1  UNL1       -0.0003
      5 C         -25.1370   -5.2800   29.2050 C.2     1  UNL1       -0.0000
      6 C         -26.2320   -4.6110   29.7840 C.2     1  UNL1       -0.0003
      7 C         -26.1550   -3.2320   30.0650 C.2     1  UNL1       -0.0042
      8 C         -25.3870   -0.6790   31.5710 C.3     1  UNL1        0.0793
      9 C         -25.1890    0.7730   32.0280 C.3     1  UNL1        0.0193
     10 C         -25.3360    0.6840   33.5440 C.3     1  UNL1        0.0202
     11 C         -24.8290   -0.7150   33.9050 C.3     1  UNL1        0.0887
     12 N         -24.7580   -1.4810   32.6460 N.3     1  UNL1       -0.2190
     13 C         -25.6880    1.6140   26.4610 C.3     1  UNL1        0.0921
     14 C         -26.2500    2.9200   26.3950 C.2     1  UNL1        0.0589
     15 C         -25.6420    4.0930   27.1230 C.2     1  UNL1        0.2628
     16 N         -25.6140    5.2520   26.4490 N.am    1  UNL1       -0.2000
     17 C         -25.0260    6.4790   26.9630 C.3     1  UNL1        0.1388
     18 O         -25.1430    3.9660   28.2430 O.2     1  UNL1       -0.2686
     19 C         -27.4380    3.0910   25.6450 C.2     1  UNL1        0.1025
     20 N         -28.0750    2.0890   25.0030 N.2     1  UNL1       -0.2118
     21 C         -27.5430    0.8490   25.0790 C.2     1  UNL1        0.2344
     22 O         -28.1930   -0.2080   24.4770 O.2     1  UNL1       -0.4585
     23 C         -29.4600    0.0050   23.8660 C.3     1  UNL1        0.2423
     24 C         -30.0650   -1.3770   23.5730 C.3     1  UNL1        0.2292
     25 O         -30.7290   -1.8780   24.7210 O.3     1  UNL1       -0.2162
     26 C         -26.3540    0.5760   25.7770 C.3     1  UNL1        0.2440
     27 F         -25.8600   -0.6810   25.7950 F       1  UNL1       -0.2265
     28 C         -28.9104    3.5783   28.8558 C.2     1  UNL1        0.0029
     29 C         -27.4883    2.8633   30.6538 C.2     1  UNL1        0.0985
     30 C         -23.3837    0.9131   27.8808 C.2     1  UNL1        0.0066
     31 O         -26.5566   -0.4154   28.5461 O.3     1  UNL1       -0.3465
     32 C         -21.3067    1.7104   26.9554 C.2     1  UNL1       -0.0003
     33 C         -21.9702    2.1522   25.8080 C.2     1  UNL1       -0.0003
     34 C         -22.0490    1.1252   27.9877 C.2     1  UNL1       -0.0021
     35 C         -29.0647    2.2519   28.4911 C.2     1  UNL1        0.0173
     36 C         -24.1651    1.5114   26.7579 C.2     1  UNL1       -0.0166
     37 C         -23.3671    2.0490   25.7269 C.2     1  UNL1       -0.0041
     38 C         -28.3046    1.2313   29.1373 C.2     1  UNL1        0.0888
     39 C         -25.1987   -0.0369   29.0749 C.3     1  UNL1        0.1554
     40 O         -22.7257   -0.3062   29.7172 O.3     1  UNL1       -0.2157
     41 C         -27.9881   -0.1465   28.5715 C.3     1  UNL1        0.1875
     42 N         -27.6792    1.5782   30.2978 N.2     1  UNL1       -0.2457
     43 C         -28.0380    3.8848   29.8912 C.2     1  UNL1        0.0207
     44 C         -23.6791    0.1413   28.8841 C.3     1  UNL1        0.2012
@<TRIPOS>BOND
     1     1    39    1
     2     2     7    1
     3     2     1    1
     4     3     2    2
     5     4     3    1
     6     4     5    2
     7     5     6    1
     8     6     7    2
     9     8     1    1
    10     8     9    1
    11     8    12    1
    12     9    10    1
    13    10    11    1
    14    12    11    1
    15    13    36    1
    16    14    13    1
    17    14    15    1
    18    15    18    2
    19    16    17    1
    20    16    15    1
    21    19    14    2
    22    20    21    2
    23    20    19    1
    24    21    26    1
    25    22    21    1
    26    23    22    1
    27    24    23    1
    28    24    25    1
    29    26    27    1
    30    26    13    1
    31    28    43    1
    32    30    34    1
    33    30    44    1
    34    31    41    1
    35    32    34    2
    36    33    32    1
    37    35    28    2
    38    35    38    1
    39    36    30    2
    40    37    33    2
    41    37    36    1
    42    38    42    2
    43    39    31    1
    44    41    38    1
    45    42    29    1
    46    43    29    2
    47    44    39    1
    48    44    40    1
