@<TRIPOS>MOLECULE
outputs/IAG933/test6/raw/output_9304_IAG933_linker_design_.xyz
 46 51 0 0 0
SMALL
GASTEIGER

@<TRIPOS>ATOM
      1 C         -24.8550   -1.0120   30.1430 C.3     1  UNL1        0.1239
      2 C         -24.9730   -2.5050   29.7880 C.2     1  UNL1       -0.0004
      3 C         -23.9060   -3.1730   29.1460 C.2     1  UNL1       -0.0024
      4 C         -23.9890   -4.5490   28.8530 C.2     1  UNL1       -0.0003
      5 C         -25.1370   -5.2800   29.2050 C.2     1  UNL1       -0.0000
      6 C         -26.2320   -4.6110   29.7840 C.2     1  UNL1       -0.0003
      7 C         -26.1550   -3.2320   30.0650 C.2     1  UNL1       -0.0024
      8 C         -25.3870   -0.6790   31.5710 C.3     1  UNL1        0.0976
      9 C         -25.1890    0.7730   32.0280 C.3     1  UNL1        0.0211
     10 C         -25.3360    0.6840   33.5440 C.3     1  UNL1        0.0203
     11 C         -24.8290   -0.7150   33.9050 C.3     1  UNL1        0.0888
     12 N         -24.7580   -1.4810   32.6460 N.3     1  UNL1       -0.2172
     13 C         -25.6880    1.6140   26.4610 C.3     1  UNL1        0.0939
     14 C         -26.2500    2.9200   26.3950 C.2     1  UNL1        0.0589
     15 C         -25.6420    4.0930   27.1230 C.2     1  UNL1        0.2628
     16 N         -25.6140    5.2520   26.4490 N.am    1  UNL1       -0.2000
     17 C         -25.0260    6.4790   26.9630 C.3     1  UNL1        0.1388
     18 O         -25.1430    3.9660   28.2430 O.2     1  UNL1       -0.2686
     19 C         -27.4380    3.0910   25.6450 C.2     1  UNL1        0.1025
     20 N         -28.0750    2.0890   25.0030 N.2     1  UNL1       -0.2118
     21 C         -27.5430    0.8490   25.0790 C.2     1  UNL1        0.2344
     22 O         -28.1930   -0.2080   24.4770 O.2     1  UNL1       -0.4585
     23 C         -29.4600    0.0050   23.8660 C.3     1  UNL1        0.2423
     24 C         -30.0650   -1.3770   23.5730 C.3     1  UNL1        0.2292
     25 O         -30.7290   -1.8780   24.7210 O.3     1  UNL1       -0.2162
     26 C         -26.3540    0.5760   25.7770 C.3     1  UNL1        0.2440
     27 F         -25.8600   -0.6810   25.7950 F       1  UNL1       -0.2265
     28 C         -21.1838    0.6524   28.5200 C.2     1  UNL1        0.0038
     29 C         -30.0048    3.7173   28.9987 C.3     1  UNL1        0.1050
     30 C         -29.0783    6.2685   29.6853 C.3     1  UNL1        0.1595
     31 C         -21.3339    1.4795   27.3876 C.2     1  UNL1        0.0297
     32 C         -22.6339    1.6893   26.8936 C.2     1  UNL1        0.1412
     33 O         -28.4591    5.6050   28.5953 O.3     1  UNL1       -0.3508
     34 C         -29.0919    4.4909   28.0197 C.3     1  UNL1        0.1595
     35 N         -29.3021    3.6839   30.3292 N.3     1  UNL1       -0.2618
     36 C         -27.9246    2.8198   30.2022 C.3     1  UNL1        0.1440
     37 C         -29.2040    5.1583   30.8149 C.3     1  UNL1        0.1050
     38 F         -22.7915    2.3199   25.6780 F       1  UNL1       -0.2041
     39 C         -23.7465    0.4237   28.6932 C.ar    1  UNL1        0.0621
     40 C         -22.3859    0.0420   29.1011 C.2     1  UNL1        0.0173
     41 C         -25.0588    1.2695   27.5561 C.ar    1  UNL1        0.0072
     42 O         -28.1503    0.3960   29.3235 O.2     1  UNL1       -0.2883
     43 C         -23.7938    1.1865   27.6060 C.ar    1  UNL1        0.0412
     44 C         -25.9159    1.1833   28.8162 C.ar    1  UNL1        0.0931
     45 N         -25.1451    0.0696   29.2019 N.ar    1  UNL1       -0.3217
     46 C         -27.3796    1.3430   29.4647 C.2     1  UNL1        0.2045
@<TRIPOS>BOND
     1     1     2    1
     2     2     7    1
     3     3     2    2
     4     4     3    1
     5     4     5    2
     6     5     6    1
     7     6     7    2
     8     8     1    1
     9     8     9    1
    10     8    12    1
    11     9    10    1
    12    10    11    1
    13    12    11    1
    14    13    41    1
    15    14    13    1
    16    14    15    1
    17    15    18    2
    18    16    17    1
    19    16    15    1
    20    19    14    2
    21    20    21    2
    22    20    19    1
    23    21    26    1
    24    22    21    1
    25    23    22    1
    26    24    23    1
    27    24    25    1
    28    26    27    1
    29    26    13    1
    30    28    40    1
    31    29    35    1
    32    30    37    1
    33    31    28    2
    34    32    31    1
    35    32    43    2
    36    33    30    1
    37    34    33    1
    38    34    29    1
    39    35    37    1
    40    36    35    1
    41    38    32    1
    42    39    40    2
    43    39    45   ar
    44    41    43   ar
    45    41    44   ar
    46    42    46    2
    47    43    39   ar
    48    44    45   ar
    49    44    46    1
    50    45     1    1
    51    46    36    1
