@<TRIPOS>MOLECULE
outputs/IAG933/test6/raw/output_9309_IAG933_linker_design_.xyz
 46 49 0 0 0
SMALL
GASTEIGER

@<TRIPOS>ATOM
      1 C         -24.8550   -1.0120   30.1430 C.3     1  UNL1        0.0401
      2 C         -24.9730   -2.5050   29.7880 C.2     1  UNL1       -0.0211
      3 C         -23.9060   -3.1730   29.1460 C.2     1  UNL1       -0.0042
      4 C         -23.9890   -4.5490   28.8530 C.2     1  UNL1       -0.0003
      5 C         -25.1370   -5.2800   29.2050 C.2     1  UNL1       -0.0000
      6 C         -26.2320   -4.6110   29.7840 C.2     1  UNL1       -0.0003
      7 C         -26.1550   -3.2320   30.0650 C.2     1  UNL1       -0.0042
      8 C         -25.3870   -0.6790   31.5710 C.3     1  UNL1        0.0769
      9 C         -25.1890    0.7730   32.0280 C.3     1  UNL1        0.0192
     10 C         -25.3360    0.6840   33.5440 C.3     1  UNL1        0.0202
     11 C         -24.8290   -0.7150   33.9050 C.3     1  UNL1        0.0887
     12 N         -24.7580   -1.4810   32.6460 N.3     1  UNL1       -0.2191
     13 C         -25.6880    1.6140   26.4610 C.3     1  UNL1        0.0702
     14 C         -26.2500    2.9200   26.3950 C.2     1  UNL1        0.0548
     15 C         -25.6420    4.0930   27.1230 C.2     1  UNL1        0.2624
     16 N         -25.6140    5.2520   26.4490 N.am    1  UNL1       -0.2000
     17 C         -25.0260    6.4790   26.9630 C.3     1  UNL1        0.1388
     18 O         -25.1430    3.9660   28.2430 O.2     1  UNL1       -0.2687
     19 C         -27.4380    3.0910   25.6450 C.2     1  UNL1        0.1021
     20 N         -28.0750    2.0890   25.0030 N.2     1  UNL1       -0.2119
     21 C         -27.5430    0.8490   25.0790 C.2     1  UNL1        0.2341
     22 O         -28.1930   -0.2080   24.4770 O.2     1  UNL1       -0.4585
     23 C         -29.4600    0.0050   23.8660 C.3     1  UNL1        0.2423
     24 C         -30.0650   -1.3770   23.5730 C.3     1  UNL1        0.2292
     25 O         -30.7290   -1.8780   24.7210 O.3     1  UNL1       -0.2162
     26 C         -26.3540    0.5760   25.7770 C.3     1  UNL1        0.2400
     27 F         -25.8600   -0.6810   25.7950 F       1  UNL1       -0.2269
     28 C         -25.1522    0.0026   28.9691 C.3     1  UNL1        0.0277
     29 O         -22.3748   -0.3482   29.5178 O.3     1  UNL1       -0.2232
     30 O         -31.4925    1.2926   32.1479 O.3     1  UNL1       -0.1543
     31 C         -21.9903    1.7738   27.9596 C.3     1  UNL1        0.0329
     32 C         -22.6470    0.4271   28.3461 C.3     1  UNL1        0.1520
     33 C         -30.1458    1.3267   28.4484 C.3     1  UNL1        0.0863
     34 C         -29.4738    1.6528   30.6972 C.3     1  UNL1        0.0931
     35 C         -29.0138    0.4926   28.5085 C.2     1  UNL1        0.2257
     36 C         -30.3928    1.9253   29.6974 C.3     1  UNL1        0.0241
     37 N         -27.8894    0.7780   29.1150 N.am    1  UNL1       -0.2786
     38 N         -29.3639    1.4847   33.4399 N.3     1  UNL1       -0.0532
     39 C         -21.5424    1.6732   26.5068 C.3     1  UNL1        0.0027
     40 S         -30.1821    0.9674   32.1839 S.3     1  UNL1        0.0105
     41 O         -29.1212   -0.8905   28.1999 O.2     1  UNL1       -0.2749
     42 C         -26.6141    0.1040   28.5500 C.3     1  UNL1        0.0938
     43 C         -29.9120   -0.6598   32.0871 C.3     1  UNL1        0.0984
     44 C         -28.0837    1.4068   30.2909 C.3     1  UNL1        0.1061
     45 C         -24.2019    0.8065   28.3168 C.3     1  UNL1        0.0329
     46 C         -24.3065    1.3743   26.8601 C.3     1  UNL1        0.0104
@<TRIPOS>BOND
     1     1    28    1
     2     2     7    1
     3     2     1    1
     4     3     2    2
     5     4     3    1
     6     4     5    2
     7     5     6    1
     8     6     7    2
     9     8     1    1
    10     8     9    1
    11     8    12    1
    12     9    10    1
    13    10    11    1
    14    12    11    1
    15    13    46    1
    16    14    13    1
    17    14    15    1
    18    15    18    2
    19    16    17    1
    20    16    15    1
    21    19    14    2
    22    20    21    2
    23    20    19    1
    24    21    26    1
    25    22    21    1
    26    23    22    1
    27    24    23    1
    28    24    25    1
    29    26    27    1
    30    26    13    1
    31    28    42    1
    32    30    40    1
    33    31    32    1
    34    32    29    1
    35    33    35    1
    36    33    36    1
    37    34    40    1
    38    35    37   am
    39    36    34    1
    40    37    44    1
    41    39    31    1
    42    40    43    1
    43    40    38    1
    44    41    35    2
    45    42    37    1
    46    44    34    1
    47    45    46    1
    48    45    32    1
    49    45    28    1
