@<TRIPOS>MOLECULE
outputs/IAG933/test6/raw/output_9310_IAG933_linker_design_.xyz
 41 44 0 0 0
SMALL
GASTEIGER

@<TRIPOS>ATOM
      1 C         -24.8550   -1.0120   30.1430 C.3     1  UNL1        0.1117
      2 C         -24.9730   -2.5050   29.7880 C.2     1  UNL1       -0.0030
      3 C         -23.9060   -3.1730   29.1460 C.2     1  UNL1       -0.0026
      4 C         -23.9890   -4.5490   28.8530 C.2     1  UNL1       -0.0003
      5 C         -25.1370   -5.2800   29.2050 C.2     1  UNL1       -0.0000
      6 C         -26.2320   -4.6110   29.7840 C.2     1  UNL1       -0.0003
      7 C         -26.1550   -3.2320   30.0650 C.2     1  UNL1       -0.0026
      8 C         -25.3870   -0.6790   31.5710 C.3     1  UNL1        0.0950
      9 C         -25.1890    0.7730   32.0280 C.3     1  UNL1        0.0209
     10 C         -25.3360    0.6840   33.5440 C.3     1  UNL1        0.0203
     11 C         -24.8290   -0.7150   33.9050 C.3     1  UNL1        0.0888
     12 N         -24.7580   -1.4810   32.6460 N.3     1  UNL1       -0.2174
     13 C         -25.6880    1.6140   26.4610 C.2     1  UNL1        0.0602
     14 C         -26.2500    2.9200   26.3950 C.2     1  UNL1        0.0781
     15 C         -25.6420    4.0930   27.1230 C.2     1  UNL1        0.2665
     16 N         -25.6140    5.2520   26.4490 N.am    1  UNL1       -0.1997
     17 C         -25.0260    6.4790   26.9630 C.3     1  UNL1        0.1388
     18 O         -25.1430    3.9660   28.2430 O.2     1  UNL1       -0.2683
     19 C         -27.4380    3.0910   25.6450 C.2     1  UNL1        0.1068
     20 N         -28.0750    2.0890   25.0030 N.2     1  UNL1       -0.2081
     21 C         -27.5430    0.8490   25.0790 C.2     1  UNL1        0.2533
     22 O         -28.1930   -0.2080   24.4770 O.2     1  UNL1       -0.4558
     23 C         -29.4600    0.0050   23.8660 C.3     1  UNL1        0.2426
     24 C         -30.0650   -1.3770   23.5730 C.3     1  UNL1        0.2292
     25 O         -30.7290   -1.8780   24.7210 O.3     1  UNL1       -0.2162
     26 C         -26.3540    0.5760   25.7770 C.2     1  UNL1        0.1946
     27 F         -25.8600   -0.6810   25.7950 F       1  UNL1       -0.1992
     28 C         -27.6518    0.0847   29.2360 C.2     1  UNL1        0.1710
     29 O         -22.6791    2.2979   25.8687 O.2     1  UNL1       -0.3738
     30 C         -21.7817    1.0696   27.8239 C.3     1  UNL1        0.2577
     31 C         -22.8335    0.4535   28.5396 C.2     1  UNL1        0.1687
     32 O         -27.8419   -1.0494   28.9693 O.2     1  UNL1       -0.2942
     33 F         -22.4523   -0.2106   29.6620 F       1  UNL1       -0.2045
     34 N         -23.6959    1.7129   25.8520 N.2     1  UNL1       -0.0815
     35 C         -26.4462    0.6519   28.9279 C.3     1  UNL1        0.1564
     36 F         -20.5175    0.6870   28.0080 F       1  UNL1       -0.2257
     37 C         -24.1693    0.5793   28.1390 C.2     1  UNL1        0.0959
     38 C         -21.8855    2.1508   26.8943 C.3     1  UNL1        0.2804
     39 N         -25.1308    0.0606   29.0957 N.pl3   1  UNL1       -0.2949
     40 C         -24.4037    1.3724   26.8637 C.2     1  UNL1        0.1371
     41 C         -28.7395    0.9670   29.8622 C.3     1  UNL1        0.0741
@<TRIPOS>BOND
     1     1    39    1
     2     2     7    1
     3     2     1    1
     4     3     2    2
     5     4     3    1
     6     4     5    2
     7     5     6    1
     8     6     7    2
     9     8     1    1
    10     8     9    1
    11     8    12    1
    12     9    10    1
    13    10    11    1
    14    12    11    1
    15    13    40    1
    16    14    13    1
    17    14    15    1
    18    15    18    2
    19    16    17    1
    20    16    15    1
    21    19    14    2
    22    20    21    2
    23    20    19    1
    24    21    26    1
    25    22    21    1
    26    23    22    1
    27    24    23    1
    28    24    25    1
    29    26    27    1
    30    26    13    2
    31    28    41    1
    32    29    38    1
    33    30    36    1
    34    30    31    1
    35    31    33    1
    36    32    28    2
    37    34    29    1
    38    34    40    2
    39    35    39    1
    40    35    28    1
    41    37    31    2
    42    37    39    1
    43    38    30    1
    44    40    37    1
