@<TRIPOS>MOLECULE
outputs/IAG933/test6/raw/output_9315_IAG933_linker_design_.xyz
 44 48 0 0 0
SMALL
GASTEIGER

@<TRIPOS>ATOM
      1 C         -24.8550   -1.0120   30.1430 C.3     1  UNL1        0.0646
      2 C         -24.9730   -2.5050   29.7880 C.2     1  UNL1       -0.0193
      3 C         -23.9060   -3.1730   29.1460 C.2     1  UNL1       -0.0042
      4 C         -23.9890   -4.5490   28.8530 C.2     1  UNL1       -0.0003
      5 C         -25.1370   -5.2800   29.2050 C.2     1  UNL1       -0.0000
      6 C         -26.2320   -4.6110   29.7840 C.2     1  UNL1       -0.0003
      7 C         -26.1550   -3.2320   30.0650 C.2     1  UNL1       -0.0042
      8 C         -25.3870   -0.6790   31.5710 C.3     1  UNL1        0.0787
      9 C         -25.1890    0.7730   32.0280 C.3     1  UNL1        0.0193
     10 C         -25.3360    0.6840   33.5440 C.3     1  UNL1        0.0202
     11 C         -24.8290   -0.7150   33.9050 C.3     1  UNL1        0.0887
     12 N         -24.7580   -1.4810   32.6460 N.3     1  UNL1       -0.2191
     13 C         -25.6880    1.6140   26.4610 C.3     1  UNL1        0.0955
     14 C         -26.2500    2.9200   26.3950 C.2     1  UNL1        0.0590
     15 C         -25.6420    4.0930   27.1230 C.2     1  UNL1        0.2628
     16 N         -25.6140    5.2520   26.4490 N.am    1  UNL1       -0.2000
     17 C         -25.0260    6.4790   26.9630 C.3     1  UNL1        0.1388
     18 O         -25.1430    3.9660   28.2430 O.2     1  UNL1       -0.2686
     19 C         -27.4380    3.0910   25.6450 C.2     1  UNL1        0.1025
     20 N         -28.0750    2.0890   25.0030 N.2     1  UNL1       -0.2118
     21 C         -27.5430    0.8490   25.0790 C.2     1  UNL1        0.2344
     22 O         -28.1930   -0.2080   24.4770 O.2     1  UNL1       -0.4585
     23 C         -29.4600    0.0050   23.8660 C.3     1  UNL1        0.2423
     24 C         -30.0650   -1.3770   23.5730 C.3     1  UNL1        0.2292
     25 O         -30.7290   -1.8780   24.7210 O.3     1  UNL1       -0.2162
     26 C         -26.3540    0.5760   25.7770 C.3     1  UNL1        0.2441
     27 F         -25.8600   -0.6810   25.7950 F       1  UNL1       -0.2265
     28 F         -20.0923    1.8033   28.0079 F       1  UNL1       -0.2302
     29 C         -21.4136    1.4563   27.4660 C.3     1  UNL1        0.2564
     30 O         -22.5908    1.2920   29.5688 O.2     1  UNL1       -0.4518
     31 C         -22.9851    2.0582   25.7732 C.2     1  UNL1        0.1690
     32 N         -25.5527    0.9105   29.3227 N.am    1  UNL1       -0.2003
     33 O         -21.6585    1.9640   26.1272 O.2     1  UNL1       -0.4659
     34 C         -24.1111    1.7257   26.4235 C.2     1  UNL1        0.0248
     35 O         -27.1252   -0.5311   28.4136 O.2     1  UNL1       -0.2733
     36 C         -27.9542    1.0902   29.8874 C.3     1  UNL1        0.0964
     37 C         -24.3824   -0.0366   29.2183 C.3     1  UNL1        0.1704
     38 C         -26.8385    0.4545   29.1232 C.2     1  UNL1        0.2420
     39 C         -23.6159    1.3603   27.5111 C.2     1  UNL1        0.0355
     40 O         -21.7850   -1.0683   29.5787 O.3     1  UNL1       -0.3162
     41 C         -22.5993    1.4245   28.1283 C.2     1  UNL1        0.1613
     42 C         -22.7155   -0.0735   29.8047 C.3     1  UNL1        0.3084
     43 C         -21.0568   -0.5223   29.1618 C.3     1  UNL1        0.1853
     44 C         -20.5456    0.4348   28.2418 C.3     1  UNL1        0.2374
@<TRIPOS>BOND
     1     1    37    1
     2     2     7    1
     3     2     1    1
     4     3     2    2
     5     4     3    1
     6     4     5    2
     7     5     6    1
     8     6     7    2
     9     8     1    1
    10     8     9    1
    11     8    12    1
    12     9    10    1
    13    10    11    1
    14    12    11    1
    15    13    34    1
    16    14    13    1
    17    14    15    1
    18    15    18    2
    19    16    17    1
    20    16    15    1
    21    19    14    2
    22    20    21    2
    23    20    19    1
    24    21    26    1
    25    22    21    1
    26    23    22    1
    27    24    23    1
    28    24    25    1
    29    26    27    1
    30    26    13    1
    31    29    33    1
    32    29    41    1
    33    29    44    1
    34    30    42    1
    35    31    33    1
    36    31    34    2
    37    34    39    1
    38    35    38    2
    39    37    32    1
    40    38    32    1
    41    38    36    1
    42    39    41    2
    43    40    42    1
    44    41    30    1
    45    42    37    1
    46    43    40    1
    47    44    28    1
    48    44    43    1
