@<TRIPOS>MOLECULE
outputs/IAG933/test6/raw/output_9316_IAG933_linker_design_.xyz
 42 45 0 0 0
SMALL
GASTEIGER

@<TRIPOS>ATOM
      1 C         -24.8550   -1.0120   30.1430 C.3     1  UNL1        0.0656
      2 C         -24.9730   -2.5050   29.7880 C.2     1  UNL1       -0.0188
      3 C         -23.9060   -3.1730   29.1460 C.2     1  UNL1       -0.0042
      4 C         -23.9890   -4.5490   28.8530 C.2     1  UNL1       -0.0003
      5 C         -25.1370   -5.2800   29.2050 C.2     1  UNL1       -0.0000
      6 C         -26.2320   -4.6110   29.7840 C.2     1  UNL1       -0.0003
      7 C         -26.1550   -3.2320   30.0650 C.2     1  UNL1       -0.0042
      8 C         -25.3870   -0.6790   31.5710 C.3     1  UNL1        0.0792
      9 C         -25.1890    0.7730   32.0280 C.3     1  UNL1        0.0193
     10 C         -25.3360    0.6840   33.5440 C.3     1  UNL1        0.0202
     11 C         -24.8290   -0.7150   33.9050 C.3     1  UNL1        0.0887
     12 N         -24.7580   -1.4810   32.6460 N.3     1  UNL1       -0.2190
     13 C         -25.6880    1.6140   26.4610 C.3     1  UNL1        0.1004
     14 C         -26.2500    2.9200   26.3950 C.2     1  UNL1        0.0573
     15 C         -25.6420    4.0930   27.1230 C.2     1  UNL1        0.2625
     16 N         -25.6140    5.2520   26.4490 N.am    1  UNL1       -0.2000
     17 C         -25.0260    6.4790   26.9630 C.3     1  UNL1        0.1388
     18 O         -25.1430    3.9660   28.2430 O.2     1  UNL1       -0.2687
     19 C         -27.4380    3.0910   25.6450 C.2     1  UNL1        0.1022
     20 N         -28.0750    2.0890   25.0030 N.2     1  UNL1       -0.2119
     21 C         -27.5430    0.8490   25.0790 C.2     1  UNL1        0.2342
     22 O         -28.1930   -0.2080   24.4770 O.2     1  UNL1       -0.4585
     23 C         -29.4600    0.0050   23.8660 C.3     1  UNL1        0.2423
     24 C         -30.0650   -1.3770   23.5730 C.3     1  UNL1        0.2292
     25 O         -30.7290   -1.8780   24.7210 O.3     1  UNL1       -0.2162
     26 C         -26.3540    0.5760   25.7770 C.3     1  UNL1        0.2424
     27 F         -25.8600   -0.6810   25.7950 F       1  UNL1       -0.2268
     28 C         -21.9311    2.0106   28.0373 C.3     1  UNL1        0.1047
     29 C         -20.6818   -0.1190   28.4890 C.3     1  UNL1        0.1802
     30 C         -22.9410   -0.2084   28.7374 C.3     1  UNL1        0.0678
     31 C         -23.1051    1.1507   27.2718 C.3     1  UNL1        0.1940
     32 O         -19.8965    0.9450   28.3247 O.3     1  UNL1       -0.3238
     33 C         -25.1939    1.8851   29.0558 C.3     1  UNL1        0.2232
     34 F         -23.0692    1.9018   26.1058 F       1  UNL1       -0.2345
     35 C         -21.8617   -0.4789   28.9840 C.3     1  UNL1        0.1929
     36 F         -20.7963    1.5941   26.2480 F       1  UNL1       -0.2039
     37 C         -20.6855    1.5361   27.4784 C.3     1  UNL1        0.2813
     38 C         -24.0759   -0.0016   29.3882 C.3     1  UNL1        0.1234
     39 C         -24.6997    1.1629   27.5351 C.3     1  UNL1        0.1622
     40 F         -21.6177   -0.4649   30.3803 F       1  UNL1       -0.2345
     41 O         -25.1923    0.1508   28.1490 O.3     1  UNL1       -0.3546
     42 F         -24.2018    2.1318   30.0691 F       1  UNL1       -0.2316
@<TRIPOS>BOND
     1     1     2    1
     2     2     7    1
     3     3     2    2
     4     4     3    1
     5     4     5    2
     6     5     6    1
     7     6     7    2
     8     8     1    1
     9     8     9    1
    10     8    12    1
    11     9    10    1
    12    10    11    1
    13    12    11    1
    14    13    14    1
    15    13    39    1
    16    14    15    1
    17    15    18    2
    18    16    17    1
    19    16    15    1
    20    19    14    2
    21    20    21    2
    22    20    19    1
    23    21    26    1
    24    22    21    1
    25    23    22    1
    26    24    23    1
    27    24    25    1
    28    26    27    1
    29    26    13    1
    30    29    35    1
    31    30    35    1
    32    30    38    1
    33    31    34    1
    34    31    39    1
    35    31    28    1
    36    32    29    1
    37    33    42    1
    38    35    40    1
    39    37    36    1
    40    37    28    1
    41    37    32    1
    42    38     1    1
    43    39    41    1
    44    39    33    1
    45    41    38    1
