@<TRIPOS>MOLECULE
outputs/IAG933/test6/raw/output_9317_IAG933_linker_design_.xyz
 50 54 0 0 0
SMALL
GASTEIGER

@<TRIPOS>ATOM
      1 C         -24.8550   -1.0120   30.1430 C.3     1  UNL1        0.0400
      2 C         -24.9730   -2.5050   29.7880 C.2     1  UNL1       -0.0211
      3 C         -23.9060   -3.1730   29.1460 C.2     1  UNL1       -0.0042
      4 C         -23.9890   -4.5490   28.8530 C.2     1  UNL1       -0.0003
      5 C         -25.1370   -5.2800   29.2050 C.2     1  UNL1       -0.0000
      6 C         -26.2320   -4.6110   29.7840 C.2     1  UNL1       -0.0003
      7 C         -26.1550   -3.2320   30.0650 C.2     1  UNL1       -0.0042
      8 C         -25.3870   -0.6790   31.5710 C.3     1  UNL1        0.0769
      9 C         -25.1890    0.7730   32.0280 C.3     1  UNL1        0.0192
     10 C         -25.3360    0.6840   33.5440 C.3     1  UNL1        0.0202
     11 C         -24.8290   -0.7150   33.9050 C.3     1  UNL1        0.0887
     12 N         -24.7580   -1.4810   32.6460 N.3     1  UNL1       -0.2191
     13 C         -25.6880    1.6140   26.4610 C.3     1  UNL1        0.0702
     14 C         -26.2500    2.9200   26.3950 C.2     1  UNL1        0.0548
     15 C         -25.6420    4.0930   27.1230 C.2     1  UNL1        0.2624
     16 N         -25.6140    5.2520   26.4490 N.am    1  UNL1       -0.2000
     17 C         -25.0260    6.4790   26.9630 C.3     1  UNL1        0.1388
     18 O         -25.1430    3.9660   28.2430 O.2     1  UNL1       -0.2687
     19 C         -27.4380    3.0910   25.6450 C.2     1  UNL1        0.1021
     20 N         -28.0750    2.0890   25.0030 N.2     1  UNL1       -0.2119
     21 C         -27.5430    0.8490   25.0790 C.2     1  UNL1        0.2341
     22 O         -28.1930   -0.2080   24.4770 O.2     1  UNL1       -0.4586
     23 C         -29.4600    0.0050   23.8660 C.3     1  UNL1        0.2388
     24 C         -30.0650   -1.3770   23.5730 C.3     1  UNL1        0.1894
     25 O         -30.7290   -1.8780   24.7210 O.3     1  UNL1       -0.3483
     26 C         -26.3540    0.5760   25.7770 C.3     1  UNL1        0.2400
     27 F         -25.8600   -0.6810   25.7950 F       1  UNL1       -0.2269
     28 C         -30.6932    1.9179   28.9882 C.3     1  UNL1        0.1649
     29 C         -25.0865   -0.0109   28.8797 C.3     1  UNL1        0.0275
     30 C         -29.1904    4.1704   29.7320 C.3     1  UNL1        0.1213
     31 C         -23.1981    1.1351   27.4118 C.3     1  UNL1        0.0005
     32 C         -32.3578    0.1258   29.5811 C.2     1  UNL1        0.2382
     33 C         -22.4119    0.8790   28.6915 C.3     1  UNL1        0.0000
     34 N         -27.2542    0.7140   29.6728 N.am    1  UNL1       -0.2042
     35 O         -33.7574    0.1959   29.3604 O.2     1  UNL1       -0.4572
     36 C         -30.0323    4.2779   28.4214 C.3     1  UNL1        0.1610
     37 C         -26.6123   -0.2009   28.7626 C.3     1  UNL1        0.1155
     38 O         -30.9966    3.2651   28.5869 O.3     1  UNL1       -0.3508
     39 N         -29.1406    2.7578   30.5658 N.3     1  UNL1       -0.2053
     40 C         -31.8523   -1.3115   25.3289 C.3     1  UNL1        0.1611
     41 N         -31.8583   -0.5032   30.5848 N.2     1  UNL1       -0.1106
     42 C         -24.7554    1.2784   27.7310 C.3     1  UNL1        0.0095
     43 C         -22.4992    2.1096   26.5638 C.3     1  UNL1        0.0000
     44 C         -34.8248    0.3016   30.3786 C.3     1  UNL1        0.2540
     45 C         -28.6946    0.5309   29.7115 C.2     1  UNL1        0.2597
     46 C         -31.4467    0.7624   28.6568 C.3     1  UNL1        0.1791
     47 C         -31.6521   -1.0852   26.8992 C.3     1  UNL1        0.1213
     48 O         -29.2260   -0.5831   29.6606 O.2     1  UNL1       -0.2717
     49 N         -30.9979    0.0903   27.4762 N.3     1  UNL1       -0.2052
     50 C         -29.4722    1.7246   29.7593 C.3     1  UNL1        0.1796
@<TRIPOS>BOND
     1     1     2    1
     2     2     7    1
     3     3     2    2
     4     4     3    1
     5     4     5    2
     6     5     6    1
     7     6     7    2
     8     8     1    1
     9     8     9    1
    10     8    12    1
    11     9    10    1
    12    10    11    1
    13    12    11    1
    14    13    14    1
    15    13    42    1
    16    14    15    1
    17    15    18    2
    18    16    17    1
    19    16    15    1
    20    19    14    2
    21    20    21    2
    22    20    19    1
    23    21    26    1
    24    22    21    1
    25    23    22    1
    26    24    23    1
    27    24    25    1
    28    25    40    1
    29    26    27    1
    30    26    13    1
    31    28    38    1
    32    28    50    1
    33    29     1    1
    34    30    39    1
    35    31    33    1
    36    32    41    2
    37    34    45    1
    38    35    32    1
    39    35    44    1
    40    36    38    1
    41    36    30    1
    42    37    29    1
    43    37    34    1
    44    40    47    1
    45    42    31    1
    46    42    29    1
    47    43    31    1
    48    46    28    1
    49    46    32    1
    50    47    49    1
    51    48    45    2
    52    49    46    1
    53    50    45    1
    54    50    39    1
