@<TRIPOS>MOLECULE
No_932-gen_results/8p0m/2024-11-27-11-27-31/
 35 36 0 0 0
SMALL
GASTEIGER

@<TRIPOS>ATOM
      1 C         -28.0162   -0.8135   28.8779 C.3     1  UNL1        0.0506
      2 C         -27.0636   -0.1189   28.6079 C.ar    1  UNL1       -0.0202
      3 C         -25.7923   -0.4302   29.0761 C.ar    1  UNL1       -0.0043
      4 C         -24.5456    0.3494   28.8225 C.ar    1  UNL1        0.0035
      5 C         -24.6586    1.4196   27.8878 C.ar    1  UNL1        0.0714
      6 C         -25.9471    1.6811   27.3792 C.ar    1  UNL1        0.0035
      7 C         -27.0439    0.9739   27.6871 C.ar    1  UNL1       -0.0043
      8 C         -29.2096   -0.0265   29.3432 C.3     1  UNL1        0.0997
      9 C         -30.0494    0.2841   28.3230 C.ar    1  UNL1       -0.0043
     10 C         -31.1015    1.0742   28.6744 C.ar    1  UNL1       -0.0027
     11 C         -31.9720    1.5499   27.6666 C.ar    1  UNL1       -0.0006
     12 C         -31.7243    1.1469   26.3412 C.ar    1  UNL1       -0.0043
     13 C         -30.6487    0.3831   25.9899 C.ar    1  UNL1       -0.0228
     14 C         -29.8070   -0.0195   26.9584 C.ar    1  UNL1       -0.0069
     15 C         -23.4841    2.1830   27.6020 C.3     1  UNL1        0.4186
     16 F         -23.5259    2.7979   26.6867 F       1  UNL1       -0.1659
     17 F         -22.3486    1.2670   27.3967 F       1  UNL1       -0.1659
     18 F         -23.0999    2.8801   28.7135 F       1  UNL1       -0.1659
     19 N         -29.9349   -0.7416   30.4302 N.pl3   1  UNL1       -0.3037
     20 C         -29.6082   -0.5965   31.6783 C.2     1  UNL1        0.0615
     21 C         -30.3826   -2.0598   30.1191 C.3     1  UNL1        0.0958
     22 C         -30.3653   -0.1723   24.7381 C.3     1  UNL1        0.0223
     23 C         -30.8665   -1.4272   24.3966 C.3     1  UNL1        0.0047
     24 C         -29.5327    0.5203   23.8035 C.3     1  UNL1        0.0047
     25 C         -31.3549   -2.5233   31.0441 C.3     1  UNL1        0.0506
     26 C         -32.0688   -3.5150   30.6186 C.2     1  UNL1        0.0157
     27 C         -31.9479   -3.8474   29.4031 C.2     1  UNL1        0.1886
     28 N         -32.6007   -4.9241   28.9482 N.pl3   1  UNL1       -0.0578
     29 C         -32.4353   -5.4427   27.6479 C.cat   1  UNL1        0.5393
     30 N         -31.6894   -4.7814   26.8426 N.pl3   1  UNL1        0.1358
     31 N         -33.0484   -6.6121   27.2830 N.pl3   1  UNL1        0.1358
     32 C         -29.0217    0.7446   32.0543 C.2     1  UNL1        0.0154
     33 C         -28.4184    0.8401   33.2777 C.2     1  UNL1       -0.0033
     34 C         -28.4056   -0.1751   34.1388 C.2     1  UNL1       -0.0257
     35 C         -28.9100   -1.4128   33.8271 C.3     1  UNL1        0.0307
@<TRIPOS>BOND
     1     1     2    1
     2     1     8    1
     3     8     9    1
     4     5    15    1
     5    15    16    1
     6    15    17    1
     7    15    18    1
     8     8    19    1
     9    19    20    1
    10    19    21    1
    11    13    22    1
    12    22    23    1
    13    22    24    1
    14    21    25    1
    15    25    26    1
    16    26    27    2
    17    27    28    1
    18    28    29    2
    19    29    30    1
    20    29    31    1
    21    20    32    2
    22    32    33    1
    23    33    34    2
    24    34    35    1
    25     2     3   ar
    26     3     4   ar
    27     4     5   ar
    28     5     6   ar
    29     6     7   ar
    30     7     2   ar
    31     9    10   ar
    32    10    11   ar
    33    11    12   ar
    34    12    13   ar
    35    13    14   ar
    36    14     9   ar
