@<TRIPOS>MOLECULE
outputs/IAG933/test6/raw/output_9321_IAG933_linker_design_.xyz
 45 49 0 0 0
SMALL
GASTEIGER

@<TRIPOS>ATOM
      1 C         -24.8550   -1.0120   30.1430 C.3     1  UNL1        0.0438
      2 C         -24.9730   -2.5050   29.7880 C.2     1  UNL1       -0.0208
      3 C         -23.9060   -3.1730   29.1460 C.2     1  UNL1       -0.0042
      4 C         -23.9890   -4.5490   28.8530 C.2     1  UNL1       -0.0003
      5 C         -25.1370   -5.2800   29.2050 C.2     1  UNL1       -0.0000
      6 C         -26.2320   -4.6110   29.7840 C.2     1  UNL1       -0.0003
      7 C         -26.1550   -3.2320   30.0650 C.2     1  UNL1       -0.0042
      8 C         -25.3870   -0.6790   31.5710 C.3     1  UNL1        0.0789
      9 C         -25.1890    0.7730   32.0280 C.3     1  UNL1        0.0427
     10 C         -25.3360    0.6840   33.5440 C.3     1  UNL1        0.0221
     11 C         -24.8290   -0.7150   33.9050 C.3     1  UNL1        0.0888
     12 N         -24.7580   -1.4810   32.6460 N.3     1  UNL1       -0.2191
     13 C         -25.6880    1.6140   26.4610 C.2     1  UNL1        0.0394
     14 C         -26.2500    2.9200   26.3950 C.2     1  UNL1        0.0766
     15 C         -25.6420    4.0930   27.1230 C.2     1  UNL1        0.2664
     16 N         -25.6140    5.2520   26.4490 N.am    1  UNL1       -0.1997
     17 C         -25.0260    6.4790   26.9630 C.3     1  UNL1        0.1388
     18 O         -25.1430    3.9660   28.2430 O.2     1  UNL1       -0.2683
     19 C         -27.4380    3.0910   25.6450 C.2     1  UNL1        0.1067
     20 N         -28.0750    2.0890   25.0030 N.2     1  UNL1       -0.2081
     21 C         -27.5430    0.8490   25.0790 C.2     1  UNL1        0.2533
     22 O         -28.1930   -0.2080   24.4770 O.2     1  UNL1       -0.4558
     23 C         -29.4600    0.0050   23.8660 C.3     1  UNL1        0.2426
     24 C         -30.0650   -1.3770   23.5730 C.3     1  UNL1        0.2292
     25 O         -30.7290   -1.8780   24.7210 O.3     1  UNL1       -0.2162
     26 C         -26.3540    0.5760   25.7770 C.2     1  UNL1        0.1931
     27 F         -25.8600   -0.6810   25.7950 F       1  UNL1       -0.1992
     28 O         -24.4164    3.4165   32.1606 O.3     1  UNL1       -0.3232
     29 F         -23.8713    6.0638   31.8465 F       1  UNL1       -0.1989
     30 F         -20.9514    2.1479   26.0765 F       1  UNL1       -0.2018
     31 N         -25.3572    1.7461   29.2953 N.pl3   1  UNL1       -0.2341
     32 C         -25.4864    1.7326   30.7717 C.3     1  UNL1        0.1499
     33 C         -25.0582    5.7110   32.2949 C.3     1  UNL1        0.3176
     34 F         -25.6084    6.6978   33.0787 F       1  UNL1       -0.1989
     35 C         -24.4727    1.5903   27.0622 C.2     1  UNL1        0.0197
     36 C         -24.7805    4.4444   33.0808 C.3     1  UNL1        0.2136
     37 C         -23.3508    1.8462   26.2440 C.2     1  UNL1        0.0333
     38 C         -21.9000    1.1945   28.0011 C.2     1  UNL1        0.1687
     39 F         -20.6878    0.7209   28.2938 F       1  UNL1       -0.2018
     40 O         -25.5225    4.2155   30.4381 O.3     1  UNL1       -0.3232
     41 C         -22.0570    1.7267   26.7381 C.2     1  UNL1        0.1675
     42 C         -25.6063    3.1701   31.3585 C.3     1  UNL1        0.2561
     43 C         -25.9972    5.3556   31.2019 C.3     1  UNL1        0.2136
     44 C         -22.9662    1.1710   28.8995 C.2     1  UNL1        0.0480
     45 C         -24.2778    1.4605   28.4630 C.2     1  UNL1        0.0678
@<TRIPOS>BOND
     1     2     7    1
     2     2     1    1
     3     3     2    2
     4     4     3    1
     5     4     5    2
     6     5     6    1
     7     6     7    2
     8     8     1    1
     9     8     9    1
    10     8    12    1
    11     9    32    1
    12     9    10    1
    13    10    11    1
    14    12    11    1
    15    13    35    1
    16    14    13    1
    17    14    15    1
    18    15    18    2
    19    16    17    1
    20    16    15    1
    21    19    14    2
    22    20    21    2
    23    20    19    1
    24    21    26    1
    25    22    21    1
    26    23    22    1
    27    24    23    1
    28    24    25    1
    29    26    27    1
    30    26    13    2
    31    28    36    1
    32    29    33    1
    33    30    41    1
    34    32    31    1
    35    32    42    1
    36    33    34    1
    37    33    36    1
    38    35    45    1
    39    37    41    1
    40    37    35    2
    41    38    39    1
    42    38    44    1
    43    40    43    1
    44    40    42    1
    45    41    38    2
    46    42    28    1
    47    43    33    1
    48    45    44    2
    49    45    31    1
