@<TRIPOS>MOLECULE
outputs/IAG933/test6/raw/output_9325_IAG933_linker_design_.xyz
 42 45 0 0 0
SMALL
GASTEIGER

@<TRIPOS>ATOM
      1 C         -24.8550   -1.0120   30.1430 C.3     1  UNL1        0.0672
      2 C         -24.9730   -2.5050   29.7880 C.2     1  UNL1       -0.0187
      3 C         -23.9060   -3.1730   29.1460 C.2     1  UNL1       -0.0042
      4 C         -23.9890   -4.5490   28.8530 C.2     1  UNL1       -0.0003
      5 C         -25.1370   -5.2800   29.2050 C.2     1  UNL1       -0.0000
      6 C         -26.2320   -4.6110   29.7840 C.2     1  UNL1       -0.0003
      7 C         -26.1550   -3.2320   30.0650 C.2     1  UNL1       -0.0042
      8 C         -25.3870   -0.6790   31.5710 C.3     1  UNL1        0.0792
      9 C         -25.1890    0.7730   32.0280 C.3     1  UNL1        0.0193
     10 C         -25.3360    0.6840   33.5440 C.3     1  UNL1        0.0202
     11 C         -24.8290   -0.7150   33.9050 C.3     1  UNL1        0.0887
     12 N         -24.7580   -1.4810   32.6460 N.3     1  UNL1       -0.2190
     13 C         -25.6880    1.6140   26.4610 C.3     1  UNL1        0.1435
     14 C         -26.2500    2.9200   26.3950 C.2     1  UNL1        0.0730
     15 C         -25.6420    4.0930   27.1230 C.2     1  UNL1        0.2640
     16 N         -25.6140    5.2520   26.4490 N.am    1  UNL1       -0.1999
     17 C         -25.0260    6.4790   26.9630 C.3     1  UNL1        0.1388
     18 O         -25.1430    3.9660   28.2430 O.2     1  UNL1       -0.2686
     19 C         -27.4380    3.0910   25.6450 C.2     1  UNL1        0.1038
     20 N         -28.0750    2.0890   25.0030 N.2     1  UNL1       -0.2118
     21 C         -27.5430    0.8490   25.0790 C.2     1  UNL1        0.2358
     22 O         -28.1930   -0.2080   24.4770 O.2     1  UNL1       -0.4585
     23 C         -29.4600    0.0050   23.8660 C.3     1  UNL1        0.2423
     24 C         -30.0650   -1.3770   23.5730 C.3     1  UNL1        0.2292
     25 O         -30.7290   -1.8780   24.7210 O.3     1  UNL1       -0.2162
     26 C         -26.3540    0.5760   25.7770 C.3     1  UNL1        0.2580
     27 F         -25.8600   -0.6810   25.7950 F       1  UNL1       -0.2251
     28 C         -22.4363    1.1471   27.9130 C.2     1  UNL1        0.0618
     29 C         -21.1789   -0.5707   29.1118 C.3     1  UNL1        0.0731
     30 C         -25.2565    1.1899   28.8697 C.3     1  UNL1        0.1211
     31 C         -27.9198   -0.4243   28.3657 C.3     1  UNL1        0.1741
     32 C         -22.5003    0.2650   29.1258 C.3     1  UNL1        0.1812
     33 O         -21.6852    2.2452   26.0323 O.2     1  UNL1       -0.4462
     34 N         -24.7668    1.3422   27.4922 N.pl3   1  UNL1       -0.2977
     35 C         -25.6371   -0.2758   29.0927 C.3     1  UNL1        0.1403
     36 C         -21.3320    1.7076   27.2174 C.2     1  UNL1        0.1791
     37 O         -27.0267   -0.7205   29.1479 O.3     1  UNL1       -0.3514
     38 O         -19.7186    1.1865   28.9782 O.3     1  UNL1       -0.2203
     39 C         -23.0010    2.0558   25.9759 C.2     1  UNL1        0.1939
     40 O         -22.7167    0.8867   30.3113 O.3     1  UNL1       -0.2181
     41 C         -20.2355    0.0412   28.3966 C.3     1  UNL1        0.1851
     42 C         -23.5024    1.4851   27.1269 C.2     1  UNL1        0.0877
@<TRIPOS>BOND
     1     1    35    1
     2     2     7    1
     3     2     1    1
     4     3     2    2
     5     4     3    1
     6     4     5    2
     7     5     6    1
     8     6     7    2
     9     8     1    1
    10     8     9    1
    11     8    12    1
    12     9    10    1
    13    10    11    1
    14    12    11    1
    15    13    34    1
    16    14    13    1
    17    14    15    1
    18    15    18    2
    19    16    17    1
    20    16    15    1
    21    19    14    2
    22    20    21    2
    23    20    19    1
    24    21    26    1
    25    22    21    1
    26    23    22    1
    27    24    23    1
    28    24    25    1
    29    26    27    1
    30    26    13    1
    31    28    32    1
    32    29    32    1
    33    31    37    1
    34    32    40    1
    35    33    36    1
    36    34    30    1
    37    35    30    1
    38    35    37    1
    39    36    28    2
    40    39    33    1
    41    39    42    2
    42    41    38    1
    43    41    29    1
    44    42    34    1
    45    42    28    1
