@<TRIPOS>MOLECULE
outputs/IAG933/test6/raw/output_9328_IAG933_linker_design_.xyz
 40 42 0 0 0
SMALL
GASTEIGER

@<TRIPOS>ATOM
      1 C         -24.8550   -1.0120   30.1430 C.3     1  UNL1        0.0470
      2 C         -24.9730   -2.5050   29.7880 C.2     1  UNL1       -0.0207
      3 C         -23.9060   -3.1730   29.1460 C.2     1  UNL1       -0.0042
      4 C         -23.9890   -4.5490   28.8530 C.2     1  UNL1       -0.0003
      5 C         -25.1370   -5.2800   29.2050 C.2     1  UNL1       -0.0000
      6 C         -26.2320   -4.6110   29.7840 C.2     1  UNL1       -0.0003
      7 C         -26.1550   -3.2320   30.0650 C.2     1  UNL1       -0.0042
      8 C         -25.3870   -0.6790   31.5710 C.3     1  UNL1        0.0773
      9 C         -25.1890    0.7730   32.0280 C.3     1  UNL1        0.0192
     10 C         -25.3360    0.6840   33.5440 C.3     1  UNL1        0.0202
     11 C         -24.8290   -0.7150   33.9050 C.3     1  UNL1        0.0887
     12 N         -24.7580   -1.4810   32.6460 N.3     1  UNL1       -0.2191
     13 C         -25.6880    1.6140   26.4610 C.2     1  UNL1        0.0161
     14 C         -26.2500    2.9200   26.3950 C.2     1  UNL1        0.0726
     15 C         -25.6420    4.0930   27.1230 C.2     1  UNL1        0.2661
     16 N         -25.6140    5.2520   26.4490 N.am    1  UNL1       -0.1997
     17 C         -25.0260    6.4790   26.9630 C.3     1  UNL1        0.1388
     18 O         -25.1430    3.9660   28.2430 O.2     1  UNL1       -0.2683
     19 C         -27.4380    3.0910   25.6450 C.2     1  UNL1        0.1064
     20 N         -28.0750    2.0890   25.0030 N.2     1  UNL1       -0.2081
     21 C         -27.5430    0.8490   25.0790 C.2     1  UNL1        0.2530
     22 O         -28.1930   -0.2080   24.4770 O.2     1  UNL1       -0.4558
     23 C         -29.4600    0.0050   23.8660 C.3     1  UNL1        0.2426
     24 C         -30.0650   -1.3770   23.5730 C.3     1  UNL1        0.2292
     25 O         -30.7290   -1.8780   24.7210 O.3     1  UNL1       -0.2162
     26 C         -26.3540    0.5760   25.7770 C.2     1  UNL1        0.1891
     27 F         -25.8600   -0.6810   25.7950 F       1  UNL1       -0.1996
     28 O         -21.2917    2.1326   26.2479 O.2     1  UNL1       -0.2591
     29 F         -21.5972    0.8047   27.9057 F       1  UNL1       -0.1636
     30 O         -27.6693   -0.4309   28.6392 O.2     1  UNL1       -0.2729
     31 O         -28.2541    3.2331   30.5422 O.2     1  UNL1       -0.2729
     32 C         -25.3149   -0.1115   28.9867 C.3     1  UNL1        0.0843
     33 C         -23.4379    1.2558   26.5233 C.3     1  UNL1        0.1053
     34 C         -24.2886    0.9948   28.7690 C.3     1  UNL1        0.0145
     35 N         -26.9942    1.7013   29.3155 N.am    1  UNL1       -0.1448
     36 C         -28.1753    2.3563   29.7180 C.2     1  UNL1        0.2484
     37 C         -26.7605    0.3434   29.0035 C.2     1  UNL1        0.2478
     38 C         -24.4535    1.3267   27.2195 C.3     1  UNL1        0.0356
     39 C         -22.1123    1.5105   26.9506 C.2     1  UNL1        0.3109
     40 C         -29.3362    2.0641   28.9047 C.3     1  UNL1        0.0969
@<TRIPOS>BOND
     1     1    32    1
     2     2     7    1
     3     2     1    1
     4     3     2    2
     5     4     3    1
     6     4     5    2
     7     5     6    1
     8     6     7    2
     9     8     1    1
    10     8     9    1
    11     8    12    1
    12     9    10    1
    13    10    11    1
    14    12    11    1
    15    13    38    1
    16    14    13    1
    17    14    15    1
    18    15    18    2
    19    16    17    1
    20    16    15    1
    21    19    14    2
    22    20    21    2
    23    20    19    1
    24    21    26    1
    25    22    21    1
    26    23    22    1
    27    24    23    1
    28    24    25    1
    29    26    27    1
    30    26    13    2
    31    28    39    2
    32    30    37    2
    33    32    34    1
    34    32    37    1
    35    33    39    1
    36    35    36    1
    37    36    31    2
    38    37    35    1
    39    38    33    1
    40    38    34    1
    41    39    29    1
    42    40    36    1
