@<TRIPOS>MOLECULE
outputs/IAG933/test6/raw/output_933_IAG933_linker_design_.xyz
 45 49 0 0 0
SMALL
GASTEIGER

@<TRIPOS>ATOM
      1 C         -24.8550   -1.0120   30.1430 C.3     1  UNL1        0.0437
      2 C         -24.9730   -2.5050   29.7880 C.2     1  UNL1       -0.0208
      3 C         -23.9060   -3.1730   29.1460 C.2     1  UNL1       -0.0042
      4 C         -23.9890   -4.5490   28.8530 C.2     1  UNL1       -0.0003
      5 C         -25.1370   -5.2800   29.2050 C.2     1  UNL1       -0.0000
      6 C         -26.2320   -4.6110   29.7840 C.2     1  UNL1       -0.0003
      7 C         -26.1550   -3.2320   30.0650 C.2     1  UNL1       -0.0042
      8 C         -25.3870   -0.6790   31.5710 C.3     1  UNL1        0.0775
      9 C         -25.1890    0.7730   32.0280 C.3     1  UNL1        0.0240
     10 C         -25.3360    0.6840   33.5440 C.3     1  UNL1        0.0206
     11 C         -24.8290   -0.7150   33.9050 C.3     1  UNL1        0.0887
     12 N         -24.7580   -1.4810   32.6460 N.3     1  UNL1       -0.2191
     13 C         -25.6880    1.6140   26.4610 C.3     1  UNL1        0.0726
     14 C         -26.2500    2.9200   26.3950 C.2     1  UNL1        0.0549
     15 C         -25.6420    4.0930   27.1230 C.2     1  UNL1        0.2624
     16 N         -25.6140    5.2520   26.4490 N.am    1  UNL1       -0.2000
     17 C         -25.0260    6.4790   26.9630 C.3     1  UNL1        0.1388
     18 O         -25.1430    3.9660   28.2430 O.2     1  UNL1       -0.2687
     19 C         -27.4380    3.0910   25.6450 C.2     1  UNL1        0.1021
     20 N         -28.0750    2.0890   25.0030 N.2     1  UNL1       -0.2119
     21 C         -27.5430    0.8490   25.0790 C.2     1  UNL1        0.2341
     22 O         -28.1930   -0.2080   24.4770 O.2     1  UNL1       -0.4585
     23 C         -29.4600    0.0050   23.8660 C.3     1  UNL1        0.2423
     24 C         -30.0650   -1.3770   23.5730 C.3     1  UNL1        0.2292
     25 O         -30.7290   -1.8780   24.7210 O.3     1  UNL1       -0.2162
     26 C         -26.3540    0.5760   25.7770 C.3     1  UNL1        0.2401
     27 F         -25.8600   -0.6810   25.7950 F       1  UNL1       -0.2269
     28 C         -25.0317    3.3026   31.4851 C.2     1  UNL1       -0.0376
     29 C         -25.9830    3.9139   30.6514 C.2     1  UNL1       -0.0050
     30 C         -25.5511    6.4700   32.4391 C.2     1  UNL1        0.0327
     31 C         -24.6971    5.4866   32.9698 C.2     1  UNL1       -0.0186
     32 C         -26.3584    6.3246   31.2650 C.2     1  UNL1        0.1384
     33 C         -23.2637    1.6506   27.3947 C.3     1  UNL1        0.1181
     34 C         -21.5322    1.2898   28.6309 C.3     1  UNL1        0.0370
     35 C         -22.8292    1.4807   28.7138 C.3     1  UNL1        0.0604
     36 O         -22.7420    0.4338   30.9129 O.3     1  UNL1       -0.2227
     37 C         -28.3987    7.5784   31.0015 C.3     1  UNL1        0.2525
     38 C         -24.5871    1.8747   31.2569 C.3     1  UNL1        0.0505
     39 C         -21.0263    1.5978   27.3532 C.3     1  UNL1        0.1422
     40 C         -26.4827    5.1570   30.6315 C.2     1  UNL1        0.0363
     41 O         -22.0066    1.9563   26.6029 O.3     1  UNL1       -0.3562
     42 O         -27.0519    7.3267   30.5488 O.2     1  UNL1       -0.4714
     43 C         -24.3825    1.6169   26.6156 C.3     1  UNL1        0.0374
     44 C         -23.5134    1.5057   30.2077 C.3     1  UNL1        0.1580
     45 C         -24.4905    4.1730   32.5742 C.3     1  UNL1        0.0481
@<TRIPOS>BOND
     1     2     7    1
     2     2     1    1
     3     3     2    2
     4     4     3    1
     5     4     5    2
     6     5     6    1
     7     6     7    2
     8     8     1    1
     9     8     9    1
    10     8    12    1
    11     9    38    1
    12     9    10    1
    13    10    11    1
    14    12    11    1
    15    13    43    1
    16    14    13    1
    17    14    15    1
    18    15    18    2
    19    16    17    1
    20    16    15    1
    21    19    14    2
    22    20    21    2
    23    20    19    1
    24    21    26    1
    25    22    21    1
    26    23    22    1
    27    24    23    1
    28    24    25    1
    29    26    27    1
    30    26    13    1
    31    28    45    1
    32    29    28    2
    33    30    31    2
    34    32    30    1
    35    33    43    1
    36    33    35    1
    37    34    35    1
    38    35    44    1
    39    38    44    1
    40    38    28    1
    41    39    34    1
    42    40    29    1
    43    40    32    2
    44    41    39    1
    45    41    33    1
    46    42    37    1
    47    42    32    1
    48    44    36    1
    49    45    31    1
