@<TRIPOS>MOLECULE
No_934-gen_results/8p0m/2024-11-27-11-27-31/
 35 37 0 0 0
SMALL
GASTEIGER

@<TRIPOS>ATOM
      1 C         -28.0162   -0.8135   28.8779 C.3     1  UNL1        0.0424
      2 C         -27.0636   -0.1190   28.6079 C.ar    1  UNL1       -0.0208
      3 C         -25.7923   -0.4302   29.0761 C.ar    1  UNL1       -0.0041
      4 C         -24.5456    0.3494   28.8225 C.ar    1  UNL1        0.0045
      5 C         -24.6586    1.4196   27.8878 C.ar    1  UNL1        0.0593
      6 C         -25.9471    1.6811   27.3792 C.ar    1  UNL1        0.0045
      7 C         -27.0439    0.9739   27.6871 C.ar    1  UNL1       -0.0041
      8 C         -28.6597   -0.4600   30.2006 C.3     1  UNL1        0.0651
      9 N         -29.6723   -1.2105   30.6653 N.3     1  UNL1       -0.2380
     10 C         -23.4502    2.1420   27.5921 C.2     1  UNL1        0.2968
     11 N         -22.5149    1.8201   27.2250 N.2     1  UNL1       -0.1025
     12 O         -23.7723    3.4576   27.2085 O.2     1  UNL1       -0.2636
     13 C         -29.8216   -1.6252   31.7892 C.3     1  UNL1        0.0754
     14 C         -29.2323   -0.9076   32.8869 C.3     1  UNL1        0.0175
     15 C         -28.1344   -0.0522   32.4922 C.3     1  UNL1        0.0028
     16 C         -27.7651    0.0356   31.1840 C.3     1  UNL1        0.0165
     17 C         -30.6159   -1.7294   29.6274 C.3     1  UNL1        0.2757
     18 C         -32.0041   -1.4797   30.0181 C.3     1  UNL1        0.2691
     19 C         -32.5098   -0.7777   29.2483 C.3     1  UNL1        0.2780
     20 C         -32.2492   -0.8327   27.8592 C.2     1  UNL1        0.2913
     21 C         -31.0366   -1.2206   27.4758 C.2     1  UNL1        0.3815
     22 O         -30.2447   -1.1069   28.4332 O.2     1  UNL1       -0.4268
     23 O         -33.3393   -1.5965   27.1096 O.2     1  UNL1       -0.2804
     24 O         -32.3836    0.6555   29.6595 O.2     1  UNL1       -0.4640
     25 O         -30.9521   -2.2397   26.7771 O.2     1  UNL1       -0.2415
     26 O         -32.5784   -2.8236   30.1654 O.2     1  UNL1       -0.4669
     27 C         -33.3965    1.4770   29.9867 C.2     1  UNL1        0.1776
     28 C         -33.2973    2.4589   30.2791 C.2     1  UNL1        0.0994
     29 C         -31.9172    3.1425   30.4754 C.2     1  UNL1        0.2681
     30 N         -31.5116    4.2085   31.1513 N.am    1  UNL1       -0.1997
     31 C         -30.2652    4.5620   31.2757 C.3     1  UNL1        0.1388
     32 O         -30.9131    2.5696   29.9138 O.2     1  UNL1       -0.2683
     33 C         -32.9565   -3.3028   31.3749 C.2     1  UNL1        0.1679
     34 C         -33.1477   -4.6407   31.3498 C.2     1  UNL1        0.0142
     35 C         -33.4495   -5.1724   32.5601 C.3     1  UNL1        0.0341
@<TRIPOS>BOND
     1     1     2    1
     2     1     8    1
     3     8     9    1
     4     5    10    1
     5    10    11    2
     6    10    12    1
     7     9    13    1
     8    14    15    1
     9     8    16    1
    10    15    16    1
    11     9    17    1
    12    17    18    1
    13    18    19    1
    14    19    20    1
    15    20    21    2
    16    17    22    1
    17    21    22    1
    18    20    23    1
    19    19    24    1
    20    21    25    1
    21    18    26    1
    22    24    27    1
    23    27    28    2
    24    28    29    1
    25    29    30   am
    26    30    31    1
    27    29    32    2
    28    26    33    1
    29    33    34    2
    30    34    35    1
    31    14    13    1
    32     2     3   ar
    33     3     4   ar
    34     4     5   ar
    35     5     6   ar
    36     6     7   ar
    37     7     2   ar
