@<TRIPOS>MOLECULE
outputs/IAG933/test6/raw/output_9349_IAG933_linker_design_.xyz
 59 67 0 0 0
SMALL
GASTEIGER

@<TRIPOS>ATOM
      1 C         -24.8550   -1.0120   30.1430 C.3     1  UNL1        0.0606
      2 C         -24.9730   -2.5050   29.7880 C.2     1  UNL1       -0.0171
      3 C         -23.9060   -3.1730   29.1460 C.2     1  UNL1       -0.0039
      4 C         -23.9890   -4.5490   28.8530 C.2     1  UNL1       -0.0003
      5 C         -25.1370   -5.2800   29.2050 C.2     1  UNL1       -0.0000
      6 C         -26.2320   -4.6110   29.7840 C.2     1  UNL1       -0.0003
      7 C         -26.1550   -3.2320   30.0650 C.2     1  UNL1       -0.0039
      8 C         -25.3870   -0.6790   31.5710 C.3     1  UNL1        0.0808
      9 C         -25.1890    0.7730   32.0280 C.3     1  UNL1        0.0195
     10 C         -25.3360    0.6840   33.5440 C.3     1  UNL1        0.0203
     11 C         -24.8290   -0.7150   33.9050 C.3     1  UNL1        0.0887
     12 N         -24.7580   -1.4810   32.6460 N.3     1  UNL1       -0.2188
     13 C         -25.6880    1.6140   26.4610 C.2     1  UNL1        0.0518
     14 C         -26.2500    2.9200   26.3950 C.2     1  UNL1        0.0755
     15 C         -25.6420    4.0930   27.1230 C.2     1  UNL1        0.2219
     16 N         -25.6140    5.2520   26.4490 N.2     1  UNL1       -0.2357
     17 C         -25.0260    6.4790   26.9630 C.3     1  UNL1        0.1550
     18 O         -25.1430    3.9660   28.2430 O.2     1  UNL1       -0.4642
     19 C         -27.4380    3.0910   25.6450 C.2     1  UNL1        0.1068
     20 N         -28.0750    2.0890   25.0030 N.2     1  UNL1       -0.2081
     21 C         -27.5430    0.8490   25.0790 C.2     1  UNL1        0.2533
     22 O         -28.1930   -0.2080   24.4770 O.2     1  UNL1       -0.4558
     23 C         -29.4600    0.0050   23.8660 C.3     1  UNL1        0.2426
     24 C         -30.0650   -1.3770   23.5730 C.3     1  UNL1        0.2292
     25 O         -30.7290   -1.8780   24.7210 O.3     1  UNL1       -0.2162
     26 C         -26.3540    0.5760   25.7770 C.2     1  UNL1        0.1943
     27 F         -25.8600   -0.6810   25.7950 F       1  UNL1       -0.1992
     28 F         -21.0184    1.8783   27.0595 F       1  UNL1       -0.1875
     29 C         -29.4397    4.7857   30.9607 C.2     1  UNL1        0.0192
     30 C         -24.4851    5.7061   32.8336 C.3     1  UNL1        0.0272
     31 C         -24.8627    4.9184   30.3506 C.3     1  UNL1        0.0493
     32 C         -28.9578    1.0065   31.5376 C.2     1  UNL1        0.0437
     33 C         -25.8002    3.7993   29.5333 C.3     1  UNL1        0.1680
     34 C         -29.1577    3.6497   30.5622 C.2     1  UNL1        0.0047
     35 C         -24.5464    1.3141   27.2455 C.2     1  UNL1        0.0555
     36 N         -26.6068    6.5083   33.6944 N.pl3   1  UNL1       -0.3049
     37 C         -28.7835    5.5502   31.8492 C.2     1  UNL1        0.0819
     38 C         -24.9006    0.3887   28.2223 C.2     1  UNL1        0.0110
     39 C         -29.5584    4.0805   33.7476 C.2     1  UNL1        0.0403
     40 C         -22.1959    1.5322   27.6100 C.2     1  UNL1        0.1958
     41 C         -28.7811    5.3780   33.1609 C.2     1  UNL1        0.0352
     42 C         -29.0559    2.5269   31.6104 C.2     1  UNL1        0.0377
     43 C         -25.5367    3.7675   30.9817 C.3     1  UNL1        0.0475
     44 C         -25.8960    7.3806   35.8349 C.3     1  UNL1        0.0214
     45 C         -25.7052    6.0819   30.4307 C.3     1  UNL1        0.0467
     46 N         -27.9966    6.4053   31.2149 N.2     1  UNL1       -0.2523
     47 C         -25.5784    7.3279   34.2676 C.3     1  UNL1        0.0732
     48 C         -25.9406    6.0801   32.5265 C.3     1  UNL1        0.1089
     49 C         -24.2270   -0.0713   29.3019 C.2     1  UNL1       -0.0157
     50 C         -24.1725    6.7045   34.0064 C.3     1  UNL1        0.0218
     51 C         -22.9270    0.2945   29.6207 C.2     1  UNL1       -0.0002
     52 C         -23.1936    2.0438   25.4245 C.3     1  UNL1        0.1194
     53 C         -26.6499    6.1990   31.3360 C.2     1  UNL1        0.0548
     54 C         -29.6587    0.4749   32.7724 C.2     1  UNL1        0.1796
     55 C         -29.6671    2.7480   32.9206 C.2     1  UNL1        0.1455
     56 C         -22.0791    1.0139   28.8431 C.2     1  UNL1        0.0452
     57 O         -30.0332    1.5510   33.5810 O.2     1  UNL1       -0.4504
     58 C         -27.9855    6.2696   33.9697 C.2     1  UNL1        0.0631
     59 N         -23.3462    1.6813   26.8343 N.pl3   1  UNL1       -0.2626
@<TRIPOS>BOND
     1     1    49    1
     2     2     7    1
     3     2     1    1
     4     3     2    2
     5     4     3    1
     6     4     5    2
     7     5     6    1
     8     6     7    2
     9     8     1    1
    10     8     9    1
    11     8    12    1
    12     9    10    1
    13    10    11    1
    14    12    11    1
    15    13    35    1
    16    14    13    1
    17    14    15    1
    18    15    18    1
    19    16    17    1
    20    16    15    2
    21    19    14    2
    22    20    21    2
    23    20    19    1
    24    21    26    1
    25    22    21    1
    26    23    22    1
    27    24    23    1
    28    24    25    1
    29    26    27    1
    30    26    13    2
    31    28    40    1
    32    29    37    2
    33    30    50    1
    34    31    45    1
    35    31    43    1
    36    32    42    1
    37    32    54    2
    38    33    18    1
    39    33    31    1
    40    33    43    1
    41    34    29    1
    42    34    42    2
    43    35    38    2
    44    36    58    1
    45    36    47    1
    46    37    41    1
    47    38    49    1
    48    40    56    2
    49    41    39    1
    50    41    58    2
    51    42    55    1
    52    45    53    1
    53    46    53    2
    54    46    37    1
    55    47    44    1
    56    48    30    1
    57    48    36    1
    58    49    51    2
    59    50    47    1
    60    52    59    1
    61    53    48    1
    62    54    57    1
    63    55    57    1
    64    55    39    2
    65    56    51    1
    66    59    35    1
    67    59    40    1
