@<TRIPOS>MOLECULE
No_935-gen_results/8p0m/2024-11-27-11-27-31/
 19 19 0 0 0
SMALL
GASTEIGER

@<TRIPOS>ATOM
      1 C         -28.0162   -0.8135   28.8779 C.ar    1  UNL1        0.0219
      2 C         -28.4690   -0.7850   29.8287 C.ar    1  UNL1        0.1161
      3 C         -26.5455   -0.8762   28.8500 C.ar    1  UNL1        0.0686
      4 C         -25.8041   -1.0324   30.0571 C.ar    1  UNL1        0.0713
      5 C         -26.5373   -1.0386   31.2171 C.ar    1  UNL1        0.0510
      6 C         -27.8843   -0.9532   31.1862 C.ar    1  UNL1        0.1650
      7 CL        -24.1391   -1.1177   30.0459 Cl      1  UNL1       -0.0813
      8 C         -30.0611   -0.6430   29.7304 C.2     1  UNL1        0.3908
      9 O         -30.6183    0.2857   30.3982 O.co2   1  UNL1       -0.2404
     10 O         -30.6654   -1.4760   29.0815 O.co2   1  UNL1       -0.2404
     11 CL        -25.5485   -0.8126   27.3973 Cl      1  UNL1       -0.0814
     12 O         -28.6187   -1.0001   32.3071 O.3     1  UNL1       -0.4046
     13 C         -28.1716   -0.3357   33.3413 C.1     1  UNL1        0.1225
     14 C         -27.6893    0.8035   33.3886 C.1     1  UNL1       -0.0213
     15 C         -28.5501    1.8298   33.6820 C.2     1  UNL1        0.0526
     16 C         -28.8384    2.6411   33.0048 C.2     1  UNL1        0.0086
     17 C         -27.9325    3.1191   31.9182 C.2     1  UNL1       -0.0039
     18 C         -26.7123    2.3804   31.8654 C.2     1  UNL1       -0.0258
     19 C         -25.6436    2.7725   30.9644 C.3     1  UNL1        0.0307
@<TRIPOS>BOND
     1     4     7    1
     2     2     8    1
     3     8     9   ar
     4     8    10   ar
     5     3    11    1
     6     6    12    1
     7    12    13    1
     8    13    14    3
     9    14    15    1
    10    15    16    2
    11    16    17    1
    12    17    18    2
    13    18    19    1
    14     1     2   ar
    15     2     6   ar
    16     6     5   ar
    17     5     4   ar
    18     4     3   ar
    19     3     1   ar
