@<TRIPOS>MOLECULE
outputs/IAG933/test6/raw/output_9351_IAG933_linker_design_.xyz
 40 43 0 0 0
SMALL
GASTEIGER

@<TRIPOS>ATOM
      1 C         -24.8550   -1.0120   30.1430 C.3     1  UNL1        0.0533
      2 C         -24.9730   -2.5050   29.7880 C.2     1  UNL1       -0.0203
      3 C         -23.9060   -3.1730   29.1460 C.2     1  UNL1       -0.0042
      4 C         -23.9890   -4.5490   28.8530 C.2     1  UNL1       -0.0003
      5 C         -25.1370   -5.2800   29.2050 C.2     1  UNL1       -0.0000
      6 C         -26.2320   -4.6110   29.7840 C.2     1  UNL1       -0.0003
      7 C         -26.1550   -3.2320   30.0650 C.2     1  UNL1       -0.0042
      8 C         -25.3870   -0.6790   31.5710 C.3     1  UNL1        0.0777
      9 C         -25.1890    0.7730   32.0280 C.3     1  UNL1        0.0192
     10 C         -25.3360    0.6840   33.5440 C.3     1  UNL1        0.0202
     11 C         -24.8290   -0.7150   33.9050 C.3     1  UNL1        0.0887
     12 N         -24.7580   -1.4810   32.6460 N.3     1  UNL1       -0.2191
     13 C         -25.6880    1.6140   26.4610 C.2     1  UNL1        0.1085
     14 C         -26.2500    2.9200   26.3950 C.2     1  UNL1        0.0918
     15 C         -25.6420    4.0930   27.1230 C.2     1  UNL1        0.2677
     16 N         -25.6140    5.2520   26.4490 N.am    1  UNL1       -0.1997
     17 C         -25.0260    6.4790   26.9630 C.3     1  UNL1        0.1388
     18 O         -25.1430    3.9660   28.2430 O.2     1  UNL1       -0.2683
     19 C         -27.4380    3.0910   25.6450 C.2     1  UNL1        0.1080
     20 N         -28.0750    2.0890   25.0030 N.2     1  UNL1       -0.2080
     21 C         -27.5430    0.8490   25.0790 C.2     1  UNL1        0.2546
     22 O         -28.1930   -0.2080   24.4770 O.2     1  UNL1       -0.4558
     23 C         -29.4600    0.0050   23.8660 C.3     1  UNL1        0.2426
     24 C         -30.0650   -1.3770   23.5730 C.3     1  UNL1        0.2292
     25 O         -30.7290   -1.8780   24.7210 O.3     1  UNL1       -0.2162
     26 C         -26.3540    0.5760   25.7770 C.2     1  UNL1        0.2082
     27 F         -25.8600   -0.6810   25.7950 F       1  UNL1       -0.1978
     28 O         -27.5437   -0.8959   28.6730 O.co2   1  UNL1       -0.2453
     29 O         -23.1905    2.3470   25.2315 O.2     1  UNL1       -0.2852
     30 O         -27.1983    1.1842   29.2980 O.co2   1  UNL1       -0.2453
     31 C         -21.3788    1.0483   28.1132 C.2     1  UNL1        0.0327
     32 C         -23.7919    0.5536   28.3203 C.2     1  UNL1        0.0345
     33 C         -26.8323    0.0652   28.9469 C.2     1  UNL1        0.3688
     34 F         -22.1778   -0.2724   29.8660 F       1  UNL1       -0.2044
     35 C         -22.9380    1.7302   26.4753 C.2     1  UNL1        0.2106
     36 C         -23.8515    1.2056   27.2908 C.2     1  UNL1        0.1080
     37 C         -21.6009    1.7119   26.8942 C.2     1  UNL1        0.0457
     38 N         -24.5377    1.4271   26.9676 N.pl3   1  UNL1       -0.2069
     39 C         -22.4460    0.4516   28.7977 C.2     1  UNL1        0.1381
     40 C         -25.1921   -0.0761   28.8622 C.3     1  UNL1        0.1344
@<TRIPOS>BOND
     1     1    40    1
     2     2     7    1
     3     2     1    1
     4     3     2    2
     5     4     3    1
     6     4     5    2
     7     5     6    1
     8     6     7    2
     9     8     1    1
    10     8     9    1
    11     8    12    1
    12     9    10    1
    13    10    11    1
    14    12    11    1
    15    13    38    1
    16    14    13    1
    17    14    15    1
    18    15    18    2
    19    16    17    1
    20    16    15    1
    21    19    14    2
    22    20    21    2
    23    20    19    1
    24    21    26    1
    25    22    21    1
    26    23    22    1
    27    24    23    1
    28    24    25    1
    29    26    27    1
    30    26    13    2
    31    28    33   ar
    32    29    35    1
    33    31    39    1
    34    32    39    2
    35    32    40    1
    36    33    30   ar
    37    35    37    1
    38    35    36    2
    39    36    32    1
    40    37    31    2
    41    38    36    1
    42    39    34    1
    43    40    33    1
