@<TRIPOS>MOLECULE
outputs/IAG933/test6/raw/output_9352_IAG933_linker_design_.xyz
 42 45 0 0 0
SMALL
GASTEIGER

@<TRIPOS>ATOM
      1 C         -24.8550   -1.0120   30.1430 C.3     1  UNL1        0.0585
      2 C         -24.9730   -2.5050   29.7880 C.2     1  UNL1       -0.0195
      3 C         -23.9060   -3.1730   29.1460 C.2     1  UNL1       -0.0042
      4 C         -23.9890   -4.5490   28.8530 C.2     1  UNL1       -0.0003
      5 C         -25.1370   -5.2800   29.2050 C.2     1  UNL1       -0.0000
      6 C         -26.2320   -4.6110   29.7840 C.2     1  UNL1       -0.0003
      7 C         -26.1550   -3.2320   30.0650 C.2     1  UNL1       -0.0042
      8 C         -25.3870   -0.6790   31.5710 C.3     1  UNL1        0.0785
      9 C         -25.1890    0.7730   32.0280 C.3     1  UNL1        0.0192
     10 C         -25.3360    0.6840   33.5440 C.3     1  UNL1        0.0202
     11 C         -24.8290   -0.7150   33.9050 C.3     1  UNL1        0.0887
     12 N         -24.7580   -1.4810   32.6460 N.3     1  UNL1       -0.2191
     13 C         -25.6880    1.6140   26.4610 C.2     1  UNL1        0.1085
     14 C         -26.2500    2.9200   26.3950 C.2     1  UNL1        0.0918
     15 C         -25.6420    4.0930   27.1230 C.2     1  UNL1        0.2677
     16 N         -25.6140    5.2520   26.4490 N.am    1  UNL1       -0.1997
     17 C         -25.0260    6.4790   26.9630 C.3     1  UNL1        0.1388
     18 O         -25.1430    3.9660   28.2430 O.2     1  UNL1       -0.2683
     19 C         -27.4380    3.0910   25.6450 C.2     1  UNL1        0.1080
     20 N         -28.0750    2.0890   25.0030 N.2     1  UNL1       -0.2080
     21 C         -27.5430    0.8490   25.0790 C.2     1  UNL1        0.2546
     22 O         -28.1930   -0.2080   24.4770 O.2     1  UNL1       -0.4558
     23 C         -29.4600    0.0050   23.8660 C.3     1  UNL1        0.2426
     24 C         -30.0650   -1.3770   23.5730 C.3     1  UNL1        0.2292
     25 O         -30.7290   -1.8780   24.7210 O.3     1  UNL1       -0.2162
     26 C         -26.3540    0.5760   25.7770 C.2     1  UNL1        0.2082
     27 F         -25.8600   -0.6810   25.7950 F       1  UNL1       -0.1978
     28 C         -27.4991    4.4356   31.1526 C.3     1  UNL1        0.2556
     29 N         -26.0860    0.7310   29.0937 N.3     1  UNL1       -0.2033
     30 C         -24.9220   -0.0959   28.9328 C.3     1  UNL1        0.1022
     31 C         -21.1657    1.3821   27.5960 C.2     1  UNL1        0.0310
     32 C         -23.5332    1.2832   27.4995 C.2     1  UNL1        0.0952
     33 C         -27.6978    2.2603   29.9519 C.2     1  UNL1        0.3351
     34 O         -28.5557    1.3945   29.8777 O.2     1  UNL1       -0.2485
     35 F         -22.4359    2.4278   25.8272 F       1  UNL1       -0.2028
     36 C         -21.1945    0.6469   28.7692 C.2     1  UNL1        0.0021
     37 C         -22.3639    1.7324   26.9686 C.2     1  UNL1        0.1550
     38 C         -26.2982    2.0446   29.6313 C.3     1  UNL1        0.1986
     39 C         -22.4385    0.2357   29.3364 C.2     1  UNL1       -0.0015
     40 N         -24.5457    1.3080   26.8766 N.pl3   1  UNL1       -0.2079
     41 C         -23.6136    0.5329   28.6327 C.2     1  UNL1        0.0114
     42 O         -28.1284    3.5192   30.3983 O.3     1  UNL1       -0.4434
@<TRIPOS>BOND
     1     1    30    1
     2     2     7    1
     3     2     1    1
     4     3     2    2
     5     4     3    1
     6     4     5    2
     7     5     6    1
     8     6     7    2
     9     8     1    1
    10     8     9    1
    11     8    12    1
    12     9    10    1
    13    10    11    1
    14    12    11    1
    15    13    40    1
    16    14    13    1
    17    14    15    1
    18    15    18    2
    19    16    17    1
    20    16    15    1
    21    19    14    2
    22    20    21    2
    23    20    19    1
    24    21    26    1
    25    22    21    1
    26    23    22    1
    27    24    23    1
    28    24    25    1
    29    26    27    1
    30    26    13    2
    31    29    38    1
    32    30    29    1
    33    31    36    1
    34    32    41    2
    35    33    42    1
    36    34    33    2
    37    35    37    1
    38    36    39    2
    39    37    32    1
    40    37    31    2
    41    38    33    1
    42    40    32    1
    43    41    30    1
    44    41    39    1
    45    42    28    1
