@<TRIPOS>MOLECULE
outputs/IAG933/test6/raw/output_9353_IAG933_linker_design_.xyz
 46 51 0 0 0
SMALL
GASTEIGER

@<TRIPOS>ATOM
      1 C         -24.8550   -1.0120   30.1430 C.3     1  UNL1        0.1188
      2 C         -24.9730   -2.5050   29.7880 C.2     1  UNL1       -0.0028
      3 C         -23.9060   -3.1730   29.1460 C.2     1  UNL1       -0.0026
      4 C         -23.9890   -4.5490   28.8530 C.2     1  UNL1       -0.0003
      5 C         -25.1370   -5.2800   29.2050 C.2     1  UNL1       -0.0000
      6 C         -26.2320   -4.6110   29.7840 C.2     1  UNL1       -0.0003
      7 C         -26.1550   -3.2320   30.0650 C.2     1  UNL1       -0.0026
      8 C         -25.3870   -0.6790   31.5710 C.3     1  UNL1        0.0953
      9 C         -25.1890    0.7730   32.0280 C.3     1  UNL1        0.0209
     10 C         -25.3360    0.6840   33.5440 C.3     1  UNL1        0.0203
     11 C         -24.8290   -0.7150   33.9050 C.3     1  UNL1        0.0888
     12 N         -24.7580   -1.4810   32.6460 N.3     1  UNL1       -0.2174
     13 C         -25.6880    1.6140   26.4610 C.3     1  UNL1        0.1474
     14 C         -26.2500    2.9200   26.3950 C.2     1  UNL1        0.0732
     15 C         -25.6420    4.0930   27.1230 C.2     1  UNL1        0.2640
     16 N         -25.6140    5.2520   26.4490 N.am    1  UNL1       -0.1999
     17 C         -25.0260    6.4790   26.9630 C.3     1  UNL1        0.1388
     18 O         -25.1430    3.9660   28.2430 O.2     1  UNL1       -0.2686
     19 C         -27.4380    3.0910   25.6450 C.2     1  UNL1        0.1038
     20 N         -28.0750    2.0890   25.0030 N.2     1  UNL1       -0.2118
     21 C         -27.5430    0.8490   25.0790 C.2     1  UNL1        0.2358
     22 O         -28.1930   -0.2080   24.4770 O.2     1  UNL1       -0.4585
     23 C         -29.4600    0.0050   23.8660 C.3     1  UNL1        0.2423
     24 C         -30.0650   -1.3770   23.5730 C.3     1  UNL1        0.2292
     25 O         -30.7290   -1.8780   24.7210 O.3     1  UNL1       -0.2162
     26 C         -26.3540    0.5760   25.7770 C.3     1  UNL1        0.2582
     27 F         -25.8600   -0.6810   25.7950 F       1  UNL1       -0.2251
     28 C         -22.9039    2.3282   26.0439 C.3     1  UNL1        0.1834
     29 C         -29.0418    1.1325   29.1455 C.2     1  UNL1        0.2111
     30 O         -22.1801   -0.2288   29.8349 O.2     1  UNL1       -0.2700
     31 C         -27.7441    1.5750   29.2398 C.2     1  UNL1        0.1770
     32 C         -27.2678    2.5720   30.1222 C.2     1  UNL1        0.0400
     33 C         -23.0766    0.1935   29.0623 C.2     1  UNL1        0.2523
     34 C         -23.5727    1.4834   27.0938 C.2     1  UNL1        0.0620
     35 C         -30.2028    1.7622   29.7300 C.3     1  UNL1        0.0984
     36 N         -24.8963    1.1911   27.3651 N.pl3   1  UNL1       -0.2544
     37 O         -29.2391   -0.0079   28.4987 O.2     1  UNL1       -0.2878
     38 C         -22.5875    1.0121   27.8755 C.2     1  UNL1        0.0727
     39 O         -21.5693    2.1475   26.2139 O.3     1  UNL1       -0.3427
     40 C         -27.8792    3.1460   31.2582 C.2     1  UNL1        0.0029
     41 N         -24.4551   -0.0287   29.1960 N.am    1  UNL1       -0.2230
     42 C         -29.2458    3.2417   31.5378 C.2     1  UNL1       -0.0040
     43 O         -26.7833    0.5562   28.7249 O.2     1  UNL1       -0.4414
     44 C         -21.3915    1.5015   27.4600 C.3     1  UNL1        0.1746
     45 C         -25.3859    0.5948   28.4179 C.3     1  UNL1        0.3362
     46 C         -30.2923    2.7349   30.7380 C.2     1  UNL1       -0.0179
@<TRIPOS>BOND
     1     1     2    1
     2     2     7    1
     3     3     2    2
     4     4     3    1
     5     4     5    2
     6     5     6    1
     7     6     7    2
     8     8     1    1
     9     8     9    1
    10     8    12    1
    11     9    10    1
    12    10    11    1
    13    12    11    1
    14    13    36    1
    15    14    13    1
    16    14    15    1
    17    15    18    2
    18    16    17    1
    19    16    15    1
    20    19    14    2
    21    20    21    2
    22    20    19    1
    23    21    26    1
    24    22    21    1
    25    23    22    1
    26    24    23    1
    27    24    25    1
    28    26    27    1
    29    26    13    1
    30    28    39    1
    31    28    34    1
    32    29    31    2
    33    29    35    1
    34    31    32    1
    35    32    40    2
    36    33    41   am
    37    33    30    2
    38    34    36    1
    39    34    38    2
    40    35    46    1
    41    36    45    1
    42    37    29    1
    43    38    33    1
    44    39    44    1
    45    40    42    1
    46    41     1    1
    47    43    31    1
    48    44    38    1
    49    45    43    1
    50    45    41    1
    51    46    42    2
