@<TRIPOS>MOLECULE
outputs/IAG933/test6/raw/output_9355_IAG933_linker_design_.xyz
 42 45 0 0 0
SMALL
GASTEIGER

@<TRIPOS>ATOM
      1 C         -24.8550   -1.0120   30.1430 C.3     1  UNL1        0.1523
      2 C         -24.9730   -2.5050   29.7880 C.2     1  UNL1       -0.0094
      3 C         -23.9060   -3.1730   29.1460 C.2     1  UNL1       -0.0037
      4 C         -23.9890   -4.5490   28.8530 C.2     1  UNL1       -0.0003
      5 C         -25.1370   -5.2800   29.2050 C.2     1  UNL1       -0.0000
      6 C         -26.2320   -4.6110   29.7840 C.2     1  UNL1       -0.0003
      7 C         -26.1550   -3.2320   30.0650 C.2     1  UNL1       -0.0037
      8 C         -25.3870   -0.6790   31.5710 C.3     1  UNL1        0.0887
      9 C         -25.1890    0.7730   32.0280 C.3     1  UNL1        0.0198
     10 C         -25.3360    0.6840   33.5440 C.3     1  UNL1        0.0203
     11 C         -24.8290   -0.7150   33.9050 C.3     1  UNL1        0.0887
     12 N         -24.7580   -1.4810   32.6460 N.3     1  UNL1       -0.2185
     13 C         -25.6880    1.6140   26.4610 C.3     1  UNL1        0.0958
     14 C         -26.2500    2.9200   26.3950 C.2     1  UNL1        0.0590
     15 C         -25.6420    4.0930   27.1230 C.2     1  UNL1        0.2628
     16 N         -25.6140    5.2520   26.4490 N.am    1  UNL1       -0.2000
     17 C         -25.0260    6.4790   26.9630 C.3     1  UNL1        0.1388
     18 O         -25.1430    3.9660   28.2430 O.2     1  UNL1       -0.2686
     19 C         -27.4380    3.0910   25.6450 C.2     1  UNL1        0.1025
     20 N         -28.0750    2.0890   25.0030 N.2     1  UNL1       -0.2118
     21 C         -27.5430    0.8490   25.0790 C.2     1  UNL1        0.2344
     22 O         -28.1930   -0.2080   24.4770 O.2     1  UNL1       -0.4585
     23 C         -29.4600    0.0050   23.8660 C.3     1  UNL1        0.2423
     24 C         -30.0650   -1.3770   23.5730 C.3     1  UNL1        0.2292
     25 O         -30.7290   -1.8780   24.7210 O.3     1  UNL1       -0.2162
     26 C         -26.3540    0.5760   25.7770 C.3     1  UNL1        0.2441
     27 F         -25.8600   -0.6810   25.7950 F       1  UNL1       -0.2265
     28 N         -21.6006    0.4629   29.1825 N.pl3   1  UNL1       -0.1244
     29 C         -25.2364   -0.1232   28.9819 C.2     1  UNL1        0.3948
     30 C         -23.5599    1.1846   27.9062 C.2     1  UNL1        0.1961
     31 C         -23.3648    2.1175   25.6786 C.2     1  UNL1       -0.0003
     32 C         -24.2081    1.6291   26.7152 C.2     1  UNL1        0.0273
     33 O         -29.8865    0.5781   29.9391 O.3     1  UNL1       -0.2713
     34 O         -29.2634   -1.7652   29.6256 O.3     1  UNL1       -0.2713
     35 N         -24.2210    0.8709   29.0344 N.pl3   1  UNL1       -0.0049
     36 C         -21.9554    2.0893   25.8122 C.2     1  UNL1        0.0013
     37 O         -27.4805   -0.0796   29.5803 O.2     1  UNL1       -0.1585
     38 C         -21.3284    1.5343   26.9548 C.2     1  UNL1        0.0217
     39 O         -29.1827   -0.0852   27.7683 O.3     1  UNL1       -0.2713
     40 N         -26.5521    0.0779   28.6448 N.2     1  UNL1        0.1791
     41 C         -22.1381    1.0641   28.0058 C.2     1  UNL1        0.1295
     42 S         -28.9187   -0.3144   29.2315 S.3     1  UNL1        0.0012
@<TRIPOS>BOND
     1     1    29    1
     2     2     7    1
     3     2     1    1
     4     3     2    2
     5     4     3    1
     6     4     5    2
     7     5     6    1
     8     6     7    2
     9     8     1    1
    10     8     9    1
    11     8    12    1
    12     9    10    1
    13    10    11    1
    14    12    11    1
    15    13    32    1
    16    14    13    1
    17    14    15    1
    18    15    18    2
    19    16    17    1
    20    16    15    1
    21    19    14    2
    22    20    21    2
    23    20    19    1
    24    21    26    1
    25    22    21    1
    26    23    22    1
    27    24    23    1
    28    24    25    1
    29    26    27    1
    30    26    13    1
    31    29    35    1
    32    30    41    1
    33    30    35    1
    34    31    36    2
    35    31    32    1
    36    32    30    2
    37    36    38    1
    38    38    41    2
    39    39    42    1
    40    40    29    2
    41    40    37    1
    42    41    28    1
    43    42    37    1
    44    42    34    1
    45    42    33    1
