@<TRIPOS>MOLECULE
outputs/IAG933/test6/raw/output_9361_IAG933_linker_design_.xyz
 41 45 0 0 0
SMALL
GASTEIGER

@<TRIPOS>ATOM
      1 C         -24.8550   -1.0120   30.1430 C.3     1  UNL1        0.0775
      2 C         -24.9730   -2.5050   29.7880 C.2     1  UNL1       -0.0178
      3 C         -23.9060   -3.1730   29.1460 C.2     1  UNL1       -0.0041
      4 C         -23.9890   -4.5490   28.8530 C.2     1  UNL1       -0.0003
      5 C         -25.1370   -5.2800   29.2050 C.2     1  UNL1       -0.0000
      6 C         -26.2320   -4.6110   29.7840 C.2     1  UNL1       -0.0003
      7 C         -26.1550   -3.2320   30.0650 C.2     1  UNL1       -0.0041
      8 C         -25.3870   -0.6790   31.5710 C.3     1  UNL1        0.0802
      9 C         -25.1890    0.7730   32.0280 C.3     1  UNL1        0.0193
     10 C         -25.3360    0.6840   33.5440 C.3     1  UNL1        0.0202
     11 C         -24.8290   -0.7150   33.9050 C.3     1  UNL1        0.0887
     12 N         -24.7580   -1.4810   32.6460 N.3     1  UNL1       -0.2190
     13 C         -25.6880    1.6140   26.4610 C.2     1  UNL1        0.0517
     14 C         -26.2500    2.9200   26.3950 C.2     1  UNL1        0.0777
     15 C         -25.6420    4.0930   27.1230 C.2     1  UNL1        0.2665
     16 N         -25.6140    5.2520   26.4490 N.am    1  UNL1       -0.1997
     17 C         -25.0260    6.4790   26.9630 C.3     1  UNL1        0.1388
     18 O         -25.1430    3.9660   28.2430 O.2     1  UNL1       -0.2683
     19 C         -27.4380    3.0910   25.6450 C.2     1  UNL1        0.1068
     20 N         -28.0750    2.0890   25.0030 N.2     1  UNL1       -0.2081
     21 C         -27.5430    0.8490   25.0790 C.2     1  UNL1        0.2533
     22 O         -28.1930   -0.2080   24.4770 O.2     1  UNL1       -0.4558
     23 C         -29.4600    0.0050   23.8660 C.3     1  UNL1        0.2426
     24 C         -30.0650   -1.3770   23.5730 C.3     1  UNL1        0.2292
     25 O         -30.7290   -1.8780   24.7210 O.3     1  UNL1       -0.2162
     26 C         -26.3540    0.5760   25.7770 C.2     1  UNL1        0.1942
     27 F         -25.8600   -0.6810   25.7950 F       1  UNL1       -0.1992
     28 C         -29.3570    0.9394   30.2711 C.2     1  UNL1        0.0434
     29 C         -27.7833    2.7636   30.6536 C.2     1  UNL1        0.0015
     30 N         -23.9271    0.6815   28.0102 N.pl3   1  UNL1       -0.2694
     31 C         -27.1125    0.7862   29.3920 C.2     1  UNL1        0.1059
     32 C         -23.2085    1.9771   26.2642 C.2     1  UNL1        0.0163
     33 O         -28.5996   -1.0752   29.0954 O.2     1  UNL1       -0.2852
     34 C         -21.9989    1.6854   27.1664 C.2     1  UNL1        0.0174
     35 C         -24.3559    1.3180   26.9834 C.2     1  UNL1        0.0554
     36 C         -29.0505    2.2076   30.8355 C.2     1  UNL1        0.0034
     37 N         -26.2540    0.0773   28.6572 N.pl3   1  UNL1       -0.2153
     38 C         -26.8407    2.0228   29.9455 C.2     1  UNL1        0.0194
     39 C         -28.3834    0.1972   29.5756 C.2     1  UNL1        0.2104
     40 C         -24.8467   -0.1952   28.8516 C.3     1  UNL1        0.1763
     41 C         -22.4954    0.9121   28.3500 C.2     1  UNL1        0.0666
@<TRIPOS>BOND
     1     1    40    1
     2     2     7    1
     3     2     1    1
     4     3     2    2
     5     4     3    1
     6     4     5    2
     7     5     6    1
     8     6     7    2
     9     8     1    1
    10     8     9    1
    11     8    12    1
    12     9    10    1
    13    10    11    1
    14    12    11    1
    15    13    35    1
    16    14    13    1
    17    14    15    1
    18    15    18    2
    19    16    17    1
    20    16    15    1
    21    19    14    2
    22    20    21    2
    23    20    19    1
    24    21    26    1
    25    22    21    1
    26    23    22    1
    27    24    23    1
    28    24    25    1
    29    26    27    1
    30    26    13    2
    31    28    36    1
    32    29    36    2
    33    30    41    1
    34    30    40    1
    35    31    39    1
    36    31    38    2
    37    32    35    2
    38    32    34    1
    39    33    39    1
    40    34    41    2
    41    35    30    1
    42    37    31    1
    43    38    29    1
    44    39    28    2
    45    40    37    1
