@<TRIPOS>MOLECULE
outputs/IAG933/test6/raw/output_9370_IAG933_linker_design_.xyz
 41 44 0 0 0
SMALL
GASTEIGER

@<TRIPOS>ATOM
      1 C         -24.8550   -1.0120   30.1430 C.3     1  UNL1        0.1118
      2 C         -24.9730   -2.5050   29.7880 C.2     1  UNL1       -0.0030
      3 C         -23.9060   -3.1730   29.1460 C.2     1  UNL1       -0.0026
      4 C         -23.9890   -4.5490   28.8530 C.2     1  UNL1       -0.0003
      5 C         -25.1370   -5.2800   29.2050 C.2     1  UNL1       -0.0000
      6 C         -26.2320   -4.6110   29.7840 C.2     1  UNL1       -0.0003
      7 C         -26.1550   -3.2320   30.0650 C.2     1  UNL1       -0.0026
      8 C         -25.3870   -0.6790   31.5710 C.3     1  UNL1        0.0950
      9 C         -25.1890    0.7730   32.0280 C.3     1  UNL1        0.0209
     10 C         -25.3360    0.6840   33.5440 C.3     1  UNL1        0.0203
     11 C         -24.8290   -0.7150   33.9050 C.3     1  UNL1        0.0888
     12 N         -24.7580   -1.4810   32.6460 N.3     1  UNL1       -0.2174
     13 C         -25.6880    1.6140   26.4610 C.3     1  UNL1        0.0945
     14 C         -26.2500    2.9200   26.3950 C.2     1  UNL1        0.0590
     15 C         -25.6420    4.0930   27.1230 C.2     1  UNL1        0.2628
     16 N         -25.6140    5.2520   26.4490 N.am    1  UNL1       -0.2000
     17 C         -25.0260    6.4790   26.9630 C.3     1  UNL1        0.1388
     18 O         -25.1430    3.9660   28.2430 O.2     1  UNL1       -0.2686
     19 C         -27.4380    3.0910   25.6450 C.2     1  UNL1        0.1025
     20 N         -28.0750    2.0890   25.0030 N.2     1  UNL1       -0.2118
     21 C         -27.5430    0.8490   25.0790 C.2     1  UNL1        0.2344
     22 O         -28.1930   -0.2080   24.4770 O.2     1  UNL1       -0.4585
     23 C         -29.4600    0.0050   23.8660 C.3     1  UNL1        0.2423
     24 C         -30.0650   -1.3770   23.5730 C.3     1  UNL1        0.2292
     25 O         -30.7290   -1.8780   24.7210 O.3     1  UNL1       -0.2162
     26 C         -26.3540    0.5760   25.7770 C.3     1  UNL1        0.2441
     27 F         -25.8600   -0.6810   25.7950 F       1  UNL1       -0.2265
     28 C         -23.0695    1.7654   26.0832 C.2     1  UNL1        0.0555
     29 C         -29.2883   -1.1550   29.6066 C.3     1  UNL1        0.2557
     30 O         -28.0061   -0.7555   29.1355 O.3     1  UNL1       -0.4432
     31 C         -24.2852    1.3437   26.8719 C.2     1  UNL1        0.0120
     32 C         -26.1227    0.8385   29.1286 C.3     1  UNL1        0.2022
     33 O         -28.1621    1.1833   30.1272 O.2     1  UNL1       -0.2482
     34 O         -23.0266    1.4904   30.1870 O.2     1  UNL1       -0.2853
     35 CL        -23.0812    1.9155   24.3212 Cl      1  UNL1       -0.0825
     36 N         -24.9326   -0.0222   28.9507 N.pl3   1  UNL1       -0.2924
     37 C         -21.8579    1.9796   26.7468 C.2     1  UNL1        0.0145
     38 C         -24.0496    0.8536   28.2284 C.2     1  UNL1        0.0851
     39 C         -22.9532    1.3916   28.8665 C.2     1  UNL1        0.2086
     40 C         -21.7776    1.7800   28.1786 C.2     1  UNL1        0.0442
     41 C         -27.5306    0.5276   29.4487 C.2     1  UNL1        0.3376
@<TRIPOS>BOND
     1     1    36    1
     2     2     7    1
     3     2     1    1
     4     3     2    2
     5     4     3    1
     6     4     5    2
     7     5     6    1
     8     6     7    2
     9     8     1    1
    10     8     9    1
    11     8    12    1
    12     9    10    1
    13    10    11    1
    14    12    11    1
    15    13    31    1
    16    14    13    1
    17    14    15    1
    18    15    18    2
    19    16    17    1
    20    16    15    1
    21    19    14    2
    22    20    21    2
    23    20    19    1
    24    21    26    1
    25    22    21    1
    26    23    22    1
    27    24    23    1
    28    24    25    1
    29    26    27    1
    30    26    13    1
    31    28    37    2
    32    28    31    1
    33    30    41    1
    34    30    29    1
    35    31    38    2
    36    32    41    1
    37    35    28    1
    38    36    32    1
    39    37    40    1
    40    38    39    1
    41    38    36    1
    42    39    34    1
    43    40    39    2
    44    41    33    2
