@<TRIPOS>MOLECULE
outputs/IAG933/test6/raw/output_9373_IAG933_linker_design_.xyz
 46 49 0 0 0
SMALL
GASTEIGER

@<TRIPOS>ATOM
      1 C         -24.8550   -1.0120   30.1430 C.3     1  UNL1        0.1168
      2 C         -24.9730   -2.5050   29.7880 C.2     1  UNL1       -0.0028
      3 C         -23.9060   -3.1730   29.1460 C.2     1  UNL1       -0.0026
      4 C         -23.9890   -4.5490   28.8530 C.2     1  UNL1       -0.0003
      5 C         -25.1370   -5.2800   29.2050 C.2     1  UNL1       -0.0000
      6 C         -26.2320   -4.6110   29.7840 C.2     1  UNL1       -0.0003
      7 C         -26.1550   -3.2320   30.0650 C.2     1  UNL1       -0.0026
      8 C         -25.3870   -0.6790   31.5710 C.3     1  UNL1        0.0952
      9 C         -25.1890    0.7730   32.0280 C.3     1  UNL1        0.0209
     10 C         -25.3360    0.6840   33.5440 C.3     1  UNL1        0.0203
     11 C         -24.8290   -0.7150   33.9050 C.3     1  UNL1        0.0888
     12 N         -24.7580   -1.4810   32.6460 N.3     1  UNL1       -0.2174
     13 C         -25.6880    1.6140   26.4610 C.2     1  UNL1        0.0874
     14 C         -26.2500    2.9200   26.3950 C.2     1  UNL1        0.0899
     15 C         -25.6420    4.0930   27.1230 C.2     1  UNL1        0.2676
     16 N         -25.6140    5.2520   26.4490 N.am    1  UNL1       -0.1997
     17 C         -25.0260    6.4790   26.9630 C.3     1  UNL1        0.1388
     18 O         -25.1430    3.9660   28.2430 O.2     1  UNL1       -0.2683
     19 C         -27.4380    3.0910   25.6450 C.2     1  UNL1        0.1080
     20 N         -28.0750    2.0890   25.0030 N.2     1  UNL1       -0.2080
     21 C         -27.5430    0.8490   25.0790 C.2     1  UNL1        0.2546
     22 O         -28.1930   -0.2080   24.4770 O.2     1  UNL1       -0.4558
     23 C         -29.4600    0.0050   23.8660 C.3     1  UNL1        0.2426
     24 C         -30.0650   -1.3770   23.5730 C.3     1  UNL1        0.2292
     25 O         -30.7290   -1.8780   24.7210 O.3     1  UNL1       -0.2162
     26 C         -26.3540    0.5760   25.7770 C.2     1  UNL1        0.2063
     27 F         -25.8600   -0.6810   25.7950 F       1  UNL1       -0.1979
     28 C         -24.7011    0.9640   28.6121 C.3     1  UNL1        0.1922
     29 C         -22.3084    1.8337   27.6517 C.3     1  UNL1        0.0198
     30 C         -28.8527    3.3076   29.6325 C.3     1  UNL1        0.0321
     31 C         -31.5804    2.1895   26.5906 C.3     1  UNL1        0.1172
     32 C         -26.9856   -0.1345   29.0521 C.2     1  UNL1        0.3250
     33 C         -31.7635    4.4342   25.6072 C.3     1  UNL1        0.1125
     34 C         -20.8886    1.7595   27.1090 C.3     1  UNL1        0.0018
     35 C         -30.2712    1.7176   28.6803 C.2     1  UNL1       -0.0058
     36 C         -30.4004    3.9791   27.7118 C.2     1  UNL1        0.0570
     37 N         -31.2261    3.5304   26.6764 N.pl3   1  UNL1       -0.3011
     38 C         -23.0775    2.2052   25.3088 C.3     1  UNL1        0.0215
     39 O         -27.5453   -1.0354   29.2825 O.2     1  UNL1       -0.2507
     40 N         -25.4920   -0.1350   29.1381 N.am    1  UNL1       -0.2416
     41 N         -24.6238    1.3276   27.1635 N.pl3   1  UNL1       -0.2902
     42 C         -29.9389    3.0416   28.6780 C.2     1  UNL1       -0.0099
     43 C         -23.2975    1.3836   26.5747 C.3     1  UNL1        0.0744
     44 N         -27.9472    0.9666   28.9596 N.am    1  UNL1       -0.1836
     45 C         -31.1405    1.2744   27.5871 C.2     1  UNL1       -0.0076
     46 C         -29.3192    0.9313   29.6318 C.3     1  UNL1        0.1426
@<TRIPOS>BOND
     1     1    40    1
     2     2     7    1
     3     2     1    1
     4     3     2    2
     5     4     3    1
     6     4     5    2
     7     5     6    1
     8     6     7    2
     9     8     1    1
    10     8     9    1
    11     8    12    1
    12     9    10    1
    13    10    11    1
    14    12    11    1
    15    13    41    1
    16    14    13    1
    17    14    15    1
    18    15    18    2
    19    16    17    1
    20    16    15    1
    21    19    14    2
    22    20    21    2
    23    20    19    1
    24    21    26    1
    25    22    21    1
    26    23    22    1
    27    24    23    1
    28    24    25    1
    29    26    27    1
    30    26    13    2
    31    28    40    1
    32    31    37    1
    33    31    45    1
    34    32    40   am
    35    32    39    2
    36    33    37    1
    37    34    29    1
    38    35    46    1
    39    36    42    2
    40    37    36    1
    41    41    28    1
    42    42    35    1
    43    42    30    1
    44    43    38    1
    45    43    41    1
    46    43    29    1
    47    44    32    1
    48    44    46    1
    49    45    35    2
