@<TRIPOS>MOLECULE
outputs/IAG933/test6/raw/output_9379_IAG933_linker_design_.xyz
 43 46 0 0 0
SMALL
GASTEIGER

@<TRIPOS>ATOM
      1 C         -24.8550   -1.0120   30.1430 C.3     1  UNL1        0.0958
      2 C         -24.9730   -2.5050   29.7880 C.2     1  UNL1       -0.0142
      3 C         -23.9060   -3.1730   29.1460 C.2     1  UNL1       -0.0038
      4 C         -23.9890   -4.5490   28.8530 C.2     1  UNL1       -0.0003
      5 C         -25.1370   -5.2800   29.2050 C.2     1  UNL1       -0.0000
      6 C         -26.2320   -4.6110   29.7840 C.2     1  UNL1       -0.0003
      7 C         -26.1550   -3.2320   30.0650 C.2     1  UNL1       -0.0038
      8 C         -25.3870   -0.6790   31.5710 C.3     1  UNL1        0.0838
      9 C         -25.1890    0.7730   32.0280 C.3     1  UNL1        0.0196
     10 C         -25.3360    0.6840   33.5440 C.3     1  UNL1        0.0203
     11 C         -24.8290   -0.7150   33.9050 C.3     1  UNL1        0.0887
     12 N         -24.7580   -1.4810   32.6460 N.3     1  UNL1       -0.2187
     13 C         -25.6880    1.6140   26.4610 C.3     1  UNL1        0.0762
     14 C         -26.2500    2.9200   26.3950 C.2     1  UNL1        0.0552
     15 C         -25.6420    4.0930   27.1230 C.2     1  UNL1        0.2625
     16 N         -25.6140    5.2520   26.4490 N.am    1  UNL1       -0.2000
     17 C         -25.0260    6.4790   26.9630 C.3     1  UNL1        0.1388
     18 O         -25.1430    3.9660   28.2430 O.2     1  UNL1       -0.2687
     19 C         -27.4380    3.0910   25.6450 C.2     1  UNL1        0.1022
     20 N         -28.0750    2.0890   25.0030 N.2     1  UNL1       -0.2119
     21 C         -27.5430    0.8490   25.0790 C.2     1  UNL1        0.2341
     22 O         -28.1930   -0.2080   24.4770 O.2     1  UNL1       -0.4585
     23 C         -29.4600    0.0050   23.8660 C.3     1  UNL1        0.2423
     24 C         -30.0650   -1.3770   23.5730 C.3     1  UNL1        0.2292
     25 O         -30.7290   -1.8780   24.7210 O.3     1  UNL1       -0.2162
     26 C         -26.3540    0.5760   25.7770 C.3     1  UNL1        0.2404
     27 F         -25.8600   -0.6810   25.7950 F       1  UNL1       -0.2269
     28 C         -25.9786   -0.2714   29.4219 C.2     1  UNL1        0.1556
     29 C         -23.8033    1.1101   27.9442 C.2     1  UNL1        0.0972
     30 C         -21.4074    1.3470   27.3845 C.2     1  UNL1        0.0438
     31 C         -25.9660    1.2164   28.9470 C.3     1  UNL1        0.0640
     32 O         -26.8986   -0.9000   28.8134 O.2     1  UNL1       -0.2957
     33 C         -27.9796    2.2331   30.4818 C.3     1  UNL1        0.0004
     34 C         -21.1534    0.3956   28.3745 C.2     1  UNL1        0.0239
     35 C         -24.9736    1.2809   27.7590 C.3     1  UNL1        0.0577
     36 C         -22.1555   -0.1593   29.1518 C.2     1  UNL1        0.0987
     37 C         -27.9404    3.7591   30.3973 C.3     1  UNL1        0.0000
     38 O         -23.1575    2.4064   26.1082 O.2     1  UNL1       -0.3018
     39 C         -27.4582    1.6257   29.1401 C.3     1  UNL1        0.0077
     40 N         -23.4231    0.2589   28.8426 N.2     1  UNL1       -0.2450
     41 C         -22.7202    1.6652   27.0841 C.2     1  UNL1        0.1993
     42 C         -29.3127    4.1683   29.8632 C.3     1  UNL1        0.0000
     43 O         -22.2011    2.6723   25.1757 O.3     1  UNL1        0.0284
@<TRIPOS>BOND
     1     1    28    1
     2     2     7    1
     3     2     1    1
     4     3     2    2
     5     4     3    1
     6     4     5    2
     7     5     6    1
     8     6     7    2
     9     8     1    1
    10     8     9    1
    11     8    12    1
    12     9    10    1
    13    10    11    1
    14    12    11    1
    15    13    35    1
    16    14    13    1
    17    14    15    1
    18    15    18    2
    19    16    17    1
    20    16    15    1
    21    19    14    2
    22    20    21    2
    23    20    19    1
    24    21    26    1
    25    22    21    1
    26    23    22    1
    27    24    23    1
    28    24    25    1
    29    26    27    1
    30    26    13    1
    31    29    40    1
    32    30    34    2
    33    31    39    1
    34    31    28    1
    35    32    28    2
    36    34    36    1
    37    35    29    1
    38    35    31    1
    39    37    33    1
    40    38    41    1
    41    39    33    1
    42    40    36    2
    43    41    30    1
    44    41    29    2
    45    42    37    1
    46    43    38    1
