@<TRIPOS>MOLECULE
outputs/IAG933/test6/raw/output_938_IAG933_linker_design_.xyz
 48 53 0 0 0
SMALL
GASTEIGER

@<TRIPOS>ATOM
      1 C         -24.8550   -1.0120   30.1430 C.3     1  UNL1        0.0729
      2 C         -24.9730   -2.5050   29.7880 C.2     1  UNL1       -0.0183
      3 C         -23.9060   -3.1730   29.1460 C.2     1  UNL1       -0.0041
      4 C         -23.9890   -4.5490   28.8530 C.2     1  UNL1       -0.0003
      5 C         -25.1370   -5.2800   29.2050 C.2     1  UNL1       -0.0000
      6 C         -26.2320   -4.6110   29.7840 C.2     1  UNL1       -0.0003
      7 C         -26.1550   -3.2320   30.0650 C.2     1  UNL1       -0.0041
      8 C         -25.3870   -0.6790   31.5710 C.3     1  UNL1        0.0796
      9 C         -25.1890    0.7730   32.0280 C.3     1  UNL1        0.0193
     10 C         -25.3360    0.6840   33.5440 C.3     1  UNL1        0.0202
     11 C         -24.8290   -0.7150   33.9050 C.3     1  UNL1        0.0887
     12 N         -24.7580   -1.4810   32.6460 N.3     1  UNL1       -0.2190
     13 C         -25.6880    1.6140   26.4610 C.2     1  UNL1        0.0369
     14 C         -26.2500    2.9200   26.3950 C.2     1  UNL1        0.0763
     15 C         -25.6420    4.0930   27.1230 C.2     1  UNL1        0.2664
     16 N         -25.6140    5.2520   26.4490 N.am    1  UNL1       -0.1997
     17 C         -25.0260    6.4790   26.9630 C.3     1  UNL1        0.1388
     18 O         -25.1430    3.9660   28.2430 O.2     1  UNL1       -0.2683
     19 C         -27.4380    3.0910   25.6450 C.2     1  UNL1        0.1067
     20 N         -28.0750    2.0890   25.0030 N.2     1  UNL1       -0.2081
     21 C         -27.5430    0.8490   25.0790 C.2     1  UNL1        0.2533
     22 O         -28.1930   -0.2080   24.4770 O.2     1  UNL1       -0.4558
     23 C         -29.4600    0.0050   23.8660 C.3     1  UNL1        0.2426
     24 C         -30.0650   -1.3770   23.5730 C.3     1  UNL1        0.2292
     25 O         -30.7290   -1.8780   24.7210 O.3     1  UNL1       -0.2162
     26 C         -26.3540    0.5760   25.7770 C.2     1  UNL1        0.1928
     27 F         -25.8600   -0.6810   25.7950 F       1  UNL1       -0.1992
     28 N         -30.5878    3.5635   27.8447 N.pl3   1  UNL1       -0.2495
     29 C         -29.3007    5.7075   26.3098 C.3     1  UNL1        0.0191
     30 C         -22.3349    1.3262   27.8435 C.3     1  UNL1        0.2093
     31 C         -27.9658    0.0495   28.9331 C.3     1  UNL1        0.2696
     32 C         -22.8343    2.6571   25.4658 C.3     1  UNL1        0.0086
     33 C         -25.5438   -0.0204   29.0867 C.3     1  UNL1        0.1788
     34 O         -26.7641   -0.2919   28.1995 O.3     1  UNL1       -0.3229
     35 C         -29.0996    0.3466   27.9592 C.3     1  UNL1        0.0705
     36 C         -30.2732    1.2647   28.4098 C.3     1  UNL1        0.0498
     37 C         -24.4203    0.6808   28.3167 C.2     1  UNL1        0.1395
     38 C         -29.4718    6.8056   27.1378 C.3     1  UNL1        0.0191
     39 C         -31.6590    5.7144   28.2423 C.3     1  UNL1        0.1110
     40 C         -23.1475    1.7535   26.7580 C.3     1  UNL1        0.0688
     41 C         -24.4172    1.3698   27.0978 C.2     1  UNL1        0.0158
     42 C         -31.5206    2.7827   26.9559 C.2     1  UNL1        0.0722
     43 N         -30.5666    4.7885   27.9414 N.3     1  UNL1       -0.2047
     44 C         -31.2916    1.2891   27.2326 C.2     1  UNL1       -0.0074
     45 O         -28.1927   -1.0084   29.5806 O.3     1  UNL1       -0.1899
     46 C         -29.8171    2.6895   28.6036 C.3     1  UNL1        0.1133
     47 O         -23.1973    0.8204   28.8036 O.2     1  UNL1       -0.4773
     48 C         -29.3854    5.5604   27.7529 C.3     1  UNL1        0.0760
@<TRIPOS>BOND
     1     1    33    1
     2     2     7    1
     3     2     1    1
     4     3     2    2
     5     4     3    1
     6     4     5    2
     7     5     6    1
     8     6     7    2
     9     8     1    1
    10     8     9    1
    11     8    12    1
    12     9    10    1
    13    10    11    1
    14    12    11    1
    15    13    41    1
    16    14    13    1
    17    14    15    1
    18    15    18    2
    19    16    17    1
    20    16    15    1
    21    19    14    2
    22    20    21    2
    23    20    19    1
    24    21    26    1
    25    22    21    1
    26    23    22    1
    27    24    23    1
    28    24    25    1
    29    26    27    1
    30    26    13    2
    31    28    43    1
    32    28    46    1
    33    29    38    1
    34    29    48    1
    35    30    47    1
    36    31    45    1
    37    33    34    1
    38    34    31    1
    39    35    31    1
    40    36    35    1
    41    36    46    1
    42    37    47    1
    43    37    33    1
    44    38    48    1
    45    40    32    1
    46    40    41    1
    47    40    30    1
    48    41    37    2
    49    42    44    2
    50    42    28    1
    51    43    39    1
    52    44    36    1
    53    48    43    1
