@<TRIPOS>MOLECULE
outputs/IAG933/test6/raw/output_9380_IAG933_linker_design_.xyz
 43 46 0 0 0
SMALL
GASTEIGER

@<TRIPOS>ATOM
      1 C         -24.8550   -1.0120   30.1430 C.3     1  UNL1        0.1113
      2 C         -24.9730   -2.5050   29.7880 C.2     1  UNL1       -0.0030
      3 C         -23.9060   -3.1730   29.1460 C.2     1  UNL1       -0.0026
      4 C         -23.9890   -4.5490   28.8530 C.2     1  UNL1       -0.0003
      5 C         -25.1370   -5.2800   29.2050 C.2     1  UNL1       -0.0000
      6 C         -26.2320   -4.6110   29.7840 C.2     1  UNL1       -0.0003
      7 C         -26.1550   -3.2320   30.0650 C.2     1  UNL1       -0.0026
      8 C         -25.3870   -0.6790   31.5710 C.3     1  UNL1        0.0950
      9 C         -25.1890    0.7730   32.0280 C.3     1  UNL1        0.0209
     10 C         -25.3360    0.6840   33.5440 C.3     1  UNL1        0.0203
     11 C         -24.8290   -0.7150   33.9050 C.3     1  UNL1        0.0888
     12 N         -24.7580   -1.4810   32.6460 N.3     1  UNL1       -0.2174
     13 C         -25.6880    1.6140   26.4610 C.2     1  UNL1        0.0366
     14 C         -26.2500    2.9200   26.3950 C.2     1  UNL1        0.0763
     15 C         -25.6420    4.0930   27.1230 C.2     1  UNL1        0.2664
     16 N         -25.6140    5.2520   26.4490 N.am    1  UNL1       -0.1997
     17 C         -25.0260    6.4790   26.9630 C.3     1  UNL1        0.1388
     18 O         -25.1430    3.9660   28.2430 O.2     1  UNL1       -0.2683
     19 C         -27.4380    3.0910   25.6450 C.2     1  UNL1        0.1067
     20 N         -28.0750    2.0890   25.0030 N.2     1  UNL1       -0.2081
     21 C         -27.5430    0.8490   25.0790 C.2     1  UNL1        0.2533
     22 O         -28.1930   -0.2080   24.4770 O.2     1  UNL1       -0.4558
     23 C         -29.4600    0.0050   23.8660 C.3     1  UNL1        0.2426
     24 C         -30.0650   -1.3770   23.5730 C.3     1  UNL1        0.2292
     25 O         -30.7290   -1.8780   24.7210 O.3     1  UNL1       -0.2162
     26 C         -26.3540    0.5760   25.7770 C.2     1  UNL1        0.1928
     27 F         -25.8600   -0.6810   25.7950 F       1  UNL1       -0.1992
     28 C         -28.6017   -1.0649   28.8145 C.2     1  UNL1        0.2097
     29 C         -28.5907    0.2587   28.1259 C.3     1  UNL1        0.0995
     30 C         -24.3511    0.5585   28.5541 C.2     1  UNL1        0.0833
     31 C         -22.2594    1.2360   27.7443 C.3     1  UNL1        0.2420
     32 O         -30.3206   -0.8078   27.0060 O.3     1  UNL1       -0.2199
     33 F         -21.0035    1.5990   27.7439 F       1  UNL1       -0.2271
     34 C         -27.7741    1.1278   29.0562 C.3     1  UNL1        0.0319
     35 C         -23.2757    1.6455   26.8663 C.3     1  UNL1        0.1435
     36 O         -29.1570   -1.3456   29.8756 O.2     1  UNL1       -0.2882
     37 C         -26.4884    0.5031   29.0617 C.3     1  UNL1        0.0917
     38 N         -25.3774    0.0058   29.2078 N.pl3   1  UNL1       -0.3020
     39 C         -22.9171    0.5439   28.8592 C.2     1  UNL1        0.2198
     40 CL        -22.8873    2.3572   25.3368 Cl      1  UNL1       -0.1067
     41 C         -30.0131    0.4370   27.6334 C.3     1  UNL1        0.1898
     42 O         -22.4066   -0.0727   29.7944 O.2     1  UNL1       -0.2871
     43 C         -24.5066    1.2813   27.2922 C.2     1  UNL1        0.0144
@<TRIPOS>BOND
     1     1    38    1
     2     2     7    1
     3     2     1    1
     4     3     2    2
     5     4     3    1
     6     4     5    2
     7     5     6    1
     8     6     7    2
     9     8     1    1
    10     8     9    1
    11     8    12    1
    12     9    10    1
    13    10    11    1
    14    12    11    1
    15    13    43    1
    16    14    13    1
    17    14    15    1
    18    15    18    2
    19    16    17    1
    20    16    15    1
    21    19    14    2
    22    20    21    2
    23    20    19    1
    24    21    26    1
    25    22    21    1
    26    23    22    1
    27    24    23    1
    28    24    25    1
    29    26    27    1
    30    26    13    2
    31    28    36    2
    32    29    41    1
    33    29    28    1
    34    29    34    1
    35    30    39    1
    36    30    38    1
    37    31    33    1
    38    31    39    1
    39    32    41    1
    40    34    37    1
    41    35    40    1
    42    35    43    1
    43    35    31    1
    44    37    38    1
    45    39    42    2
    46    43    30    2
