@<TRIPOS>MOLECULE
outputs/IAG933/test6/raw/output_9381_IAG933_linker_design_.xyz
 46 50 0 0 0
SMALL
GASTEIGER

@<TRIPOS>ATOM
      1 C         -24.8550   -1.0120   30.1430 C.3     1  UNL1        0.0425
      2 C         -24.9730   -2.5050   29.7880 C.2     1  UNL1       -0.0208
      3 C         -23.9060   -3.1730   29.1460 C.2     1  UNL1       -0.0042
      4 C         -23.9890   -4.5490   28.8530 C.2     1  UNL1       -0.0003
      5 C         -25.1370   -5.2800   29.2050 C.2     1  UNL1       -0.0000
      6 C         -26.2320   -4.6110   29.7840 C.2     1  UNL1       -0.0003
      7 C         -26.1550   -3.2320   30.0650 C.2     1  UNL1       -0.0042
      8 C         -25.3870   -0.6790   31.5710 C.3     1  UNL1        0.0771
      9 C         -25.1890    0.7730   32.0280 C.3     1  UNL1        0.0192
     10 C         -25.3360    0.6840   33.5440 C.3     1  UNL1        0.0202
     11 C         -24.8290   -0.7150   33.9050 C.3     1  UNL1        0.0887
     12 N         -24.7580   -1.4810   32.6460 N.3     1  UNL1       -0.2191
     13 C         -25.6880    1.6140   26.4610 C.2     1  UNL1        0.0379
     14 C         -26.2500    2.9200   26.3950 C.2     1  UNL1        0.0765
     15 C         -25.6420    4.0930   27.1230 C.2     1  UNL1        0.2664
     16 N         -25.6140    5.2520   26.4490 N.am    1  UNL1       -0.1997
     17 C         -25.0260    6.4790   26.9630 C.3     1  UNL1        0.1388
     18 O         -25.1430    3.9660   28.2430 O.2     1  UNL1       -0.2683
     19 C         -27.4380    3.0910   25.6450 C.2     1  UNL1        0.1067
     20 N         -28.0750    2.0890   25.0030 N.2     1  UNL1       -0.2081
     21 C         -27.5430    0.8490   25.0790 C.2     1  UNL1        0.2533
     22 O         -28.1930   -0.2080   24.4770 O.2     1  UNL1       -0.4558
     23 C         -29.4600    0.0050   23.8660 C.3     1  UNL1        0.2426
     24 C         -30.0650   -1.3770   23.5730 C.3     1  UNL1        0.2292
     25 O         -30.7290   -1.8780   24.7210 O.3     1  UNL1       -0.2162
     26 C         -26.3540    0.5760   25.7770 C.2     1  UNL1        0.1930
     27 F         -25.8600   -0.6810   25.7950 F       1  UNL1       -0.1992
     28 C         -26.2299    6.2537   31.7291 C.2     1  UNL1        0.0064
     29 C         -28.4593    3.8792   29.5732 C.3     1  UNL1        0.2071
     30 C         -26.4657    1.1200   29.3950 C.3     1  UNL1        0.0050
     31 C         -27.0636    4.0635   31.4582 C.2     1  UNL1        0.2249
     32 C         -27.9110    1.4452   29.7185 C.3     1  UNL1        0.0042
     33 C         -25.3732    0.0311   29.0771 C.3     1  UNL1        0.0308
     34 C         -27.2451    5.4174   31.2994 C.2     1  UNL1        0.0577
     35 C         -28.6029    2.5352   28.8497 C.3     1  UNL1        0.0474
     36 C         -21.8397    1.6990   26.9260 C.2     1  UNL1        0.0033
     37 N         -25.9765    3.5723   32.1346 N.2     1  UNL1       -0.2101
     38 C         -21.6644    0.9837   28.1672 C.2     1  UNL1        0.0417
     39 C         -22.8385    0.2890   28.7918 C.2     1  UNL1        0.1917
     40 C         -25.1123    5.7571   32.3928 C.2     1  UNL1        0.0209
     41 C         -24.9999    4.4006   32.5840 C.2     1  UNL1        0.1021
     42 C         -23.1203    1.8691   26.3122 C.2     1  UNL1       -0.0000
     43 C         -24.3321    1.3708   27.0423 C.2     1  UNL1        0.0016
     44 O         -28.1208    3.4934   30.9258 O.2     1  UNL1       -0.4602
     45 C         -24.2028    0.5719   28.3065 C.2     1  UNL1        0.0169
     46 O         -22.3683   -0.6300   29.6729 O.2     1  UNL1       -0.2869
@<TRIPOS>BOND
     1     1    33    1
     2     2     7    1
     3     2     1    1
     4     3     2    2
     5     4     3    1
     6     4     5    2
     7     5     6    1
     8     6     7    2
     9     8     1    1
    10     8     9    1
    11     8    12    1
    12     9    10    1
    13    10    11    1
    14    12    11    1
    15    13    43    1
    16    14    13    1
    17    14    15    1
    18    15    18    2
    19    16    17    1
    20    16    15    1
    21    19    14    2
    22    20    21    2
    23    20    19    1
    24    21    26    1
    25    22    21    1
    26    23    22    1
    27    24    23    1
    28    24    25    1
    29    26    27    1
    30    26    13    2
    31    28    40    1
    32    29    44    1
    33    30    32    1
    34    31    37    2
    35    33    30    1
    36    34    31    1
    37    34    28    2
    38    35    29    1
    39    35    32    1
    40    36    38    1
    41    37    41    1
    42    38    39    2
    43    39    46    1
    44    40    41    2
    45    42    36    2
    46    42    43    1
    47    43    45    2
    48    44    31    1
    49    45    39    1
    50    45    33    1
