@<TRIPOS>MOLECULE
outputs/IAG933/test6/raw/output_9382_IAG933_linker_design_.xyz
 42 45 0 0 0
SMALL
GASTEIGER

@<TRIPOS>ATOM
      1 C         -24.8550   -1.0120   30.1430 C.3     1  UNL1        0.0471
      2 C         -24.9730   -2.5050   29.7880 C.2     1  UNL1       -0.0207
      3 C         -23.9060   -3.1730   29.1460 C.2     1  UNL1       -0.0042
      4 C         -23.9890   -4.5490   28.8530 C.2     1  UNL1       -0.0003
      5 C         -25.1370   -5.2800   29.2050 C.2     1  UNL1       -0.0000
      6 C         -26.2320   -4.6110   29.7840 C.2     1  UNL1       -0.0003
      7 C         -26.1550   -3.2320   30.0650 C.2     1  UNL1       -0.0042
      8 C         -25.3870   -0.6790   31.5710 C.3     1  UNL1        0.0773
      9 C         -25.1890    0.7730   32.0280 C.3     1  UNL1        0.0192
     10 C         -25.3360    0.6840   33.5440 C.3     1  UNL1        0.0202
     11 C         -24.8290   -0.7150   33.9050 C.3     1  UNL1        0.0887
     12 N         -24.7580   -1.4810   32.6460 N.3     1  UNL1       -0.2191
     13 C         -25.6880    1.6140   26.4610 C.3     1  UNL1        0.0708
     14 C         -26.2500    2.9200   26.3950 C.2     1  UNL1        0.0548
     15 C         -25.6420    4.0930   27.1230 C.2     1  UNL1        0.2624
     16 N         -25.6140    5.2520   26.4490 N.am    1  UNL1       -0.2000
     17 C         -25.0260    6.4790   26.9630 C.3     1  UNL1        0.1388
     18 O         -25.1430    3.9660   28.2430 O.2     1  UNL1       -0.2687
     19 C         -27.4380    3.0910   25.6450 C.2     1  UNL1        0.1021
     20 N         -28.0750    2.0890   25.0030 N.2     1  UNL1       -0.2119
     21 C         -27.5430    0.8490   25.0790 C.2     1  UNL1        0.2341
     22 O         -28.1930   -0.2080   24.4770 O.2     1  UNL1       -0.4585
     23 C         -29.4600    0.0050   23.8660 C.3     1  UNL1        0.2423
     24 C         -30.0650   -1.3770   23.5730 C.3     1  UNL1        0.2292
     25 O         -30.7290   -1.8780   24.7210 O.3     1  UNL1       -0.2162
     26 C         -26.3540    0.5760   25.7770 C.3     1  UNL1        0.2400
     27 F         -25.8600   -0.6810   25.7950 F       1  UNL1       -0.2269
     28 O         -22.6428    1.1731   30.0716 O.3     1  UNL1       -0.2231
     29 C         -22.6099    0.6217   28.6840 C.3     1  UNL1        0.1544
     30 C         -23.3365    2.9516   24.8902 C.3     1  UNL1        0.1740
     31 C         -24.8553    1.0906   27.6470 C.3     1  UNL1        0.0213
     32 C         -21.2273    0.7653   27.8678 C.3     1  UNL1        0.0355
     33 C         -26.6989    0.1921   28.9664 C.2     1  UNL1        0.2673
     34 C         -21.3132    2.1033   27.4581 C.3     1  UNL1        0.0322
     35 C         -25.2195   -0.0709   28.9205 C.3     1  UNL1        0.0864
     36 C         -23.5744    1.4521   27.7942 C.3     1  UNL1        0.0585
     37 C         -22.7327    2.5235   27.1832 C.3     1  UNL1        0.1178
     38 C         -29.1552    2.1782   29.8623 C.3     1  UNL1        0.2080
     39 O         -27.5103   -0.6125   28.5714 O.2     1  UNL1       -0.2710
     40 N         -26.9763    1.3314   29.5307 N.am    1  UNL1       -0.0625
     41 O         -22.8804    1.9413   25.6045 O.3     1  UNL1       -0.3535
     42 O         -28.0165    1.4937   30.4404 O.3     1  UNL1       -0.2412
@<TRIPOS>BOND
     1     1    35    1
     2     2     7    1
     3     2     1    1
     4     3     2    2
     5     4     3    1
     6     4     5    2
     7     5     6    1
     8     6     7    2
     9     8     1    1
    10     8     9    1
    11     8    12    1
    12     9    10    1
    13    10    11    1
    14    12    11    1
    15    13    31    1
    16    14    13    1
    17    14    15    1
    18    15    18    2
    19    16    17    1
    20    16    15    1
    21    19    14    2
    22    20    21    2
    23    20    19    1
    24    21    26    1
    25    22    21    1
    26    23    22    1
    27    24    23    1
    28    24    25    1
    29    26    27    1
    30    26    13    1
    31    29    28    1
    32    30    41    1
    33    31    35    1
    34    32    29    1
    35    33    40    1
    36    34    32    1
    37    35    33    1
    38    36    31    1
    39    36    29    1
    40    37    41    1
    41    37    34    1
    42    37    36    1
    43    38    42    1
    44    39    33    2
    45    40    42    1
