@<TRIPOS>MOLECULE
outputs/IAG933/test6/raw/output_9385_IAG933_linker_design_.xyz
 45 47 0 0 0
SMALL
GASTEIGER

@<TRIPOS>ATOM
      1 C         -24.8550   -1.0120   30.1430 C.3     1  UNL1        0.0981
      2 C         -24.9730   -2.5050   29.7880 C.2     1  UNL1       -0.0064
      3 C         -23.9060   -3.1730   29.1460 C.2     1  UNL1       -0.0029
      4 C         -23.9890   -4.5490   28.8530 C.2     1  UNL1       -0.0003
      5 C         -25.1370   -5.2800   29.2050 C.2     1  UNL1       -0.0000
      6 C         -26.2320   -4.6110   29.7840 C.2     1  UNL1       -0.0003
      7 C         -26.1550   -3.2320   30.0650 C.2     1  UNL1       -0.0029
      8 C         -25.3870   -0.6790   31.5710 C.3     1  UNL1        0.0916
      9 C         -25.1890    0.7730   32.0280 C.3     1  UNL1        0.0206
     10 C         -25.3360    0.6840   33.5440 C.3     1  UNL1        0.0203
     11 C         -24.8290   -0.7150   33.9050 C.3     1  UNL1        0.0888
     12 N         -24.7580   -1.4810   32.6460 N.3     1  UNL1       -0.2178
     13 C         -25.6880    1.6140   26.4610 C.2     1  UNL1        0.0427
     14 C         -26.2500    2.9200   26.3950 C.2     1  UNL1        0.0748
     15 C         -25.6420    4.0930   27.1230 C.2     1  UNL1        0.2662
     16 N         -25.6140    5.2520   26.4490 N.am    1  UNL1       -0.1997
     17 C         -25.0260    6.4790   26.9630 C.3     1  UNL1        0.1388
     18 O         -25.1430    3.9660   28.2430 O.2     1  UNL1       -0.2683
     19 C         -27.4380    3.0910   25.6450 C.2     1  UNL1        0.1065
     20 N         -28.0750    2.0890   25.0030 N.2     1  UNL1       -0.2081
     21 C         -27.5430    0.8490   25.0790 C.2     1  UNL1        0.2530
     22 O         -28.1930   -0.2080   24.4770 O.2     1  UNL1       -0.4558
     23 C         -29.4600    0.0050   23.8660 C.3     1  UNL1        0.2426
     24 C         -30.0650   -1.3770   23.5730 C.3     1  UNL1        0.2292
     25 O         -30.7290   -1.8780   24.7210 O.3     1  UNL1       -0.2162
     26 C         -26.3540    0.5760   25.7770 C.2     1  UNL1        0.1914
     27 F         -25.8600   -0.6810   25.7950 F       1  UNL1       -0.1995
     28 C         -29.4268    0.8266   29.4741 C.3     1  UNL1        0.1528
     29 C         -33.0077   -5.2203   28.0733 C.3     1  UNL1        0.0001
     30 C         -21.6985    1.7598   27.2182 C.3     1  UNL1        0.0029
     31 O         -30.9149   -0.4466   27.4694 O.2     1  UNL1       -0.2577
     32 C         -24.3247    1.4756   27.0749 C.3     1  UNL1        0.1416
     33 C         -32.3639   -0.0398   29.5974 C.3     1  UNL1        0.1287
     34 O         -24.0993    0.6471   28.1534 O.3     1  UNL1       -0.3352
     35 N         -25.6573   -0.2275   29.2109 N.3     1  UNL1       -0.2438
     36 C         -30.3932   -3.4973   29.4701 C.3     1  UNL1        0.1514
     37 C         -22.9714    1.8903   26.3384 C.3     1  UNL1        0.0343
     38 C         -31.4755   -5.3270   28.1580 C.3     1  UNL1        0.0026
     39 C         -28.1084    0.4214   28.7272 C.3     1  UNL1        0.0500
     40 O         -29.9029   -0.4323   29.9376 O.3     1  UNL1       -0.2940
     41 C         -27.2324   -0.2273   29.3827 C.3     1  UNL1        0.0773
     42 O         -31.3576   -2.5136   29.1014 O.3     1  UNL1       -0.2941
     43 P         -31.0567   -0.9154   28.8743 P.3     1  UNL1        0.3439
     44 C         -24.9828   -0.2062   27.9885 C.3     1  UNL1        0.2204
     45 C         -30.9615   -4.9062   29.4860 C.3     1  UNL1        0.0326
@<TRIPOS>BOND
     1     1    35    1
     2     2     7    1
     3     2     1    1
     4     3     2    2
     5     4     3    1
     6     4     5    2
     7     5     6    1
     8     6     7    2
     9     8     1    1
    10     8     9    1
    11     8    12    1
    12     9    10    1
    13    10    11    1
    14    12    11    1
    15    13    32    1
    16    14    13    1
    17    14    15    1
    18    15    18    2
    19    16    17    1
    20    16    15    1
    21    19    14    2
    22    20    21    2
    23    20    19    1
    24    21    26    1
    25    22    21    1
    26    23    22    1
    27    24    23    1
    28    24    25    1
    29    26    27    1
    30    26    13    2
    31    28    40    1
    32    29    38    1
    33    31    43    2
    34    32    37    1
    35    32    34    1
    36    35    41    1
    37    36    45    1
    38    37    30    1
    39    38    45    1
    40    39    41    1
    41    39    28    1
    42    42    36    1
    43    43    42    1
    44    43    33    1
    45    43    40    1
    46    44    34    1
    47    44    35    1
