@<TRIPOS>MOLECULE
outputs/IAG933/test6/raw/output_9387_IAG933_linker_design_.xyz
 43 47 0 0 0
SMALL
GASTEIGER

@<TRIPOS>ATOM
      1 C         -24.8550   -1.0120   30.1430 C.3     1  UNL1        0.0976
      2 C         -24.9730   -2.5050   29.7880 C.2     1  UNL1       -0.0064
      3 C         -23.9060   -3.1730   29.1460 C.2     1  UNL1       -0.0029
      4 C         -23.9890   -4.5490   28.8530 C.2     1  UNL1       -0.0003
      5 C         -25.1370   -5.2800   29.2050 C.2     1  UNL1       -0.0000
      6 C         -26.2320   -4.6110   29.7840 C.2     1  UNL1       -0.0003
      7 C         -26.1550   -3.2320   30.0650 C.2     1  UNL1       -0.0029
      8 C         -25.3870   -0.6790   31.5710 C.3     1  UNL1        0.0916
      9 C         -25.1890    0.7730   32.0280 C.3     1  UNL1        0.0206
     10 C         -25.3360    0.6840   33.5440 C.3     1  UNL1        0.0203
     11 C         -24.8290   -0.7150   33.9050 C.3     1  UNL1        0.0888
     12 N         -24.7580   -1.4810   32.6460 N.3     1  UNL1       -0.2178
     13 C         -25.6880    1.6140   26.4610 C.2     1  UNL1        0.0910
     14 C         -26.2500    2.9200   26.3950 C.2     1  UNL1        0.0902
     15 C         -25.6420    4.0930   27.1230 C.2     1  UNL1        0.2676
     16 N         -25.6140    5.2520   26.4490 N.am    1  UNL1       -0.1997
     17 C         -25.0260    6.4790   26.9630 C.3     1  UNL1        0.1388
     18 O         -25.1430    3.9660   28.2430 O.2     1  UNL1       -0.2683
     19 C         -27.4380    3.0910   25.6450 C.2     1  UNL1        0.1080
     20 N         -28.0750    2.0890   25.0030 N.2     1  UNL1       -0.2080
     21 C         -27.5430    0.8490   25.0790 C.2     1  UNL1        0.2546
     22 O         -28.1930   -0.2080   24.4770 O.2     1  UNL1       -0.4558
     23 C         -29.4600    0.0050   23.8660 C.3     1  UNL1        0.2426
     24 C         -30.0650   -1.3770   23.5730 C.3     1  UNL1        0.2292
     25 O         -30.7290   -1.8780   24.7210 O.3     1  UNL1       -0.2162
     26 C         -26.3540    0.5760   25.7770 C.2     1  UNL1        0.2066
     27 F         -25.8600   -0.6810   25.7950 F       1  UNL1       -0.1979
     28 C         -26.1100    2.5235   29.9492 C.3     1  UNL1        0.0362
     29 C         -24.8701    4.9860   32.2542 C.3     1  UNL1        0.0729
     30 C         -22.1117    0.4202   28.9553 C.3     1  UNL1        0.0657
     31 C         -26.4252    3.7395   30.9263 C.3     1  UNL1        0.0901
     32 C         -23.5800    0.7015   28.3448 C.3     1  UNL1        0.1454
     33 N         -24.5370    1.2435   27.2567 N.pl3   1  UNL1       -0.2718
     34 C         -25.9515    1.1882   29.3566 C.3     1  UNL1        0.0756
     35 N         -24.8220    0.1309   29.2377 N.3     1  UNL1       -0.2521
     36 C         -22.6992    2.3970   25.0597 C.3     1  UNL1        0.0321
     37 C         -21.0363    0.8810   28.1296 C.2     1  UNL1       -0.0229
     38 C         -23.4291    1.3545   27.3649 C.2     1  UNL1        0.0572
     39 C         -25.1832    6.4066   32.6963 C.3     1  UNL1        0.0188
     40 C         -22.4945    1.8741   26.4610 C.2     1  UNL1       -0.0098
     41 C         -24.0943    4.1045   33.2058 C.3     1  UNL1        0.0188
     42 N         -25.1991    4.6190   31.1053 N.3     1  UNL1       -0.2194
     43 C         -21.2249    1.6033   26.9415 C.2     1  UNL1       -0.0077
@<TRIPOS>BOND
     1     1    35    1
     2     2     7    1
     3     2     1    1
     4     3     2    2
     5     4     3    1
     6     4     5    2
     7     5     6    1
     8     6     7    2
     9     8     1    1
    10     8     9    1
    11     8    12    1
    12     9    10    1
    13    10    11    1
    14    12    11    1
    15    13    33    1
    16    14    13    1
    17    14    15    1
    18    15    18    2
    19    16    17    1
    20    16    15    1
    21    19    14    2
    22    20    21    2
    23    20    19    1
    24    21    26    1
    25    22    21    1
    26    23    22    1
    27    24    23    1
    28    24    25    1
    29    26    27    1
    30    26    13    2
    31    28    31    1
    32    29    39    1
    33    29    41    1
    34    31    42    1
    35    32    30    1
    36    32    35    1
    37    33    38    1
    38    33    32    1
    39    34    28    1
    40    35    34    1
    41    36    40    1
    42    37    30    1
    43    38    32    1
    44    40    43    1
    45    40    38    2
    46    42    29    1
    47    43    37    2
