@<TRIPOS>MOLECULE
outputs/IAG933/test6/raw/output_9390_IAG933_linker_design_.xyz
 48 53 0 0 0
SMALL
GASTEIGER

@<TRIPOS>ATOM
      1 C         -24.8550   -1.0120   30.1430 C.3     1  UNL1        0.1121
      2 C         -24.9730   -2.5050   29.7880 C.2     1  UNL1       -0.0030
      3 C         -23.9060   -3.1730   29.1460 C.2     1  UNL1       -0.0026
      4 C         -23.9890   -4.5490   28.8530 C.2     1  UNL1       -0.0003
      5 C         -25.1370   -5.2800   29.2050 C.2     1  UNL1       -0.0000
      6 C         -26.2320   -4.6110   29.7840 C.2     1  UNL1       -0.0003
      7 C         -26.1550   -3.2320   30.0650 C.2     1  UNL1       -0.0026
      8 C         -25.3870   -0.6790   31.5710 C.3     1  UNL1        0.0951
      9 C         -25.1890    0.7730   32.0280 C.3     1  UNL1        0.0209
     10 C         -25.3360    0.6840   33.5440 C.3     1  UNL1        0.0203
     11 C         -24.8290   -0.7150   33.9050 C.3     1  UNL1        0.0888
     12 N         -24.7580   -1.4810   32.6460 N.3     1  UNL1       -0.2174
     13 C         -25.6880    1.6140   26.4610 C.2     1  UNL1        0.0362
     14 C         -26.2500    2.9200   26.3950 C.2     1  UNL1        0.0763
     15 C         -25.6420    4.0930   27.1230 C.2     1  UNL1        0.2664
     16 N         -25.6140    5.2520   26.4490 N.am    1  UNL1       -0.1997
     17 C         -25.0260    6.4790   26.9630 C.3     1  UNL1        0.1388
     18 O         -25.1430    3.9660   28.2430 O.2     1  UNL1       -0.2683
     19 C         -27.4380    3.0910   25.6450 C.2     1  UNL1        0.1067
     20 N         -28.0750    2.0890   25.0030 N.2     1  UNL1       -0.2081
     21 C         -27.5430    0.8490   25.0790 C.2     1  UNL1        0.2533
     22 O         -28.1930   -0.2080   24.4770 O.2     1  UNL1       -0.4558
     23 C         -29.4600    0.0050   23.8660 C.3     1  UNL1        0.2426
     24 C         -30.0650   -1.3770   23.5730 C.3     1  UNL1        0.2292
     25 O         -30.7290   -1.8780   24.7210 O.3     1  UNL1       -0.2162
     26 C         -26.3540    0.5760   25.7770 C.2     1  UNL1        0.1928
     27 F         -25.8600   -0.6810   25.7950 F       1  UNL1       -0.1992
     28 CL        -22.7387    2.4392   25.2907 Cl      1  UNL1       -0.1074
     29 C         -23.1487    1.6296   26.8020 C.3     1  UNL1        0.1336
     30 O         -21.0201    1.6000   27.8841 O.3     1  UNL1       -0.2211
     31 O         -30.9465    0.2805   26.5804 O.2     1  UNL1       -0.2916
     32 C         -24.4420    1.2349   27.2617 C.2     1  UNL1        0.0069
     33 C         -26.9089    0.3449   28.9697 C.3     1  UNL1        0.1516
     34 N         -27.3763    1.7271   29.3385 N.3     1  UNL1       -0.2295
     35 N         -25.4888    0.0669   29.0541 N.pl3   1  UNL1       -0.2951
     36 C         -30.6400    2.2136   27.9606 C.2     1  UNL1        0.0160
     37 C         -30.3145    0.9028   27.5902 C.2     1  UNL1        0.1707
     38 C         -22.9536    0.2802   28.7443 C.3     1  UNL1        0.0753
     39 C         -27.5710    3.9406   31.8578 C.3     1  UNL1        0.1698
     40 C         -24.3120    0.5044   28.4109 C.2     1  UNL1        0.0259
     41 C         -30.1641    3.0438   29.0563 C.3     1  UNL1        0.0547
     42 C         -28.9937    3.6886   31.4289 C.2     1  UNL1        0.0015
     43 C         -28.2943    0.9457   29.1451 C.3     1  UNL1        0.1025
     44 O         -26.6769    3.3922   30.9020 O.3     1  UNL1       -0.3324
     45 C         -27.1020    2.0819   30.7723 C.3     1  UNL1        0.2215
     46 C         -29.1861    0.3083   28.3053 C.3     1  UNL1        0.0880
     47 C         -22.2830    1.1682   27.7764 C.3     1  UNL1        0.1766
     48 C         -29.2370    3.2897   30.0762 C.2     1  UNL1       -0.0234
@<TRIPOS>BOND
     1     1    35    1
     2     2     7    1
     3     2     1    1
     4     3     2    2
     5     4     3    1
     6     4     5    2
     7     5     6    1
     8     6     7    2
     9     8     1    1
    10     8     9    1
    11     8    12    1
    12     9    10    1
    13    10    11    1
    14    12    11    1
    15    13    32    1
    16    14    13    1
    17    14    15    1
    18    15    18    2
    19    16    17    1
    20    16    15    1
    21    19    14    2
    22    20    21    2
    23    20    19    1
    24    21    26    1
    25    22    21    1
    26    23    22    1
    27    24    23    1
    28    24    25    1
    29    26    27    1
    30    26    13    2
    31    29    28    1
    32    29    32    1
    33    29    47    1
    34    31    37    1
    35    32    40    2
    36    33    35    1
    37    33    43    1
    38    33    34    1
    39    34    45    1
    40    36    41    1
    41    37    36    2
    42    37    46    1
    43    40    38    1
    44    40    35    1
    45    41    48    1
    46    42    39    1
    47    43    46    1
    48    43    34    1
    49    44    39    1
    50    45    44    1
    51    47    30    1
    52    47    38    1
    53    48    42    2
