@<TRIPOS>MOLECULE
outputs/IAG933/test6/raw/output_9393_IAG933_linker_design_.xyz
 37 41 0 0 0
SMALL
GASTEIGER

@<TRIPOS>ATOM
      1 C         -24.8550   -1.0120   30.1430 C.3     1  UNL1        0.1299
      2 C         -24.9730   -2.5050   29.7880 C.2     1  UNL1       -0.0015
      3 C         -23.9060   -3.1730   29.1460 C.2     1  UNL1       -0.0026
      4 C         -23.9890   -4.5490   28.8530 C.2     1  UNL1       -0.0003
      5 C         -25.1370   -5.2800   29.2050 C.2     1  UNL1       -0.0000
      6 C         -26.2320   -4.6110   29.7840 C.2     1  UNL1       -0.0003
      7 C         -26.1550   -3.2320   30.0650 C.2     1  UNL1       -0.0026
      8 C         -25.3870   -0.6790   31.5710 C.3     1  UNL1        0.0966
      9 C         -25.1890    0.7730   32.0280 C.3     1  UNL1        0.0210
     10 C         -25.3360    0.6840   33.5440 C.3     1  UNL1        0.0203
     11 C         -24.8290   -0.7150   33.9050 C.3     1  UNL1        0.0888
     12 N         -24.7580   -1.4810   32.6460 N.3     1  UNL1       -0.2174
     13 C         -25.6880    1.6140   26.4610 C.2     1  UNL1        0.0588
     14 C         -26.2500    2.9200   26.3950 C.2     1  UNL1        0.0781
     15 C         -25.6420    4.0930   27.1230 C.2     1  UNL1        0.2665
     16 N         -25.6140    5.2520   26.4490 N.am    1  UNL1       -0.1997
     17 C         -25.0260    6.4790   26.9630 C.3     1  UNL1        0.1388
     18 O         -25.1430    3.9660   28.2430 O.2     1  UNL1       -0.2683
     19 C         -27.4380    3.0910   25.6450 C.2     1  UNL1        0.1068
     20 N         -28.0750    2.0890   25.0030 N.2     1  UNL1       -0.2081
     21 C         -27.5430    0.8490   25.0790 C.2     1  UNL1        0.2533
     22 O         -28.1930   -0.2080   24.4770 O.2     1  UNL1       -0.4558
     23 C         -29.4600    0.0050   23.8660 C.3     1  UNL1        0.2426
     24 C         -30.0650   -1.3770   23.5730 C.3     1  UNL1        0.2292
     25 O         -30.7290   -1.8780   24.7210 O.3     1  UNL1       -0.2162
     26 C         -26.3540    0.5760   25.7770 C.2     1  UNL1        0.1946
     27 F         -25.8600   -0.6810   25.7950 F       1  UNL1       -0.1992
     28 C         -22.5893   -0.5166   30.1497 C.3     1  UNL1        0.2234
     29 N         -23.9506    0.4909   28.4762 N.ar    1  UNL1       -0.2379
     30 C         -22.6349    0.6639   28.3216 C.ar    1  UNL1        0.1781
     31 O         -23.2166    2.5095   25.4435 O.3     1  UNL1       -0.2824
     32 C         -22.0915    1.4296   27.3745 C.ar    1  UNL1        0.2129
     33 N         -21.7178    0.0180   29.1164 N.pl3   1  UNL1       -0.1947
     34 N         -23.8778   -0.2331   29.5116 N.pl3   1  UNL1       -0.2218
     35 C         -23.2680    1.7889   26.5630 C.ar    1  UNL1        0.2430
     36 C         -24.4261    1.3619   27.0235 C.ar    1  UNL1        0.1238
     37 F         -20.9140    1.9002   27.2426 F       1  UNL1       -0.1977
@<TRIPOS>BOND
     1     1     2    1
     2     2     7    1
     3     3     2    2
     4     4     3    1
     5     4     5    2
     6     5     6    1
     7     6     7    2
     8     8     1    1
     9     8     9    1
    10     8    12    1
    11     9    10    1
    12    10    11    1
    13    12    11    1
    14    13    36    1
    15    14    13    1
    16    14    15    1
    17    15    18    2
    18    16    17    1
    19    16    15    1
    20    19    14    2
    21    20    21    2
    22    20    19    1
    23    21    26    1
    24    22    21    1
    25    23    22    1
    26    24    23    1
    27    24    25    1
    28    26    27    1
    29    26    13    2
    30    29    34    1
    31    30    29   ar
    32    30    33    1
    33    31    35    1
    34    32    30   ar
    35    33    28    1
    36    34     1    1
    37    34    28    1
    38    35    36   ar
    39    35    32   ar
    40    36    29   ar
    41    37    32    1
