@<TRIPOS>MOLECULE
outputs/IAG933/test6/raw/output_9396_IAG933_linker_design_.xyz
 40 43 0 0 0
SMALL
GASTEIGER

@<TRIPOS>ATOM
      1 C         -24.8550   -1.0120   30.1430 C.3     1  UNL1        0.1752
      2 C         -24.9730   -2.5050   29.7880 C.2     1  UNL1        0.0012
      3 C         -23.9060   -3.1730   29.1460 C.2     1  UNL1       -0.0026
      4 C         -23.9890   -4.5490   28.8530 C.2     1  UNL1       -0.0003
      5 C         -25.1370   -5.2800   29.2050 C.2     1  UNL1       -0.0000
      6 C         -26.2320   -4.6110   29.7840 C.2     1  UNL1       -0.0003
      7 C         -26.1550   -3.2320   30.0650 C.2     1  UNL1       -0.0026
      8 C         -25.3870   -0.6790   31.5710 C.3     1  UNL1        0.0993
      9 C         -25.1890    0.7730   32.0280 C.3     1  UNL1        0.0210
     10 C         -25.3360    0.6840   33.5440 C.3     1  UNL1        0.0203
     11 C         -24.8290   -0.7150   33.9050 C.3     1  UNL1        0.0888
     12 N         -24.7580   -1.4810   32.6460 N.3     1  UNL1       -0.2174
     13 C         -25.6880    1.6140   26.4610 C.2     1  UNL1        0.0453
     14 C         -26.2500    2.9200   26.3950 C.2     1  UNL1        0.0768
     15 C         -25.6420    4.0930   27.1230 C.2     1  UNL1        0.2664
     16 N         -25.6140    5.2520   26.4490 N.am    1  UNL1       -0.1997
     17 C         -25.0260    6.4790   26.9630 C.3     1  UNL1        0.1388
     18 O         -25.1430    3.9660   28.2430 O.2     1  UNL1       -0.2683
     19 C         -27.4380    3.0910   25.6450 C.2     1  UNL1        0.1067
     20 N         -28.0750    2.0890   25.0030 N.2     1  UNL1       -0.2081
     21 C         -27.5430    0.8490   25.0790 C.2     1  UNL1        0.2533
     22 O         -28.1930   -0.2080   24.4770 O.2     1  UNL1       -0.4558
     23 C         -29.4600    0.0050   23.8660 C.3     1  UNL1        0.2426
     24 C         -30.0650   -1.3770   23.5730 C.3     1  UNL1        0.2292
     25 O         -30.7290   -1.8780   24.7210 O.3     1  UNL1       -0.2162
     26 C         -26.3540    0.5760   25.7770 C.2     1  UNL1        0.1933
     27 F         -25.8600   -0.6810   25.7950 F       1  UNL1       -0.1992
     28 C         -21.8138    1.3340   27.4981 C.2     1  UNL1        0.2099
     29 C         -22.7095    1.9197   24.4538 C.3     1  UNL1        0.2526
     30 C         -21.7934    0.3925   28.4331 C.3     1  UNL1        0.3124
     31 C         -23.0384    1.7101   26.7965 C.2     1  UNL1        0.1711
     32 O         -23.0112    0.0102   28.8758 O.2     1  UNL1       -0.4391
     33 C         -24.1944    0.3832   28.3560 C.2     1  UNL1        0.2504
     34 O         -25.9004    1.2876   29.5735 O.2     1  UNL1       -0.1654
     35 S         -25.6173    0.0254   29.0439 S.O2    1  UNL1        0.0440
     36 O         -22.9121    2.5347   25.7207 O.2     1  UNL1       -0.4692
     37 N         -20.5936   -0.1421   28.8072 N.3     1  UNL1       -0.0795
     38 C         -24.2797    1.2617   27.1992 C.2     1  UNL1        0.0907
     39 F         -20.6440    1.9403   27.2617 F       1  UNL1       -0.2003
     40 O         -26.4071   -0.7133   28.3163 O.2     1  UNL1       -0.1654
@<TRIPOS>BOND
     1     1    35    1
     2     2     7    1
     3     2     1    1
     4     3     2    2
     5     4     3    1
     6     4     5    2
     7     5     6    1
     8     6     7    2
     9     8     1    1
    10     8     9    1
    11     8    12    1
    12     9    10    1
    13    10    11    1
    14    12    11    1
    15    13    38    1
    16    14    13    1
    17    14    15    1
    18    15    18    2
    19    16    17    1
    20    16    15    1
    21    19    14    2
    22    20    21    2
    23    20    19    1
    24    21    26    1
    25    22    21    1
    26    23    22    1
    27    24    23    1
    28    24    25    1
    29    26    27    1
    30    26    13    2
    31    28    30    1
    32    29    36    1
    33    30    37    1
    34    30    32    1
    35    31    38    1
    36    31    28    2
    37    33    32    1
    38    33    35    1
    39    35    34    2
    40    36    31    1
    41    38    33    2
    42    39    28    1
    43    40    35    2
