@<TRIPOS>MOLECULE
outputs/IAG933/test6/raw/output_94_IAG933_linker_design_.xyz
 46 51 0 0 0
SMALL
GASTEIGER

@<TRIPOS>ATOM
      1 C         -24.8550   -1.0120   30.1430 C.3     1  UNL1        0.0622
      2 C         -24.9730   -2.5050   29.7880 C.2     1  UNL1       -0.0192
      3 C         -23.9060   -3.1730   29.1460 C.2     1  UNL1       -0.0042
      4 C         -23.9890   -4.5490   28.8530 C.2     1  UNL1       -0.0003
      5 C         -25.1370   -5.2800   29.2050 C.2     1  UNL1       -0.0000
      6 C         -26.2320   -4.6110   29.7840 C.2     1  UNL1       -0.0003
      7 C         -26.1550   -3.2320   30.0650 C.2     1  UNL1       -0.0042
      8 C         -25.3870   -0.6790   31.5710 C.3     1  UNL1        0.0788
      9 C         -25.1890    0.7730   32.0280 C.3     1  UNL1        0.0193
     10 C         -25.3360    0.6840   33.5440 C.3     1  UNL1        0.0202
     11 C         -24.8290   -0.7150   33.9050 C.3     1  UNL1        0.0887
     12 N         -24.7580   -1.4810   32.6460 N.3     1  UNL1       -0.2191
     13 C         -25.6880    1.6140   26.4610 C.2     1  UNL1        0.0349
     14 C         -26.2500    2.9200   26.3950 C.2     1  UNL1        0.0763
     15 C         -25.6420    4.0930   27.1230 C.2     1  UNL1        0.2664
     16 N         -25.6140    5.2520   26.4490 N.am    1  UNL1       -0.1997
     17 C         -25.0260    6.4790   26.9630 C.3     1  UNL1        0.1388
     18 O         -25.1430    3.9660   28.2430 O.2     1  UNL1       -0.2683
     19 C         -27.4380    3.0910   25.6450 C.2     1  UNL1        0.1067
     20 N         -28.0750    2.0890   25.0030 N.2     1  UNL1       -0.2081
     21 C         -27.5430    0.8490   25.0790 C.2     1  UNL1        0.2533
     22 O         -28.1930   -0.2080   24.4770 O.2     1  UNL1       -0.4558
     23 C         -29.4600    0.0050   23.8660 C.3     1  UNL1        0.2426
     24 C         -30.0650   -1.3770   23.5730 C.3     1  UNL1        0.2292
     25 O         -30.7290   -1.8780   24.7210 O.3     1  UNL1       -0.2162
     26 C         -26.3540    0.5760   25.7770 C.2     1  UNL1        0.1928
     27 F         -25.8600   -0.6810   25.7950 F       1  UNL1       -0.1992
     28 N         -29.6822    0.0054   30.6370 N.am    1  UNL1       -0.2580
     29 C         -28.1356    0.0216   28.8116 C.2     1  UNL1        0.3189
     30 C         -30.8250    1.5513   32.0479 C.3     1  UNL1        0.0790
     31 N         -31.4788    0.2542   32.1339 N.3     1  UNL1       -0.2540
     32 N         -22.4338    1.2233   27.3631 N.3     1  UNL1       -0.2642
     33 C         -24.4145    0.4673   28.2677 C.2     1  UNL1       -0.0109
     34 N         -26.7736   -0.1174   28.8244 N.am    1  UNL1       -0.1950
     35 C         -23.3149    1.5935   26.3725 C.3     1  UNL1        0.0990
     36 O         -29.0241   -1.9811   29.4449 O.2     1  UNL1       -0.2648
     37 O         -28.7932    0.7571   28.0360 O.2     1  UNL1       -0.2634
     38 C         -22.9969    0.5063   28.4772 C.3     1  UNL1        0.0965
     39 C         -30.1280    1.9966   33.3490 C.3     1  UNL1        0.0192
     40 C         -25.3909   -0.1520   29.0620 C.3     1  UNL1        0.1204
     41 C         -28.9397   -0.7193   29.6954 C.2     1  UNL1        0.3054
     42 C         -24.6001    1.3236   26.9371 C.2     1  UNL1       -0.0086
     43 C         -21.0014    1.6233   27.4416 C.3     1  UNL1        0.0901
     44 C         -31.9667   -0.9651   31.8743 C.3     1  UNL1        0.1106
     45 C         -30.5373   -0.6499   31.5872 C.3     1  UNL1        0.1531
     46 C         -29.7871    1.4620   30.9100 C.3     1  UNL1        0.1110
@<TRIPOS>BOND
     1     1    40    1
     2     2     7    1
     3     2     1    1
     4     3     2    2
     5     4     3    1
     6     4     5    2
     7     5     6    1
     8     6     7    2
     9     8     1    1
    10     8     9    1
    11     8    12    1
    12     9    10    1
    13    10    11    1
    14    12    11    1
    15    13    42    1
    16    14    13    1
    17    14    15    1
    18    15    18    2
    19    16    17    1
    20    16    15    1
    21    19    14    2
    22    20    21    2
    23    20    19    1
    24    21    26    1
    25    22    21    1
    26    23    22    1
    27    24    23    1
    28    24    25    1
    29    26    27    1
    30    26    13    2
    31    28    46    1
    32    28    45    1
    33    29    34    1
    34    29    41    1
    35    30    31    1
    36    30    39    1
    37    31    44    1
    38    32    43    1
    39    32    38    1
    40    33    38    1
    41    33    40    1
    42    35    42    1
    43    35    32    1
    44    36    41    2
    45    37    29    2
    46    40    34    1
    47    41    28   am
    48    42    33    2
    49    45    44    1
    50    45    31    1
    51    46    30    1
