@<TRIPOS>MOLECULE
outputs/IAG933/test6/raw/output_9404_IAG933_linker_design_.xyz
 44 48 0 0 0
SMALL
GASTEIGER

@<TRIPOS>ATOM
      1 C         -24.8550   -1.0120   30.1430 C.3     1  UNL1        0.0544
      2 C         -24.9730   -2.5050   29.7880 C.2     1  UNL1       -0.0198
      3 C         -23.9060   -3.1730   29.1460 C.2     1  UNL1       -0.0042
      4 C         -23.9890   -4.5490   28.8530 C.2     1  UNL1       -0.0003
      5 C         -25.1370   -5.2800   29.2050 C.2     1  UNL1       -0.0000
      6 C         -26.2320   -4.6110   29.7840 C.2     1  UNL1       -0.0003
      7 C         -26.1550   -3.2320   30.0650 C.2     1  UNL1       -0.0042
      8 C         -25.3870   -0.6790   31.5710 C.3     1  UNL1        0.0795
      9 C         -25.1890    0.7730   32.0280 C.3     1  UNL1        0.0339
     10 C         -25.3360    0.6840   33.5440 C.3     1  UNL1        0.0216
     11 C         -24.8290   -0.7150   33.9050 C.3     1  UNL1        0.0887
     12 N         -24.7580   -1.4810   32.6460 N.3     1  UNL1       -0.2190
     13 C         -25.6880    1.6140   26.4610 C.2     1  UNL1        0.1033
     14 C         -26.2500    2.9200   26.3950 C.2     1  UNL1        0.0914
     15 C         -25.6420    4.0930   27.1230 C.2     1  UNL1        0.2677
     16 N         -25.6140    5.2520   26.4490 N.am    1  UNL1       -0.1997
     17 C         -25.0260    6.4790   26.9630 C.3     1  UNL1        0.1388
     18 O         -25.1430    3.9660   28.2430 O.2     1  UNL1       -0.2683
     19 C         -27.4380    3.0910   25.6450 C.2     1  UNL1        0.1080
     20 N         -28.0750    2.0890   25.0030 N.2     1  UNL1       -0.2080
     21 C         -27.5430    0.8490   25.0790 C.2     1  UNL1        0.2546
     22 O         -28.1930   -0.2080   24.4770 O.2     1  UNL1       -0.4558
     23 C         -29.4600    0.0050   23.8660 C.3     1  UNL1        0.2426
     24 C         -30.0650   -1.3770   23.5730 C.3     1  UNL1        0.2292
     25 O         -30.7290   -1.8780   24.7210 O.3     1  UNL1       -0.2162
     26 C         -26.3540    0.5760   25.7770 C.2     1  UNL1        0.2078
     27 F         -25.8600   -0.6810   25.7950 F       1  UNL1       -0.1979
     28 O         -20.9832    1.5523   27.8850 O.2     1  UNL1       -0.2913
     29 C         -25.4751    3.7897   31.4558 C.3     1  UNL1        0.0482
     30 C         -23.2416    1.7090   26.4043 C.3     1  UNL1        0.2035
     31 C         -23.4822    0.4177   28.5835 C.3     1  UNL1        0.0466
     32 C         -25.2253    2.2045   31.3958 C.3     1  UNL1        0.0766
     33 C         -21.1775    0.3439   28.3179 C.2     1  UNL1        0.1733
     34 C         -24.4470    0.3094   29.5366 C.3     1  UNL1        0.0802
     35 CA        -23.7659    1.1747   27.3246 C.3     1  UNL1        0.1271
     36 C         -25.2910    4.5310   32.8388 C.3     1  UNL1        0.0360
     37 O         -23.4294    2.5476   25.4327 O.3     1  UNL1       -0.2185
     38 C         -22.2675   -0.0716   28.8171 C.3     1  UNL1        0.0723
     39 O         -27.6298    4.1697   32.2719 O.3     1  UNL1       -0.3537
     40 N         -25.0008    1.6693   29.9115 N.3     1  UNL1       -0.2203
     41 N         -24.4699    1.2915   27.1902 N.pl3   1  UNL1       -0.2340
     42 C         -19.9691   -0.1065   28.1676 C.2     1  UNL1        0.0404
     43 C         -26.9490    4.0999   30.9983 C.3     1  UNL1        0.1436
     44 C         -26.7453    4.6564   33.2795 C.3     1  UNL1        0.1423
@<TRIPOS>BOND
     1     1     2    1
     2     1     8    1
     3     2     7    1
     4     3     2    2
     5     4     3    1
     6     4     5    2
     7     5     6    1
     8     6     7    2
     9     8     9    1
    10     8    12    1
    11     9    10    1
    12    10    11    1
    13    12    11    1
    14    13    41    1
    15    14    13    1
    16    14    15    1
    17    15    18    2
    18    16    17    1
    19    16    15    1
    20    19    14    2
    21    20    21    2
    22    20    19    1
    23    21    26    1
    24    22    21    1
    25    23    22    1
    26    24    23    1
    27    24    25    1
    28    26    27    1
    29    26    13    2
    30    28    33    1
    31    29    43    1
    32    29    36    1
    33    31    38    1
    34    32    40    1
    35    32    29    1
    36    32     9    1
    37    33    38    1
    38    34    31    1
    39    34    40    1
    40    34     1    1
    41    35    30    1
    42    35    31    1
    43    36    44    1
    44    37    30    1
    45    39    44    1
    46    41    35    1
    47    42    33    2
    48    43    39    1
