@<TRIPOS>MOLECULE
outputs/IAG933/test6/raw/output_941_IAG933_linker_design_.xyz
 46 51 0 0 0
SMALL
GASTEIGER

@<TRIPOS>ATOM
      1 C         -24.8550   -1.0120   30.1430 C.3     1  UNL1        0.1116
      2 C         -24.9730   -2.5050   29.7880 C.2     1  UNL1       -0.0030
      3 C         -23.9060   -3.1730   29.1460 C.2     1  UNL1       -0.0026
      4 C         -23.9890   -4.5490   28.8530 C.2     1  UNL1       -0.0003
      5 C         -25.1370   -5.2800   29.2050 C.2     1  UNL1       -0.0000
      6 C         -26.2320   -4.6110   29.7840 C.2     1  UNL1       -0.0003
      7 C         -26.1550   -3.2320   30.0650 C.2     1  UNL1       -0.0026
      8 C         -25.3870   -0.6790   31.5710 C.3     1  UNL1        0.0950
      9 C         -25.1890    0.7730   32.0280 C.3     1  UNL1        0.0209
     10 C         -25.3360    0.6840   33.5440 C.3     1  UNL1        0.0203
     11 C         -24.8290   -0.7150   33.9050 C.3     1  UNL1        0.0888
     12 N         -24.7580   -1.4810   32.6460 N.3     1  UNL1       -0.2174
     13 C         -25.6880    1.6140   26.4610 C.2     1  UNL1        0.0355
     14 C         -26.2500    2.9200   26.3950 C.2     1  UNL1        0.0763
     15 C         -25.6420    4.0930   27.1230 C.2     1  UNL1        0.2664
     16 N         -25.6140    5.2520   26.4490 N.am    1  UNL1       -0.1997
     17 C         -25.0260    6.4790   26.9630 C.3     1  UNL1        0.1388
     18 O         -25.1430    3.9660   28.2430 O.2     1  UNL1       -0.2683
     19 C         -27.4380    3.0910   25.6450 C.2     1  UNL1        0.1067
     20 N         -28.0750    2.0890   25.0030 N.2     1  UNL1       -0.2081
     21 C         -27.5430    0.8490   25.0790 C.2     1  UNL1        0.2533
     22 O         -28.1930   -0.2080   24.4770 O.2     1  UNL1       -0.4558
     23 C         -29.4600    0.0050   23.8660 C.3     1  UNL1        0.2426
     24 C         -30.0650   -1.3770   23.5730 C.3     1  UNL1        0.2292
     25 O         -30.7290   -1.8780   24.7210 O.3     1  UNL1       -0.2162
     26 C         -26.3540    0.5760   25.7770 C.2     1  UNL1        0.1928
     27 F         -25.8600   -0.6810   25.7950 F       1  UNL1       -0.1992
     28 C         -29.9193    3.0591   30.9175 C.2     1  UNL1       -0.0046
     29 C         -27.6479    1.8040   29.7429 C.2     1  UNL1       -0.0248
     30 O         -22.1967    2.1211   24.8823 O.3     1  UNL1       -0.2151
     31 C         -26.5837    0.8535   29.2011 C.3     1  UNL1        0.0447
     32 C         -25.2194    0.6869   28.5538 C.3     1  UNL1        0.0996
     33 C         -22.5157    1.0342   28.0365 C.2     1  UNL1        0.1528
     34 N         -24.3031   -0.0441   29.2203 N.pl3   1  UNL1       -0.2988
     35 C         -24.7350    1.2843   27.3246 C.2     1  UNL1       -0.0008
     36 C         -28.6775    3.7268   30.9107 C.2     1  UNL1       -0.0007
     37 C         -28.8917    0.0399   28.8235 C.3     1  UNL1        0.0261
     38 C         -22.8577    0.2460   29.0857 C.2     1  UNL1        0.0915
     39 C         -28.9217    1.2635   29.5752 C.2     1  UNL1       -0.0300
     40 C         -27.4802   -0.4139   28.6940 C.3     1  UNL1        0.0110
     41 C         -23.3784    1.5437   27.0290 C.2     1  UNL1        0.0370
     42 C         -22.5469    2.1795   26.1830 C.3     1  UNL1        0.2106
     43 C         -30.0940    1.8947   30.1485 C.2     1  UNL1       -0.0261
     44 F         -21.3763    1.5300   27.5315 F       1  UNL1       -0.2031
     45 C         -31.5094    1.8327   29.5523 C.3     1  UNL1        0.0307
     46 C         -27.5316    3.0748   30.3981 C.2     1  UNL1       -0.0045
@<TRIPOS>BOND
     1     1     2    1
     2     2     7    1
     3     3     2    2
     4     4     3    1
     5     4     5    2
     6     5     6    1
     7     6     7    2
     8     8     1    1
     9     8     9    1
    10     8    12    1
    11     9    10    1
    12    10    11    1
    13    12    11    1
    14    13    35    1
    15    14    13    1
    16    14    15    1
    17    15    18    2
    18    16    17    1
    19    16    15    1
    20    19    14    2
    21    20    21    2
    22    20    19    1
    23    21    26    1
    24    22    21    1
    25    23    22    1
    26    24    23    1
    27    24    25    1
    28    26    27    1
    29    26    13    2
    30    29    46    1
    31    30    42    1
    32    31    40    1
    33    31    29    1
    34    32    35    1
    35    32    31    1
    36    32    34    1
    37    33    38    2
    38    34     1    1
    39    36    28    1
    40    37    39    1
    41    38    34    1
    42    39    29    2
    43    39    43    1
    44    40    37    1
    45    41    35    2
    46    41    33    1
    47    42    41    1
    48    43    28    2
    49    44    33    1
    50    45    43    1
    51    46    36    2
