@<TRIPOS>MOLECULE
outputs/IAG933/test6/raw/output_9410_IAG933_linker_design_.xyz
 39 42 0 0 0
SMALL
GASTEIGER

@<TRIPOS>ATOM
      1 C         -24.8550   -1.0120   30.1430 C.3     1  UNL1        0.1016
      2 C         -24.9730   -2.5050   29.7880 C.2     1  UNL1       -0.0138
      3 C         -23.9060   -3.1730   29.1460 C.2     1  UNL1       -0.0038
      4 C         -23.9890   -4.5490   28.8530 C.2     1  UNL1       -0.0003
      5 C         -25.1370   -5.2800   29.2050 C.2     1  UNL1       -0.0000
      6 C         -26.2320   -4.6110   29.7840 C.2     1  UNL1       -0.0003
      7 C         -26.1550   -3.2320   30.0650 C.2     1  UNL1       -0.0038
      8 C         -25.3870   -0.6790   31.5710 C.3     1  UNL1        0.0842
      9 C         -25.1890    0.7730   32.0280 C.3     1  UNL1        0.0196
     10 C         -25.3360    0.6840   33.5440 C.3     1  UNL1        0.0203
     11 C         -24.8290   -0.7150   33.9050 C.3     1  UNL1        0.0887
     12 N         -24.7580   -1.4810   32.6460 N.3     1  UNL1       -0.2187
     13 C         -25.6880    1.6140   26.4610 C.2     1  UNL1        0.0569
     14 C         -26.2500    2.9200   26.3950 C.2     1  UNL1        0.0779
     15 C         -25.6420    4.0930   27.1230 C.2     1  UNL1        0.2665
     16 N         -25.6140    5.2520   26.4490 N.am    1  UNL1       -0.1997
     17 C         -25.0260    6.4790   26.9630 C.3     1  UNL1        0.1388
     18 O         -25.1430    3.9660   28.2430 O.2     1  UNL1       -0.2683
     19 C         -27.4380    3.0910   25.6450 C.2     1  UNL1        0.1068
     20 N         -28.0750    2.0890   25.0030 N.2     1  UNL1       -0.2081
     21 C         -27.5430    0.8490   25.0790 C.2     1  UNL1        0.2533
     22 O         -28.1930   -0.2080   24.4770 O.2     1  UNL1       -0.4558
     23 C         -29.4600    0.0050   23.8660 C.3     1  UNL1        0.2426
     24 C         -30.0650   -1.3770   23.5730 C.3     1  UNL1        0.2292
     25 O         -30.7290   -1.8780   24.7210 O.3     1  UNL1       -0.2162
     26 C         -26.3540    0.5760   25.7770 C.2     1  UNL1        0.1944
     27 F         -25.8600   -0.6810   25.7950 F       1  UNL1       -0.1992
     28 N         -24.3544    0.5815   28.1799 N.2     1  UNL1       -0.2418
     29 C         -20.6437   -0.1693   28.6051 C.3     1  UNL1        0.0310
     30 O         -22.4991   -0.8182   30.7496 O.2     1  UNL1       -0.2894
     31 F         -20.9063    1.9037   26.5395 F       1  UNL1       -0.2264
     32 C         -24.3924    1.3366   27.1256 C.2     1  UNL1        0.1246
     33 C         -23.2320    1.6893   26.3352 C.3     1  UNL1        0.3313
     34 F         -23.1953    2.8986   25.8373 F       1  UNL1       -0.1946
     35 F         -23.4047    1.3783   25.0600 F       1  UNL1       -0.1946
     36 C         -21.9422    0.4801   28.1250 C.2     1  UNL1        0.0143
     37 C         -23.1873    0.1933   28.6976 C.2     1  UNL1        0.1108
     38 C         -23.3985   -0.5450   29.9509 C.2     1  UNL1        0.1949
     39 C         -21.9940    1.3326   27.0338 C.3     1  UNL1        0.2471
@<TRIPOS>BOND
     1     1    38    1
     2     2     7    1
     3     2     1    1
     4     3     2    2
     5     4     3    1
     6     4     5    2
     7     5     6    1
     8     6     7    2
     9     8     1    1
    10     8     9    1
    11     8    12    1
    12     9    10    1
    13    10    11    1
    14    12    11    1
    15    13    32    1
    16    14    13    1
    17    14    15    1
    18    15    18    2
    19    16    17    1
    20    16    15    1
    21    19    14    2
    22    20    21    2
    23    20    19    1
    24    21    26    1
    25    22    21    1
    26    23    22    1
    27    24    23    1
    28    24    25    1
    29    26    27    1
    30    26    13    2
    31    28    37    1
    32    32    28    2
    33    33    39    1
    34    33    32    1
    35    34    33    1
    36    35    33    1
    37    36    29    1
    38    36    37    2
    39    37    38    1
    40    38    30    2
    41    39    31    1
    42    39    36    1
