@<TRIPOS>MOLECULE
outputs/IAG933/test6/raw/output_9411_IAG933_linker_design_.xyz
 41 44 0 0 0
SMALL
GASTEIGER

@<TRIPOS>ATOM
      1 C         -24.8550   -1.0120   30.1430 C.3     1  UNL1        0.1333
      2 C         -24.9730   -2.5050   29.7880 C.2     1  UNL1       -0.0012
      3 C         -23.9060   -3.1730   29.1460 C.2     1  UNL1       -0.0026
      4 C         -23.9890   -4.5490   28.8530 C.2     1  UNL1       -0.0003
      5 C         -25.1370   -5.2800   29.2050 C.2     1  UNL1       -0.0000
      6 C         -26.2320   -4.6110   29.7840 C.2     1  UNL1       -0.0003
      7 C         -26.1550   -3.2320   30.0650 C.2     1  UNL1       -0.0026
      8 C         -25.3870   -0.6790   31.5710 C.3     1  UNL1        0.0969
      9 C         -25.1890    0.7730   32.0280 C.3     1  UNL1        0.0210
     10 C         -25.3360    0.6840   33.5440 C.3     1  UNL1        0.0203
     11 C         -24.8290   -0.7150   33.9050 C.3     1  UNL1        0.0888
     12 N         -24.7580   -1.4810   32.6460 N.3     1  UNL1       -0.2174
     13 C         -25.6880    1.6140   26.4610 C.3     1  UNL1        0.0980
     14 C         -26.2500    2.9200   26.3950 C.2     1  UNL1        0.0572
     15 C         -25.6420    4.0930   27.1230 C.2     1  UNL1        0.2625
     16 N         -25.6140    5.2520   26.4490 N.am    1  UNL1       -0.2000
     17 C         -25.0260    6.4790   26.9630 C.3     1  UNL1        0.1388
     18 O         -25.1430    3.9660   28.2430 O.2     1  UNL1       -0.2687
     19 C         -27.4380    3.0910   25.6450 C.2     1  UNL1        0.1022
     20 N         -28.0750    2.0890   25.0030 N.2     1  UNL1       -0.2119
     21 C         -27.5430    0.8490   25.0790 C.2     1  UNL1        0.2342
     22 O         -28.1930   -0.2080   24.4770 O.2     1  UNL1       -0.4585
     23 C         -29.4600    0.0050   23.8660 C.3     1  UNL1        0.2423
     24 C         -30.0650   -1.3770   23.5730 C.3     1  UNL1        0.2292
     25 O         -30.7290   -1.8780   24.7210 O.3     1  UNL1       -0.2162
     26 C         -26.3540    0.5760   25.7770 C.3     1  UNL1        0.2424
     27 F         -25.8600   -0.6810   25.7950 F       1  UNL1       -0.2268
     28 C         -24.1830    1.6680   26.5886 C.3     1  UNL1        0.1387
     29 C         -22.1093    1.4073   29.0176 C.2     1  UNL1        0.0611
     30 C         -23.9237    0.2401   28.2212 C.2     1  UNL1        0.2460
     31 F         -22.7929    1.1242   23.7360 F       1  UNL1       -0.1703
     32 O         -23.8867    2.3466   25.3065 O.3     1  UNL1       -0.3050
     33 C         -23.5500    1.2308   27.2278 C.3     1  UNL1        0.1334
     34 C         -22.1533    1.5178   27.0919 C.3     1  UNL1        0.1365
     35 N         -23.9065   -0.0631   29.6091 N.am    1  UNL1       -0.2011
     36 O         -24.7739   -0.7238   27.5670 O.2     1  UNL1       -0.2732
     37 C         -22.8214    1.9540   30.1402 C.1     1  UNL1        0.1294
     38 O         -23.2784    2.7131   30.7422 O.2     1  UNL1       -0.2314
     39 O         -21.6483    1.6585   25.7251 O.3     1  UNL1       -0.3051
     40 C         -22.7400    1.7512   24.7911 C.3     1  UNL1        0.4122
     41 C         -21.3088    1.8439   28.0860 C.3     1  UNL1        0.0680
@<TRIPOS>BOND
     1     1    35    1
     2     2     7    1
     3     2     1    1
     4     3     2    2
     5     4     3    1
     6     4     5    2
     7     5     6    1
     8     6     7    2
     9     8     1    1
    10     8     9    1
    11     8    12    1
    12     9    10    1
    13    10    11    1
    14    12    11    1
    15    13    14    1
    16    13    28    1
    17    14    15    1
    18    15    18    2
    19    16    17    1
    20    16    15    1
    21    19    14    2
    22    20    21    2
    23    20    19    1
    24    21    26    1
    25    22    21    1
    26    23    22    1
    27    24    23    1
    28    24    25    1
    29    26    27    1
    30    26    13    1
    31    28    32    1
    32    28    33    1
    33    29    37    2
    34    30    35    1
    35    33    30    1
    36    34    33    1
    37    34    41    1
    38    36    30    2
    39    37    38    2
    40    39    34    1
    41    40    31    1
    42    40    32    1
    43    40    39    1
    44    41    29    1
