@<TRIPOS>MOLECULE
outputs/IAG933/test6/raw/output_9414_IAG933_linker_design_.xyz
 48 53 0 0 0
SMALL
GASTEIGER

@<TRIPOS>ATOM
      1 C         -24.8550   -1.0120   30.1430 C.3     1  UNL1        0.0636
      2 C         -24.9730   -2.5050   29.7880 C.2     1  UNL1       -0.0168
      3 C         -23.9060   -3.1730   29.1460 C.2     1  UNL1       -0.0039
      4 C         -23.9890   -4.5490   28.8530 C.2     1  UNL1       -0.0003
      5 C         -25.1370   -5.2800   29.2050 C.2     1  UNL1       -0.0000
      6 C         -26.2320   -4.6110   29.7840 C.2     1  UNL1       -0.0003
      7 C         -26.1550   -3.2320   30.0650 C.2     1  UNL1       -0.0039
      8 C         -25.3870   -0.6790   31.5710 C.3     1  UNL1        0.0811
      9 C         -25.1890    0.7730   32.0280 C.3     1  UNL1        0.0195
     10 C         -25.3360    0.6840   33.5440 C.3     1  UNL1        0.0203
     11 C         -24.8290   -0.7150   33.9050 C.3     1  UNL1        0.0887
     12 N         -24.7580   -1.4810   32.6460 N.3     1  UNL1       -0.2188
     13 C         -25.6880    1.6140   26.4610 C.2     1  UNL1        0.0162
     14 C         -26.2500    2.9200   26.3950 C.2     1  UNL1        0.0726
     15 C         -25.6420    4.0930   27.1230 C.2     1  UNL1        0.2661
     16 N         -25.6140    5.2520   26.4490 N.am    1  UNL1       -0.1997
     17 C         -25.0260    6.4790   26.9630 C.3     1  UNL1        0.1388
     18 O         -25.1430    3.9660   28.2430 O.2     1  UNL1       -0.2683
     19 C         -27.4380    3.0910   25.6450 C.2     1  UNL1        0.1064
     20 N         -28.0750    2.0890   25.0030 N.2     1  UNL1       -0.2081
     21 C         -27.5430    0.8490   25.0790 C.2     1  UNL1        0.2530
     22 O         -28.1930   -0.2080   24.4770 O.2     1  UNL1       -0.4558
     23 C         -29.4600    0.0050   23.8660 C.3     1  UNL1        0.2426
     24 C         -30.0650   -1.3770   23.5730 C.3     1  UNL1        0.2292
     25 O         -30.7290   -1.8780   24.7210 O.3     1  UNL1       -0.2162
     26 C         -26.3540    0.5760   25.7770 C.2     1  UNL1        0.1891
     27 F         -25.8600   -0.6810   25.7950 F       1  UNL1       -0.1996
     28 C         -23.0087    0.0523   28.6884 C.3     1  UNL1        0.0050
     29 C         -28.9404    2.0824   30.0437 C.3     1  UNL1        0.0391
     30 C         -21.9090    0.3754   28.0346 C.3     1  UNL1        0.0004
     31 C         -29.9226    6.2579   28.7071 C.2     1  UNL1        0.0098
     32 C         -30.2599    4.4165   26.7373 C.3     1  UNL1        0.1172
     33 C         -28.7155    0.9608   29.2433 C.2     1  UNL1        0.0462
     34 C         -30.3282    5.0319   29.0827 C.2     1  UNL1        0.0251
     35 O         -29.8989   -0.4590   27.7020 O.2     1  UNL1       -0.2910
     36 N         -30.2966    4.2456   28.0647 N.pl3   1  UNL1       -0.3081
     37 C         -30.4216    4.3808   30.3796 C.3     1  UNL1        0.0431
     38 C         -31.1077    1.3216   28.6692 C.3     1  UNL1        0.0891
     39 C         -24.5184    1.4454   27.1102 C.3     1  UNL1        0.0336
     40 C         -29.7415    5.6557   26.2501 C.2     1  UNL1       -0.0047
     41 C         -29.8393    0.4348   28.5096 C.2     1  UNL1        0.1777
     42 C         -21.4726    1.7936   27.7950 C.3     1  UNL1        0.0000
     43 C         -29.7774    3.0157   30.1957 C.3     1  UNL1        0.0293
     44 C         -29.5131    6.6456   27.3632 C.2     1  UNL1       -0.0019
     45 C         -24.4374    0.7764   28.4825 C.3     1  UNL1        0.0302
     46 C         -27.2482    0.4561   29.2089 C.1     1  UNL1       -0.1115
     47 C         -25.5286   -0.0035   29.2352 C.2     1  UNL1       -0.0051
     48 C         -30.5694    2.7478   28.8189 C.3     1  UNL1        0.0812
@<TRIPOS>BOND
     1     1    47    1
     2     2     7    1
     3     2     1    1
     4     3     2    2
     5     4     3    1
     6     4     5    2
     7     5     6    1
     8     6     7    2
     9     8     1    1
    10     8     9    1
    11     8    12    1
    12     9    10    1
    13    10    11    1
    14    12    11    1
    15    13    39    1
    16    14    13    1
    17    14    15    1
    18    15    18    2
    19    16    17    1
    20    16    15    1
    21    19    14    2
    22    20    21    2
    23    20    19    1
    24    21    26    1
    25    22    21    1
    26    23    22    1
    27    24    23    1
    28    24    25    1
    29    26    27    1
    30    26    13    2
    31    30    28    1
    32    31    34    2
    33    32    36    1
    34    33    29    1
    35    34    37    1
    36    35    41    2
    37    36    48    1
    38    36    34    1
    39    40    32    1
    40    40    44    2
    41    41    38    1
    42    41    33    1
    43    42    30    1
    44    43    29    1
    45    43    37    1
    46    44    31    1
    47    45    39    1
    48    45    28    1
    49    45    47    1
    50    46    47    2
    51    46    33    2
    52    48    38    1
    53    48    43    1
