@<TRIPOS>MOLECULE
outputs/IAG933/test6/raw/output_9416_IAG933_linker_design_.xyz
 43 45 0 0 0
SMALL
GASTEIGER

@<TRIPOS>ATOM
      1 C         -24.8550   -1.0120   30.1430 C.3     1  UNL1        0.0451
      2 C         -24.9730   -2.5050   29.7880 C.2     1  UNL1       -0.0207
      3 C         -23.9060   -3.1730   29.1460 C.2     1  UNL1       -0.0042
      4 C         -23.9890   -4.5490   28.8530 C.2     1  UNL1       -0.0003
      5 C         -25.1370   -5.2800   29.2050 C.2     1  UNL1       -0.0000
      6 C         -26.2320   -4.6110   29.7840 C.2     1  UNL1       -0.0003
      7 C         -26.1550   -3.2320   30.0650 C.2     1  UNL1       -0.0042
      8 C         -25.3870   -0.6790   31.5710 C.3     1  UNL1        0.0932
      9 C         -25.1890    0.7730   32.0280 C.3     1  UNL1        0.0941
     10 C         -25.3360    0.6840   33.5440 C.3     1  UNL1        0.0377
     11 C         -24.8290   -0.7150   33.9050 C.3     1  UNL1        0.0902
     12 N         -24.7580   -1.4810   32.6460 N.3     1  UNL1       -0.2177
     13 C         -25.6880    1.6140   26.4610 C.2     1  UNL1        0.0407
     14 C         -26.2500    2.9200   26.3950 C.2     1  UNL1        0.0744
     15 C         -25.6420    4.0930   27.1230 C.2     1  UNL1        0.2220
     16 N         -25.6140    5.2520   26.4490 N.2     1  UNL1       -0.2357
     17 C         -25.0260    6.4790   26.9630 C.3     1  UNL1        0.1550
     18 O         -25.1430    3.9660   28.2430 O.2     1  UNL1       -0.4583
     19 C         -27.4380    3.0910   25.6450 C.2     1  UNL1        0.1068
     20 N         -28.0750    2.0890   25.0030 N.2     1  UNL1       -0.2081
     21 C         -27.5430    0.8490   25.0790 C.2     1  UNL1        0.2533
     22 O         -28.1930   -0.2080   24.4770 O.2     1  UNL1       -0.4558
     23 C         -29.4600    0.0050   23.8660 C.3     1  UNL1        0.2426
     24 C         -30.0650   -1.3770   23.5730 C.3     1  UNL1        0.2292
     25 O         -30.7290   -1.8780   24.7210 O.3     1  UNL1       -0.2162
     26 C         -26.3540    0.5760   25.7770 C.2     1  UNL1        0.1931
     27 F         -25.8600   -0.6810   25.7950 F       1  UNL1       -0.1992
     28 O         -23.0925    2.0960   29.0237 O.3     1  UNL1       -0.4289
     29 C         -26.8618    3.8696   33.1212 C.3     1  UNL1        0.1429
     30 N         -27.6652    4.8620   29.4073 N.am    1  UNL1       -0.0877
     31 C         -21.4394    1.4079   27.6517 C.3     1  UNL1        0.3017
     32 C         -28.6299    5.5247   32.7590 C.3     1  UNL1        0.1741
     33 C         -25.8263    3.7147   30.6318 C.3     1  UNL1        0.1275
     34 C         -23.9943    2.2485   30.0573 C.3     1  UNL1        0.2847
     35 O         -27.2203    5.2912   33.0601 O.3     1  UNL1       -0.3511
     36 C         -24.9807    3.2552   29.4352 C.3     1  UNL1        0.2332
     37 C         -25.6706    3.5428   32.1806 C.3     1  UNL1        0.0451
     38 N         -24.5802    1.5970   31.0806 N.3     1  UNL1       -0.1769
     39 O         -25.9452    6.0956   30.2508 O.2     1  UNL1       -0.2715
     40 C         -22.2433    1.0095   28.9005 C.2     1  UNL1        0.3547
     41 C         -26.4559    5.0451   30.0981 C.2     1  UNL1        0.2641
     42 F         -22.3465    1.4103   26.6152 F       1  UNL1       -0.2215
     43 O         -22.3295   -0.0633   29.4220 O.2     1  UNL1       -0.2469
@<TRIPOS>BOND
     1     2     7    1
     2     2     1    1
     3     3     2    2
     4     4     3    1
     5     4     5    2
     6     5     6    1
     7     6     7    2
     8     8     1    1
     9     8     9    1
    10     8    12    1
    11     9    38    1
    12     9    10    1
    13    10    11    1
    14    12    11    1
    15    14    13    1
    16    14    15    1
    17    15    18    1
    18    16    17    1
    19    16    15    2
    20    19    14    2
    21    20    21    2
    22    20    19    1
    23    21    26    1
    24    22    21    1
    25    23    22    1
    26    24    23    1
    27    24    25    1
    28    26    27    1
    29    26    13    2
    30    30    41    1
    31    31    40    1
    32    32    35    1
    33    33    37    1
    34    34    28    1
    35    34    38    1
    36    35    29    1
    37    36    18    1
    38    36    34    1
    39    36    33    1
    40    37    29    1
    41    40    28    1
    42    40    43    2
    43    41    39    2
    44    41    33    1
    45    42    31    1
