@<TRIPOS>MOLECULE
outputs/IAG933/test6/raw/output_9417_IAG933_linker_design_.xyz
 46 49 0 0 0
SMALL
GASTEIGER

@<TRIPOS>ATOM
      1 C         -24.8550   -1.0120   30.1430 C.3     1  UNL1        0.2427
      2 C         -24.9730   -2.5050   29.7880 C.2     1  UNL1        0.0253
      3 C         -23.9060   -3.1730   29.1460 C.2     1  UNL1       -0.0003
      4 C         -23.9890   -4.5490   28.8530 C.2     1  UNL1       -0.0002
      5 C         -25.1370   -5.2800   29.2050 C.2     1  UNL1       -0.0000
      6 C         -26.2320   -4.6110   29.7840 C.2     1  UNL1       -0.0002
      7 C         -26.1550   -3.2320   30.0650 C.2     1  UNL1       -0.0003
      8 C         -25.3870   -0.6790   31.5710 C.3     1  UNL1        0.1239
      9 C         -25.1890    0.7730   32.0280 C.3     1  UNL1        0.0235
     10 C         -25.3360    0.6840   33.5440 C.3     1  UNL1        0.0204
     11 C         -24.8290   -0.7150   33.9050 C.3     1  UNL1        0.0889
     12 N         -24.7580   -1.4810   32.6460 N.3     1  UNL1       -0.2149
     13 C         -25.6880    1.6140   26.4610 C.2     1  UNL1        0.0407
     14 C         -26.2500    2.9200   26.3950 C.2     1  UNL1        0.0746
     15 C         -25.6420    4.0930   27.1230 C.2     1  UNL1        0.2268
     16 N         -25.6140    5.2520   26.4490 N.2     1  UNL1       -0.2355
     17 C         -25.0260    6.4790   26.9630 C.3     1  UNL1        0.1550
     18 O         -25.1430    3.9660   28.2430 O.2     1  UNL1       -0.4076
     19 C         -27.4380    3.0910   25.6450 C.2     1  UNL1        0.1068
     20 N         -28.0750    2.0890   25.0030 N.2     1  UNL1       -0.2081
     21 C         -27.5430    0.8490   25.0790 C.2     1  UNL1        0.2533
     22 O         -28.1930   -0.2080   24.4770 O.2     1  UNL1       -0.4558
     23 C         -29.4600    0.0050   23.8660 C.3     1  UNL1        0.2426
     24 C         -30.0650   -1.3770   23.5730 C.3     1  UNL1        0.2292
     25 O         -30.7290   -1.8780   24.7210 O.3     1  UNL1       -0.2162
     26 C         -26.3540    0.5760   25.7770 C.2     1  UNL1        0.1931
     27 F         -25.8600   -0.6810   25.7950 F       1  UNL1       -0.1992
     28 O         -21.0551    1.7778   27.1981 O.3     1  UNL1       -0.2198
     29 C         -28.6603    3.9466   33.7269 C.2     1  UNL1        0.0766
     30 N         -24.0092    1.2414   28.6069 N.2     1  UNL1        0.1591
     31 C         -27.5817    4.1823   29.7711 C.2     1  UNL1        0.2695
     32 C         -27.8949    5.2966   30.6963 C.3     1  UNL1        0.2028
     33 C         -23.2933    0.1331   28.7397 C.2     1  UNL1        0.3859
     34 N         -23.5419   -0.5704   29.9330 N.pl3   1  UNL1       -0.0301
     35 O         -24.5555    2.2403   29.6180 O.2     1  UNL1       -0.2117
     36 C         -25.5539    3.0643   29.3175 C.3     1  UNL1        0.5030
     37 N         -28.1116    5.0043   32.1027 N.pl3   1  UNL1       -0.1979
     38 C         -30.1999    7.1364   35.1027 C.3     1  UNL1        0.2543
     39 N         -28.4445    5.8713   33.0597 N.2     1  UNL1       -0.1400
     40 C         -28.1749    3.7759   32.5361 C.2     1  UNL1        0.0895
     41 O         -29.5891    5.8231   35.2609 O.2     1  UNL1       -0.4553
     42 C         -21.7734    0.4826   28.9702 C.3     1  UNL1        0.1607
     43 C         -28.9590    5.2893   34.1112 C.2     1  UNL1        0.2413
     44 N         -26.5400    3.4582   30.0554 N.am    1  UNL1       -0.1203
     45 C         -20.6733    0.8266   27.9818 C.3     1  UNL1        0.1951
     46 O         -28.2470    3.9312   28.7540 O.2     1  UNL1       -0.2712
@<TRIPOS>BOND
     1     1    34    1
     2     2     7    1
     3     2     1    1
     4     3     2    2
     5     4     3    1
     6     4     5    2
     7     5     6    1
     8     6     7    2
     9     8     1    1
    10     8     9    1
    11     8    12    1
    12     9    10    1
    13    10    11    1
    14    12    11    1
    15    14    13    1
    16    14    15    1
    17    15    18    1
    18    16    17    1
    19    16    15    2
    20    19    14    2
    21    20    21    2
    22    20    19    1
    23    21    26    1
    24    22    21    1
    25    23    22    1
    26    24    23    1
    27    24    25    1
    28    26    27    1
    29    26    13    2
    30    28    45    1
    31    29    43    1
    32    30    33    2
    33    30    35    1
    34    31    44    1
    35    31    32    1
    36    32    37    1
    37    33    42    1
    38    33    34    1
    39    36    18    1
    40    36    35    1
    41    36    44    1
    42    37    40    1
    43    37    39    1
    44    38    41    1
    45    39    43    2
    46    40    29    2
    47    43    41    1
    48    45    42    1
    49    46    31    2
