@<TRIPOS>MOLECULE
No_942-gen_results/8p0m/2024-11-27-11-27-31/
 21 23 0 0 0
SMALL
GASTEIGER

@<TRIPOS>ATOM
      1 C         -28.0162   -0.8135   28.8779 C.ar    1  UNL1        0.0257
      2 C         -28.4690   -0.7850   29.8287 C.ar    1  UNL1        0.0775
      3 C         -26.5455   -0.8762   28.8500 C.ar    1  UNL1        0.0847
      4 C         -25.8041   -1.0324   30.0571 C.ar    1  UNL1        0.0179
      5 C         -26.5373   -1.0386   31.2171 C.ar    1  UNL1        0.0017
      6 C         -27.8843   -0.9532   31.1862 C.ar    1  UNL1        0.0065
      7 C         -24.3655   -1.1134   30.0483 C.ar    1  UNL1        0.0061
      8 C         -23.7447   -1.3690   30.8125 C.ar    1  UNL1        0.0002
      9 C         -22.2072   -1.2504   30.8577 C.ar    1  UNL1        0.0000
     10 C         -21.6856   -0.8191   29.6527 C.ar    1  UNL1        0.0002
     11 C         -23.7345   -0.6112   28.7797 C.ar    1  UNL1        0.0579
     12 C         -22.4343   -0.4609   28.6549 C.ar    1  UNL1        0.0048
     13 C         -30.0596   -0.6697   29.9158 C.2     1  UNL1        0.3458
     14 O         -30.5098   -0.1904   28.9838 O.3     1  UNL1       -0.4182
     15 O         -30.7351   -1.0516   30.9387 O.2     1  UNL1       -0.2445
     16 N         -25.8503   -0.7855   27.6723 N.ar    1  UNL1       -0.2079
     17 C         -24.6557   -0.4377   27.6451 C.ar    1  UNL1        0.2791
     18 O         -24.2946    0.4142   26.7394 O.2     1  UNL1       -0.2652
     19 C         -30.7026    0.9035   28.6004 C.2     1  UNL1        0.1785
     20 C         -30.9839    1.8370   29.1740 C.2     1  UNL1        0.0149
     21 C         -31.0803    2.9406   29.2398 C.3     1  UNL1        0.0341
@<TRIPOS>BOND
     1     4     7   ar
     2     2    13    1
     3    13    14    1
     4    13    15    2
     5     3    16   ar
     6    11    17   ar
     7    16    17   ar
     8    17    18    2
     9    14    19    1
    10    19    20    2
    11    20    21    1
    12     7     8   ar
    13     8     9   ar
    14     9    10   ar
    15    10    12   ar
    16    12    11   ar
    17    11     7   ar
    18     1     2   ar
    19     2     6   ar
    20     6     5   ar
    21     5     4   ar
    22     4     3   ar
    23     3     1   ar
