@<TRIPOS>MOLECULE
outputs/IAG933/test6/raw/output_9420_IAG933_linker_design_.xyz
 41 44 0 0 0
SMALL
GASTEIGER

@<TRIPOS>ATOM
      1 C         -24.8550   -1.0120   30.1430 C.3     1  UNL1        0.0451
      2 C         -24.9730   -2.5050   29.7880 C.2     1  UNL1       -0.0207
      3 C         -23.9060   -3.1730   29.1460 C.2     1  UNL1       -0.0042
      4 C         -23.9890   -4.5490   28.8530 C.2     1  UNL1       -0.0003
      5 C         -25.1370   -5.2800   29.2050 C.2     1  UNL1       -0.0000
      6 C         -26.2320   -4.6110   29.7840 C.2     1  UNL1       -0.0003
      7 C         -26.1550   -3.2320   30.0650 C.2     1  UNL1       -0.0042
      8 C         -25.3870   -0.6790   31.5710 C.3     1  UNL1        0.0917
      9 C         -25.1890    0.7730   32.0280 C.3     1  UNL1        0.0758
     10 C         -25.3360    0.6840   33.5440 C.3     1  UNL1        0.0362
     11 C         -24.8290   -0.7150   33.9050 C.3     1  UNL1        0.0901
     12 N         -24.7580   -1.4810   32.6460 N.3     1  UNL1       -0.2177
     13 C         -25.6880    1.6140   26.4610 C.3     1  UNL1        0.0861
     14 C         -26.2500    2.9200   26.3950 C.2     1  UNL1        0.0562
     15 C         -25.6420    4.0930   27.1230 C.2     1  UNL1        0.2625
     16 N         -25.6140    5.2520   26.4490 N.am    1  UNL1       -0.2000
     17 C         -25.0260    6.4790   26.9630 C.3     1  UNL1        0.1388
     18 O         -25.1430    3.9660   28.2430 O.2     1  UNL1       -0.2687
     19 C         -27.4380    3.0910   25.6450 C.2     1  UNL1        0.1022
     20 N         -28.0750    2.0890   25.0030 N.2     1  UNL1       -0.2119
     21 C         -27.5430    0.8490   25.0790 C.2     1  UNL1        0.2341
     22 O         -28.1930   -0.2080   24.4770 O.2     1  UNL1       -0.4585
     23 C         -29.4600    0.0050   23.8660 C.3     1  UNL1        0.2423
     24 C         -30.0650   -1.3770   23.5730 C.3     1  UNL1        0.2292
     25 O         -30.7290   -1.8780   24.7210 O.3     1  UNL1       -0.2162
     26 C         -26.3540    0.5760   25.7770 C.3     1  UNL1        0.2413
     27 F         -25.8600   -0.6810   25.7950 F       1  UNL1       -0.2268
     28 N         -24.8165    1.6997   30.7896 N.3     1  UNL1       -0.2620
     29 CL        -23.1610    2.4979   25.0678 Cl      1  UNL1       -0.0970
     30 N         -23.6376    1.3599   27.4916 N.3     1  UNL1       -0.2607
     31 C         -23.3625    0.9490   30.0633 C.3     1  UNL1        0.0887
     32 C         -21.6626    1.7845   27.0882 C.3     1  UNL1        0.0342
     33 C         -24.4143    3.0433   31.5512 C.3     1  UNL1        0.1809
     34 C         -24.8510    1.0669   27.3101 C.3     1  UNL1        0.0809
     35 C         -21.7109    1.3911   28.3808 C.3     1  UNL1        0.0201
     36 C         -23.0243    1.2233   28.7204 C.3     1  UNL1        0.0746
     37 O         -26.0687    4.8128   31.1612 O.2     1  UNL1       -0.2659
     38 O         -24.4927    5.0975   33.0222 O.3     1  UNL1       -0.1475
     39 N         -26.3825    3.5428   33.4083 N.3     1  UNL1       -0.0436
     40 P         -25.4820    4.1300   32.2248 P.3     1  UNL1        0.3566
     41 C         -22.9001    1.8464   26.6059 C.3     1  UNL1        0.1387
@<TRIPOS>BOND
     1     2     7    1
     2     2     1    1
     3     3     2    2
     4     4     3    1
     5     4     5    2
     6     5     6    1
     7     6     7    2
     8     8     1    1
     9     8     9    1
    10     8    12    1
    11     9    28    1
    12     9    10    1
    13    10    11    1
    14    12    11    1
    15    13    34    1
    16    14    13    1
    17    14    15    1
    18    15    18    2
    19    16    17    1
    20    16    15    1
    21    19    14    2
    22    20    21    2
    23    20    19    1
    24    21    26    1
    25    22    21    1
    26    23    22    1
    27    24    23    1
    28    24    25    1
    29    26    27    1
    30    26    13    1
    31    28    33    1
    32    30    36    1
    33    31    28    1
    34    32    35    1
    35    33    40    1
    36    34    30    1
    37    35    36    1
    38    36    31    1
    39    40    37    2
    40    40    38    1
    41    40    39    1
    42    41    29    1
    43    41    32    1
    44    41    30    1
