@<TRIPOS>MOLECULE
outputs/IAG933/test6/raw/output_9421_IAG933_linker_design_.xyz
 44 47 0 0 0
SMALL
GASTEIGER

@<TRIPOS>ATOM
      1 C         -24.8550   -1.0120   30.1430 C.3     1  UNL1        0.0413
      2 C         -24.9730   -2.5050   29.7880 C.2     1  UNL1       -0.0211
      3 C         -23.9060   -3.1730   29.1460 C.2     1  UNL1       -0.0042
      4 C         -23.9890   -4.5490   28.8530 C.2     1  UNL1       -0.0003
      5 C         -25.1370   -5.2800   29.2050 C.2     1  UNL1       -0.0000
      6 C         -26.2320   -4.6110   29.7840 C.2     1  UNL1       -0.0003
      7 C         -26.1550   -3.2320   30.0650 C.2     1  UNL1       -0.0042
      8 C         -25.3870   -0.6790   31.5710 C.3     1  UNL1        0.0769
      9 C         -25.1890    0.7730   32.0280 C.3     1  UNL1        0.0192
     10 C         -25.3360    0.6840   33.5440 C.3     1  UNL1        0.0202
     11 C         -24.8290   -0.7150   33.9050 C.3     1  UNL1        0.0887
     12 N         -24.7580   -1.4810   32.6460 N.3     1  UNL1       -0.2191
     13 C         -25.6880    1.6140   26.4610 C.3     1  UNL1        0.0702
     14 C         -26.2500    2.9200   26.3950 C.2     1  UNL1        0.0548
     15 C         -25.6420    4.0930   27.1230 C.2     1  UNL1        0.2624
     16 N         -25.6140    5.2520   26.4490 N.am    1  UNL1       -0.2000
     17 C         -25.0260    6.4790   26.9630 C.3     1  UNL1        0.1388
     18 O         -25.1430    3.9660   28.2430 O.2     1  UNL1       -0.2687
     19 C         -27.4380    3.0910   25.6450 C.2     1  UNL1        0.1021
     20 N         -28.0750    2.0890   25.0030 N.2     1  UNL1       -0.2119
     21 C         -27.5430    0.8490   25.0790 C.2     1  UNL1        0.2341
     22 O         -28.1930   -0.2080   24.4770 O.2     1  UNL1       -0.4585
     23 C         -29.4600    0.0050   23.8660 C.3     1  UNL1        0.2423
     24 C         -30.0650   -1.3770   23.5730 C.3     1  UNL1        0.2292
     25 O         -30.7290   -1.8780   24.7210 O.3     1  UNL1       -0.2162
     26 C         -26.3540    0.5760   25.7770 C.3     1  UNL1        0.2400
     27 F         -25.8600   -0.6810   25.7950 F       1  UNL1       -0.2269
     28 C         -24.2526    1.5792   26.6097 C.3     1  UNL1        0.0103
     29 C         -27.5172    3.6732   31.5610 C.3     1  UNL1        0.0274
     30 O         -22.3753   -0.0925   29.3282 O.3     1  UNL1       -0.2231
     31 C         -23.0882    1.3967   27.6171 C.3     1  UNL1        0.0309
     32 C         -25.0487    0.0285   28.9262 C.3     1  UNL1        0.0449
     33 C         -23.5857    0.6760   28.8473 C.3     1  UNL1        0.1527
     34 C         -21.6813    1.8350   27.3547 C.3     1  UNL1        0.0026
     35 C         -26.4270    0.7223   28.6863 C.3     1  UNL1        0.0897
     36 C         -27.6949    0.2229   29.4343 C.2     1  UNL1        0.2414
     37 C         -28.5561    2.5204   31.4663 C.3     1  UNL1        0.0250
     38 C         -30.6412    2.2215   30.2895 C.3     1  UNL1        0.0221
     39 C         -28.1541    4.9197   31.0036 C.2     1  UNL1       -0.0306
     40 C         -29.0820    3.4142   29.1672 C.3     1  UNL1        0.0457
     41 N         -28.5715    1.1347   29.5657 N.am    1  UNL1       -0.2085
     42 C         -28.9280    4.7929   29.7373 C.2     1  UNL1       -0.0290
     43 C         -29.1745    2.3237   30.0555 C.3     1  UNL1        0.0830
     44 O         -28.0519   -0.9848   29.3288 O.2     1  UNL1       -0.2733
@<TRIPOS>BOND
     1     1    32    1
     2     2     7    1
     3     2     1    1
     4     3     2    2
     5     4     3    1
     6     4     5    2
     7     5     6    1
     8     6     7    2
     9     8     1    1
    10     8     9    1
    11     8    12    1
    12     9    10    1
    13    10    11    1
    14    12    11    1
    15    13    28    1
    16    14    13    1
    17    14    15    1
    18    15    18    2
    19    16    17    1
    20    16    15    1
    21    19    14    2
    22    20    21    2
    23    20    19    1
    24    21    26    1
    25    22    21    1
    26    23    22    1
    27    24    23    1
    28    24    25    1
    29    26    27    1
    30    26    13    1
    31    28    31    1
    32    31    34    1
    33    31    33    1
    34    32    35    1
    35    33    32    1
    36    33    30    1
    37    35    36    1
    38    36    41    1
    39    37    29    1
    40    39    29    1
    41    40    42    1
    42    40    43    1
    43    41    43    1
    44    42    39    2
    45    43    38    1
    46    43    37    1
    47    44    36    2
