@<TRIPOS>MOLECULE
outputs/IAG933/test6/raw/output_9423_IAG933_linker_design_.xyz
 46 51 0 0 0
SMALL
GASTEIGER

@<TRIPOS>ATOM
      1 C         -24.8550   -1.0120   30.1430 C.3     1  UNL1        0.0698
      2 C         -24.9730   -2.5050   29.7880 C.2     1  UNL1       -0.0184
      3 C         -23.9060   -3.1730   29.1460 C.2     1  UNL1       -0.0041
      4 C         -23.9890   -4.5490   28.8530 C.2     1  UNL1       -0.0003
      5 C         -25.1370   -5.2800   29.2050 C.2     1  UNL1       -0.0000
      6 C         -26.2320   -4.6110   29.7840 C.2     1  UNL1       -0.0003
      7 C         -26.1550   -3.2320   30.0650 C.2     1  UNL1       -0.0041
      8 C         -25.3870   -0.6790   31.5710 C.3     1  UNL1        0.0795
      9 C         -25.1890    0.7730   32.0280 C.3     1  UNL1        0.0193
     10 C         -25.3360    0.6840   33.5440 C.3     1  UNL1        0.0202
     11 C         -24.8290   -0.7150   33.9050 C.3     1  UNL1        0.0887
     12 N         -24.7580   -1.4810   32.6460 N.3     1  UNL1       -0.2190
     13 C         -25.6880    1.6140   26.4610 C.2     1  UNL1        0.0409
     14 C         -26.2500    2.9200   26.3950 C.2     1  UNL1        0.0766
     15 C         -25.6420    4.0930   27.1230 C.2     1  UNL1        0.2664
     16 N         -25.6140    5.2520   26.4490 N.am    1  UNL1       -0.1997
     17 C         -25.0260    6.4790   26.9630 C.3     1  UNL1        0.1388
     18 O         -25.1430    3.9660   28.2430 O.2     1  UNL1       -0.2683
     19 C         -27.4380    3.0910   25.6450 C.2     1  UNL1        0.1067
     20 N         -28.0750    2.0890   25.0030 N.2     1  UNL1       -0.2081
     21 C         -27.5430    0.8490   25.0790 C.2     1  UNL1        0.2533
     22 O         -28.1930   -0.2080   24.4770 O.2     1  UNL1       -0.4558
     23 C         -29.4600    0.0050   23.8660 C.3     1  UNL1        0.2426
     24 C         -30.0650   -1.3770   23.5730 C.3     1  UNL1        0.2292
     25 O         -30.7290   -1.8780   24.7210 O.3     1  UNL1       -0.2162
     26 C         -26.3540    0.5760   25.7770 C.2     1  UNL1        0.1931
     27 F         -25.8600   -0.6810   25.7950 F       1  UNL1       -0.1992
     28 N         -27.7959    0.1313   30.2515 N.3     1  UNL1       -0.1292
     29 C         -22.6542    0.2524   28.7981 C.2     1  UNL1       -0.0017
     30 O         -26.2106   -0.4432   28.2319 O.3     1  UNL1       -0.3262
     31 C         -28.7732    1.9199   29.3272 C.2     1  UNL1        0.0028
     32 C         -24.0273    0.4353   28.3199 C.2     1  UNL1        0.0081
     33 C         -27.4364    2.7074   31.2127 C.2     1  UNL1        0.0210
     34 C         -29.4219    4.0361   30.5881 C.2     1  UNL1       -0.0002
     35 C         -28.6430    0.9831   28.1467 C.3     1  UNL1        0.0917
     36 C         -29.6215    3.0801   29.5132 C.2     1  UNL1       -0.0025
     37 O         -22.8821    2.4283   25.2853 O.2     1  UNL1       -0.2866
     38 C         -21.5819    1.0156   28.3131 C.2     1  UNL1        0.0030
     39 O         -27.9825   -0.9545   29.3174 O.3     1  UNL1       -0.2078
     40 C         -27.5532   -0.1274   28.5105 C.3     1  UNL1        0.2679
     41 C         -27.9282    1.5802   30.3174 C.2     1  UNL1        0.1040
     42 C         -24.3191    1.3191   27.1065 C.2     1  UNL1        0.0398
     43 C         -21.8511    1.8232   27.1721 C.2     1  UNL1        0.0420
     44 C         -23.0846    1.8836   26.5037 C.2     1  UNL1        0.1955
     45 C         -28.2311    3.8872   31.3862 C.2     1  UNL1        0.0016
     46 C         -25.0763   -0.1993   28.8924 C.3     1  UNL1        0.1454
@<TRIPOS>BOND
     1     1    46    1
     2     2     7    1
     3     2     1    1
     4     3     2    2
     5     4     3    1
     6     4     5    2
     7     5     6    1
     8     6     7    2
     9     8     1    1
    10     8     9    1
    11     8    12    1
    12     9    10    1
    13    10    11    1
    14    12    11    1
    15    13    42    1
    16    14    13    1
    17    14    15    1
    18    15    18    2
    19    16    17    1
    20    16    15    1
    21    19    14    2
    22    20    21    2
    23    20    19    1
    24    21    26    1
    25    22    21    1
    26    23    22    1
    27    24    23    1
    28    24    25    1
    29    26    27    1
    30    26    13    2
    31    28    41    1
    32    31    36    2
    33    31    41    1
    34    32    29    1
    35    32    46    1
    36    33    45    1
    37    34    45    2
    38    35    40    1
    39    35    31    1
    40    36    34    1
    41    37    44    1
    42    38    29    2
    43    39    28    1
    44    40    30    1
    45    40    39    1
    46    41    33    2
    47    42    32    2
    48    43    38    1
    49    44    42    1
    50    44    43    2
    51    46    30    1
