@<TRIPOS>MOLECULE
outputs/IAG933/test6/raw/output_9425_IAG933_linker_design_.xyz
 44 48 0 0 0
SMALL
GASTEIGER

@<TRIPOS>ATOM
      1 C         -24.8550   -1.0120   30.1430 C.3     1  UNL1        0.0671
      2 C         -24.9730   -2.5050   29.7880 C.2     1  UNL1       -0.0190
      3 C         -23.9060   -3.1730   29.1460 C.2     1  UNL1       -0.0042
      4 C         -23.9890   -4.5490   28.8530 C.2     1  UNL1       -0.0003
      5 C         -25.1370   -5.2800   29.2050 C.2     1  UNL1       -0.0000
      6 C         -26.2320   -4.6110   29.7840 C.2     1  UNL1       -0.0003
      7 C         -26.1550   -3.2320   30.0650 C.2     1  UNL1       -0.0042
      8 C         -25.3870   -0.6790   31.5710 C.3     1  UNL1        0.0790
      9 C         -25.1890    0.7730   32.0280 C.3     1  UNL1        0.0193
     10 C         -25.3360    0.6840   33.5440 C.3     1  UNL1        0.0202
     11 C         -24.8290   -0.7150   33.9050 C.3     1  UNL1        0.0887
     12 N         -24.7580   -1.4810   32.6460 N.3     1  UNL1       -0.2191
     13 C         -25.6880    1.6140   26.4610 C.3     1  UNL1        0.0937
     14 C         -26.2500    2.9200   26.3950 C.2     1  UNL1        0.0589
     15 C         -25.6420    4.0930   27.1230 C.2     1  UNL1        0.2628
     16 N         -25.6140    5.2520   26.4490 N.am    1  UNL1       -0.2000
     17 C         -25.0260    6.4790   26.9630 C.3     1  UNL1        0.1388
     18 O         -25.1430    3.9660   28.2430 O.2     1  UNL1       -0.2686
     19 C         -27.4380    3.0910   25.6450 C.2     1  UNL1        0.1025
     20 N         -28.0750    2.0890   25.0030 N.2     1  UNL1       -0.2118
     21 C         -27.5430    0.8490   25.0790 C.2     1  UNL1        0.2344
     22 O         -28.1930   -0.2080   24.4770 O.2     1  UNL1       -0.4585
     23 C         -29.4600    0.0050   23.8660 C.3     1  UNL1        0.2423
     24 C         -30.0650   -1.3770   23.5730 C.3     1  UNL1        0.2292
     25 O         -30.7290   -1.8780   24.7210 O.3     1  UNL1       -0.2162
     26 C         -26.3540    0.5760   25.7770 C.3     1  UNL1        0.2440
     27 F         -25.8600   -0.6810   25.7950 F       1  UNL1       -0.2265
     28 N         -25.0935    1.1393   28.8632 N.pl3   1  UNL1       -0.2268
     29 O         -27.9530   -0.8703   29.2226 O.2     1  UNL1       -0.2730
     30 C         -23.2961    2.0243   25.8182 C.2     1  UNL1       -0.0024
     31 C         -27.2279    0.0970   29.5353 C.2     1  UNL1        0.2458
     32 N         -27.6473    1.3091   29.9295 N.am    1  UNL1       -0.2782
     33 O         -22.2826    0.1141   29.4044 O.2     1  UNL1       -0.2852
     34 C         -29.1192    1.5424   30.0113 C.3     1  UNL1        0.0934
     35 C         -25.6863   -0.1490   29.1624 C.3     1  UNL1        0.1738
     36 C         -27.7395    3.6444   30.9511 C.3     1  UNL1        0.0216
     37 C         -24.2536    1.6253   26.7688 C.2     1  UNL1        0.0030
     38 C         -21.9742    1.9869   26.2465 C.2     1  UNL1        0.0031
     39 C         -21.6726    1.3693   27.4790 C.2     1  UNL1        0.0434
     40 C         -22.6853    0.8754   28.3280 C.2     1  UNL1        0.2101
     41 C         -26.9458    2.5378   30.2820 C.3     1  UNL1        0.0934
     42 C         -24.0328    1.1567   28.0200 C.2     1  UNL1        0.1010
     43 C         -29.4007    2.7730   29.1503 C.3     1  UNL1        0.0216
     44 C         -28.9934    3.9401   30.0709 C.3     1  UNL1        0.0035
@<TRIPOS>BOND
     1     1    35    1
     2     2     7    1
     3     2     1    1
     4     3     2    2
     5     4     3    1
     6     4     5    2
     7     5     6    1
     8     6     7    2
     9     8     1    1
    10     8     9    1
    11     8    12    1
    12     9    10    1
    13    10    11    1
    14    12    11    1
    15    13    37    1
    16    14    13    1
    17    14    15    1
    18    15    18    2
    19    16    17    1
    20    16    15    1
    21    19    14    2
    22    20    21    2
    23    20    19    1
    24    21    26    1
    25    22    21    1
    26    23    22    1
    27    24    23    1
    28    24    25    1
    29    26    27    1
    30    26    13    1
    31    29    31    2
    32    30    38    2
    33    30    37    1
    34    31    32   am
    35    32    34    1
    36    32    41    1
    37    35    28    1
    38    35    31    1
    39    37    42    2
    40    38    39    1
    41    39    40    2
    42    40    33    1
    43    41    36    1
    44    42    40    1
    45    42    28    1
    46    43    34    1
    47    43    44    1
    48    44    36    1
