@<TRIPOS>MOLECULE
outputs/IAG933/test6/raw/output_9426_IAG933_linker_design_.xyz
 44 47 0 0 0
SMALL
GASTEIGER

@<TRIPOS>ATOM
      1 C         -24.8550   -1.0120   30.1430 C.3     1  UNL1        0.0557
      2 C         -24.9730   -2.5050   29.7880 C.2     1  UNL1       -0.0197
      3 C         -23.9060   -3.1730   29.1460 C.2     1  UNL1       -0.0042
      4 C         -23.9890   -4.5490   28.8530 C.2     1  UNL1       -0.0003
      5 C         -25.1370   -5.2800   29.2050 C.2     1  UNL1       -0.0000
      6 C         -26.2320   -4.6110   29.7840 C.2     1  UNL1       -0.0003
      7 C         -26.1550   -3.2320   30.0650 C.2     1  UNL1       -0.0042
      8 C         -25.3870   -0.6790   31.5710 C.3     1  UNL1        0.0782
      9 C         -25.1890    0.7730   32.0280 C.3     1  UNL1        0.0192
     10 C         -25.3360    0.6840   33.5440 C.3     1  UNL1        0.0202
     11 C         -24.8290   -0.7150   33.9050 C.3     1  UNL1        0.0887
     12 N         -24.7580   -1.4810   32.6460 N.3     1  UNL1       -0.2191
     13 C         -25.6880    1.6140   26.4610 C.3     1  UNL1        0.0720
     14 C         -26.2500    2.9200   26.3950 C.2     1  UNL1        0.0549
     15 C         -25.6420    4.0930   27.1230 C.2     1  UNL1        0.2624
     16 N         -25.6140    5.2520   26.4490 N.am    1  UNL1       -0.2000
     17 C         -25.0260    6.4790   26.9630 C.3     1  UNL1        0.1388
     18 O         -25.1430    3.9660   28.2430 O.2     1  UNL1       -0.2687
     19 C         -27.4380    3.0910   25.6450 C.2     1  UNL1        0.1021
     20 N         -28.0750    2.0890   25.0030 N.2     1  UNL1       -0.2119
     21 C         -27.5430    0.8490   25.0790 C.2     1  UNL1        0.2341
     22 O         -28.1930   -0.2080   24.4770 O.2     1  UNL1       -0.4585
     23 C         -29.4600    0.0050   23.8660 C.3     1  UNL1        0.2423
     24 C         -30.0650   -1.3770   23.5730 C.3     1  UNL1        0.2292
     25 O         -30.7290   -1.8780   24.7210 O.3     1  UNL1       -0.2162
     26 C         -26.3540    0.5760   25.7770 C.3     1  UNL1        0.2400
     27 F         -25.8600   -0.6810   25.7950 F       1  UNL1       -0.2269
     28 C         -31.4132    2.7295   29.7915 C.3     1  UNL1        0.0014
     29 C         -22.4657    0.5231   28.4705 C.2     1  UNL1        0.1994
     30 C         -28.1328   -0.6946   28.1840 C.3     1  UNL1        0.0188
     31 O         -21.5651    1.7488   26.6053 O.3     1  UNL1       -0.2118
     32 C         -32.7459    2.9524   30.5172 C.3     1  UNL1        0.0000
     33 C         -30.6886    1.4101   30.1724 C.3     1  UNL1        0.0160
     34 C         -29.6336    0.9346   29.1728 C.3     1  UNL1        0.0576
     35 C         -23.8000    0.7160   27.9405 C.3     1  UNL1        0.1330
     36 O         -22.2422   -0.2775   29.4280 O.2     1  UNL1       -0.2918
     37 N         -24.9986   -0.0240   28.2662 N.3     1  UNL1       -0.2116
     38 C         -21.2668    1.2796   27.8732 C.3     1  UNL1        0.2473
     39 C         -29.6666   -0.5731   28.7433 C.3     1  UNL1        0.0174
     40 C         -24.1941    1.5418   26.6888 C.3     1  UNL1        0.0328
     41 C         -25.7311   -0.2400   29.1284 C.3     1  UNL1        0.0931
     42 N         -28.2394    1.1164   29.6305 N.3     1  UNL1       -0.2727
     43 C         -27.3487    0.1101   29.0454 C.3     1  UNL1        0.0739
     44 C         -27.9002    2.2672   30.5605 C.3     1  UNL1        0.0896
@<TRIPOS>BOND
     1     1    41    1
     2     2     7    1
     3     2     1    1
     4     3     2    2
     5     4     3    1
     6     4     5    2
     7     5     6    1
     8     6     7    2
     9     8     1    1
    10     8     9    1
    11     8    12    1
    12     9    10    1
    13    10    11    1
    14    12    11    1
    15    13    40    1
    16    14    13    1
    17    14    15    1
    18    15    18    2
    19    16    17    1
    20    16    15    1
    21    19    14    2
    22    20    21    2
    23    20    19    1
    24    21    26    1
    25    22    21    1
    26    23    22    1
    27    24    23    1
    28    24    25    1
    29    26    27    1
    30    26    13    1
    31    28    33    1
    32    28    32    1
    33    29    36    2
    34    30    39    1
    35    30    43    1
    36    31    38    1
    37    34    42    1
    38    34    33    1
    39    35    40    1
    40    35    37    1
    41    35    29    1
    42    38    29    1
    43    39    34    1
    44    41    37    1
    45    42    44    1
    46    43    41    1
    47    43    42    1
