@<TRIPOS>MOLECULE
outputs/IAG933/test6/raw/output_9433_IAG933_linker_design_.xyz
 43 47 0 0 0
SMALL
GASTEIGER

@<TRIPOS>ATOM
      1 C         -24.8550   -1.0120   30.1430 C.3     1  UNL1        0.1986
      2 C         -24.9730   -2.5050   29.7880 C.2     1  UNL1        0.0213
      3 C         -23.9060   -3.1730   29.1460 C.2     1  UNL1       -0.0004
      4 C         -23.9890   -4.5490   28.8530 C.2     1  UNL1       -0.0002
      5 C         -25.1370   -5.2800   29.2050 C.2     1  UNL1       -0.0000
      6 C         -26.2320   -4.6110   29.7840 C.2     1  UNL1       -0.0002
      7 C         -26.1550   -3.2320   30.0650 C.2     1  UNL1       -0.0004
      8 C         -25.3870   -0.6790   31.5710 C.3     1  UNL1        0.1197
      9 C         -25.1890    0.7730   32.0280 C.3     1  UNL1        0.0233
     10 C         -25.3360    0.6840   33.5440 C.3     1  UNL1        0.0204
     11 C         -24.8290   -0.7150   33.9050 C.3     1  UNL1        0.0889
     12 N         -24.7580   -1.4810   32.6460 N.3     1  UNL1       -0.2150
     13 C         -25.6880    1.6140   26.4610 C.2     1  UNL1        0.1791
     14 C         -26.2500    2.9200   26.3950 C.2     1  UNL1        0.1136
     15 C         -25.6420    4.0930   27.1230 C.2     1  UNL1        0.2698
     16 N         -25.6140    5.2520   26.4490 N.am    1  UNL1       -0.1996
     17 C         -25.0260    6.4790   26.9630 C.3     1  UNL1        0.1388
     18 O         -25.1430    3.9660   28.2430 O.2     1  UNL1       -0.2682
     19 C         -27.4380    3.0910   25.6450 C.2     1  UNL1        0.1102
     20 N         -28.0750    2.0890   25.0030 N.2     1  UNL1       -0.2078
     21 C         -27.5430    0.8490   25.0790 C.2     1  UNL1        0.2568
     22 O         -28.1930   -0.2080   24.4770 O.2     1  UNL1       -0.4557
     23 C         -29.4600    0.0050   23.8660 C.3     1  UNL1        0.2426
     24 C         -30.0650   -1.3770   23.5730 C.3     1  UNL1        0.2292
     25 O         -30.7290   -1.8780   24.7210 O.3     1  UNL1       -0.2162
     26 C         -26.3540    0.5760   25.7770 C.2     1  UNL1        0.2298
     27 F         -25.8600   -0.6810   25.7950 F       1  UNL1       -0.1956
     28 N         -21.1437    0.6706   28.2417 N.pl3   1  UNL1       -0.0148
     29 C         -21.6627    1.4604   27.3321 C.3     1  UNL1        0.3311
     30 O         -28.1219    2.4628   30.5608 O.3     1  UNL1       -0.2203
     31 N         -24.6141    1.2947   27.3491 N.pl3   1  UNL1       -0.1407
     32 O         -23.1203    2.1834   25.6417 O.3     1  UNL1       -0.3122
     33 C         -28.2850    1.1281   30.8841 C.3     1  UNL1        0.1862
     34 N         -22.2864   -0.5643   29.6715 N.pl3   1  UNL1        0.2232
     35 C         -22.1411    0.0652   28.9367 C.2     1  UNL1        0.4447
     36 C         -28.0082    0.0943   28.5006 C.3     1  UNL1        0.0533
     37 C         -23.2554    0.0909   28.7793 C.1     1  UNL1        0.0735
     38 C         -27.8228    0.7122   29.5964 C.3     1  UNL1        0.0797
     39 C         -22.9882    1.5992   26.7603 C.3     1  UNL1        0.3407
     40 C         -26.7686    0.8570   28.8257 C.3     1  UNL1        0.1635
     41 C         -24.4986    0.5083   28.2927 C.2     1  UNL1        0.3218
     42 C         -22.1401    2.0739   24.6821 C.3     1  UNL1        0.1785
     43 N         -25.5320   -0.0698   29.0860 N.pl3   1  UNL1       -0.1907
@<TRIPOS>BOND
     1     1    43    1
     2     2     7    1
     3     2     1    1
     4     3     2    2
     5     4     3    1
     6     4     5    2
     7     5     6    1
     8     6     7    2
     9     8     1    1
    10     8     9    1
    11     8    12    1
    12     9    10    1
    13    10    11    1
    14    12    11    1
    15    13    31    1
    16    14    13    1
    17    14    15    1
    18    15    18    2
    19    16    17    1
    20    16    15    1
    21    19    14    2
    22    20    21    2
    23    20    19    1
    24    21    26    1
    25    22    21    1
    26    23    22    1
    27    24    23    1
    28    24    25    1
    29    26    27    1
    30    26    13    2
    31    28    35    1
    32    29    28    1
    33    30    33    1
    34    31    41    1
    35    35    34    1
    36    36    40    1
    37    36    38    1
    38    37    35    2
    39    38    33    1
    40    39    32    1
    41    39    29    1
    42    39    31    1
    43    40    43    1
    44    40    38    1
    45    41    37    2
    46    41    43    1
    47    42    32    1
