@<TRIPOS>MOLECULE
outputs/IAG933/test6/raw/output_9434_IAG933_linker_design_.xyz
 44 48 0 0 0
SMALL
GASTEIGER

@<TRIPOS>ATOM
      1 C         -24.8550   -1.0120   30.1430 C.3     1  UNL1        0.1253
      2 C         -24.9730   -2.5050   29.7880 C.2     1  UNL1       -0.0004
      3 C         -23.9060   -3.1730   29.1460 C.2     1  UNL1       -0.0024
      4 C         -23.9890   -4.5490   28.8530 C.2     1  UNL1       -0.0003
      5 C         -25.1370   -5.2800   29.2050 C.2     1  UNL1       -0.0000
      6 C         -26.2320   -4.6110   29.7840 C.2     1  UNL1       -0.0003
      7 C         -26.1550   -3.2320   30.0650 C.2     1  UNL1       -0.0024
      8 C         -25.3870   -0.6790   31.5710 C.3     1  UNL1        0.0977
      9 C         -25.1890    0.7730   32.0280 C.3     1  UNL1        0.0211
     10 C         -25.3360    0.6840   33.5440 C.3     1  UNL1        0.0203
     11 C         -24.8290   -0.7150   33.9050 C.3     1  UNL1        0.0888
     12 N         -24.7580   -1.4810   32.6460 N.3     1  UNL1       -0.2172
     13 C         -25.6880    1.6140   26.4610 C.2     1  UNL1        0.0394
     14 C         -26.2500    2.9200   26.3950 C.2     1  UNL1        0.0766
     15 C         -25.6420    4.0930   27.1230 C.2     1  UNL1        0.2664
     16 N         -25.6140    5.2520   26.4490 N.am    1  UNL1       -0.1997
     17 C         -25.0260    6.4790   26.9630 C.3     1  UNL1        0.1388
     18 O         -25.1430    3.9660   28.2430 O.2     1  UNL1       -0.2683
     19 C         -27.4380    3.0910   25.6450 C.2     1  UNL1        0.1067
     20 N         -28.0750    2.0890   25.0030 N.2     1  UNL1       -0.2081
     21 C         -27.5430    0.8490   25.0790 C.2     1  UNL1        0.2533
     22 O         -28.1930   -0.2080   24.4770 O.2     1  UNL1       -0.4558
     23 C         -29.4600    0.0050   23.8660 C.3     1  UNL1        0.2426
     24 C         -30.0650   -1.3770   23.5730 C.3     1  UNL1        0.2292
     25 O         -30.7290   -1.8780   24.7210 O.3     1  UNL1       -0.2162
     26 C         -26.3540    0.5760   25.7770 C.2     1  UNL1        0.1931
     27 F         -25.8600   -0.6810   25.7950 F       1  UNL1       -0.1992
     28 F         -21.5670    2.1713   25.6980 F       1  UNL1       -0.1932
     29 C         -28.2819    1.7097   29.9488 C.3     1  UNL1        0.0678
     30 C         -22.8297    0.1413   29.2077 C.ar    1  UNL1        0.1931
     31 N         -21.9918   -0.3697   30.0465 N.2     1  UNL1       -0.1264
     32 F         -21.1792    1.5092   28.1866 F       1  UNL1       -0.2011
     33 C         -22.7899    2.2562   26.0505 C.3     1  UNL1        0.3433
     34 C         -29.2087    0.2652   28.2961 C.3     1  UNL1        0.2054
     35 N         -24.1743   -0.1077   29.2515 N.ar    1  UNL1       -0.3061
     36 F         -23.5693    3.0042   25.3366 F       1  UNL1       -0.1932
     37 C         -27.4074    1.1187   29.0744 C.2     1  UNL1        0.1176
     38 O         -27.8538    0.1706   28.1934 O.2     1  UNL1       -0.4797
     39 C         -22.4193    1.0688   28.1749 C.ar    1  UNL1        0.1770
     40 C         -29.5665    1.3442   29.3343 C.3     1  UNL1        0.0552
     41 C         -25.9565    1.3944   29.1612 C.2     1  UNL1        0.0496
     42 C         -23.3339    1.5321   27.1678 C.ar    1  UNL1        0.0755
     43 C         -24.6925    1.2568   27.2797 C.ar    1  UNL1        0.0220
     44 C         -24.9818    0.4088   28.4555 C.ar    1  UNL1        0.0641
@<TRIPOS>BOND
     1     1     2    1
     2     2     7    1
     3     3     2    2
     4     4     3    1
     5     4     5    2
     6     5     6    1
     7     6     7    2
     8     8     1    1
     9     8     9    1
    10     8    12    1
    11     9    10    1
    12    10    11    1
    13    12    11    1
    14    13    43    1
    15    14    13    1
    16    14    15    1
    17    15    18    2
    18    16    17    1
    19    16    15    1
    20    19    14    2
    21    20    21    2
    22    20    19    1
    23    21    26    1
    24    22    21    1
    25    23    22    1
    26    24    23    1
    27    24    25    1
    28    26    27    1
    29    26    13    2
    30    28    33    1
    31    30    35   ar
    32    30    31    2
    33    33    42    1
    34    34    40    1
    35    35     1    1
    36    36    33    1
    37    37    41    2
    38    37    29    1
    39    38    34    1
    40    38    37    1
    41    39    32    1
    42    39    30   ar
    43    40    29    1
    44    42    43   ar
    45    42    39   ar
    46    43    44   ar
    47    44    41    1
    48    44    35   ar
