@<TRIPOS>MOLECULE
outputs/IAG933/test6/raw/output_9436_IAG933_linker_design_.xyz
 45 49 0 0 0
SMALL
GASTEIGER

@<TRIPOS>ATOM
      1 C         -24.8550   -1.0120   30.1430 C.3     1  UNL1        0.1180
      2 C         -24.9730   -2.5050   29.7880 C.2     1  UNL1       -0.0026
      3 C         -23.9060   -3.1730   29.1460 C.2     1  UNL1       -0.0026
      4 C         -23.9890   -4.5490   28.8530 C.2     1  UNL1       -0.0003
      5 C         -25.1370   -5.2800   29.2050 C.2     1  UNL1       -0.0000
      6 C         -26.2320   -4.6110   29.7840 C.2     1  UNL1       -0.0003
      7 C         -26.1550   -3.2320   30.0650 C.2     1  UNL1       -0.0026
      8 C         -25.3870   -0.6790   31.5710 C.3     1  UNL1        0.0955
      9 C         -25.1890    0.7730   32.0280 C.3     1  UNL1        0.0209
     10 C         -25.3360    0.6840   33.5440 C.3     1  UNL1        0.0203
     11 C         -24.8290   -0.7150   33.9050 C.3     1  UNL1        0.0888
     12 N         -24.7580   -1.4810   32.6460 N.3     1  UNL1       -0.2174
     13 C         -25.6880    1.6140   26.4610 C.2     1  UNL1        0.0393
     14 C         -26.2500    2.9200   26.3950 C.2     1  UNL1        0.0766
     15 C         -25.6420    4.0930   27.1230 C.2     1  UNL1        0.2664
     16 N         -25.6140    5.2520   26.4490 N.am    1  UNL1       -0.1997
     17 C         -25.0260    6.4790   26.9630 C.3     1  UNL1        0.1388
     18 O         -25.1430    3.9660   28.2430 O.2     1  UNL1       -0.2683
     19 C         -27.4380    3.0910   25.6450 C.2     1  UNL1        0.1067
     20 N         -28.0750    2.0890   25.0030 N.2     1  UNL1       -0.2081
     21 C         -27.5430    0.8490   25.0790 C.2     1  UNL1        0.2533
     22 O         -28.1930   -0.2080   24.4770 O.2     1  UNL1       -0.4558
     23 C         -29.4600    0.0050   23.8660 C.3     1  UNL1        0.2426
     24 C         -30.0650   -1.3770   23.5730 C.3     1  UNL1        0.2292
     25 O         -30.7290   -1.8780   24.7210 O.3     1  UNL1       -0.2162
     26 C         -26.3540    0.5760   25.7770 C.2     1  UNL1        0.1931
     27 F         -25.8600   -0.6810   25.7950 F       1  UNL1       -0.1992
     28 C         -29.1943    3.4581   33.3641 C.2     1  UNL1       -0.0003
     29 C         -28.1580   -0.1663   30.0915 C.3     1  UNL1        0.0903
     30 C         -23.0477    0.0923   28.9181 C.2     1  UNL1       -0.0065
     31 C         -29.2246    1.6708   31.6573 C.2     1  UNL1       -0.0217
     32 C         -29.0550    1.1044   30.2483 C.3     1  UNL1        0.0359
     33 C         -24.4002    1.1754   27.0881 C.2     1  UNL1        0.0159
     34 C         -21.9909    1.8587   26.5227 C.2     1  UNL1       -0.0042
     35 C         -26.8375    0.3477   29.3227 C.2     1  UNL1        0.2299
     36 C         -29.8275    1.1855   33.9788 C.2     1  UNL1       -0.0003
     37 C         -21.8066    0.6536   28.7325 C.3     1  UNL1        0.0533
     38 C         -29.6404    2.5413   34.3233 C.2     1  UNL1       -0.0000
     39 C         -23.2734    1.6411   26.1718 C.2     1  UNL1        0.0010
     40 O         -26.9952    1.4129   28.8940 O.2     1  UNL1       -0.2745
     41 C         -28.9576    3.0164   32.0372 C.2     1  UNL1       -0.0043
     42 C         -24.3347    0.3725   28.3875 C.2     1  UNL1        0.0502
     43 C         -29.6791    0.7541   32.6326 C.2     1  UNL1       -0.0043
     44 C         -21.2989    1.4315   27.6596 C.2     1  UNL1       -0.0214
     45 N         -25.3595   -0.1257   29.1736 N.am    1  UNL1       -0.2553
@<TRIPOS>BOND
     1     1    45    1
     2     2     7    1
     3     2     1    1
     4     3     2    2
     5     4     3    1
     6     4     5    2
     7     5     6    1
     8     6     7    2
     9     8     1    1
    10     8     9    1
    11     8    12    1
    12     9    10    1
    13    10    11    1
    14    12    11    1
    15    13    33    1
    16    14    13    1
    17    14    15    1
    18    15    18    2
    19    16    17    1
    20    16    15    1
    21    19    14    2
    22    20    21    2
    23    20    19    1
    24    21    26    1
    25    22    21    1
    26    23    22    1
    27    24    23    1
    28    24    25    1
    29    26    27    1
    30    26    13    2
    31    28    38    1
    32    29    32    1
    33    31    41    1
    34    31    43    2
    35    32    31    1
    36    33    42    1
    37    34    44    2
    38    35    29    1
    39    36    38    2
    40    37    30    1
    41    39    34    1
    42    39    33    2
    43    40    35    2
    44    41    28    2
    45    42    30    2
    46    42    45    1
    47    43    36    1
    48    44    37    1
    49    45    35   am
