@<TRIPOS>MOLECULE
outputs/IAG933/test6/raw/output_9437_IAG933_linker_design_.xyz
 42 45 0 0 0
SMALL
GASTEIGER

@<TRIPOS>ATOM
      1 C         -24.8550   -1.0120   30.1430 C.3     1  UNL1        0.1991
      2 C         -24.9730   -2.5050   29.7880 C.2     1  UNL1        0.0213
      3 C         -23.9060   -3.1730   29.1460 C.2     1  UNL1       -0.0004
      4 C         -23.9890   -4.5490   28.8530 C.2     1  UNL1       -0.0002
      5 C         -25.1370   -5.2800   29.2050 C.2     1  UNL1       -0.0000
      6 C         -26.2320   -4.6110   29.7840 C.2     1  UNL1       -0.0002
      7 C         -26.1550   -3.2320   30.0650 C.2     1  UNL1       -0.0004
      8 C         -25.3870   -0.6790   31.5710 C.3     1  UNL1        0.1197
      9 C         -25.1890    0.7730   32.0280 C.3     1  UNL1        0.0233
     10 C         -25.3360    0.6840   33.5440 C.3     1  UNL1        0.0204
     11 C         -24.8290   -0.7150   33.9050 C.3     1  UNL1        0.0889
     12 N         -24.7580   -1.4810   32.6460 N.3     1  UNL1       -0.2150
     13 C         -25.6880    1.6140   26.4610 C.2     1  UNL1        0.0662
     14 C         -26.2500    2.9200   26.3950 C.2     1  UNL1        0.0805
     15 C         -25.6420    4.0930   27.1230 C.2     1  UNL1        0.2667
     16 N         -25.6140    5.2520   26.4490 N.am    1  UNL1       -0.1997
     17 C         -25.0260    6.4790   26.9630 C.3     1  UNL1        0.1388
     18 O         -25.1430    3.9660   28.2430 O.2     1  UNL1       -0.2683
     19 C         -27.4380    3.0910   25.6450 C.2     1  UNL1        0.1067
     20 N         -28.0750    2.0890   25.0030 N.2     1  UNL1       -0.2112
     21 C         -27.5430    0.8490   25.0790 C.2     1  UNL1        0.2389
     22 O         -28.1930   -0.2080   24.4770 O.2     1  UNL1       -0.4583
     23 C         -29.4600    0.0050   23.8660 C.3     1  UNL1        0.2423
     24 C         -30.0650   -1.3770   23.5730 C.3     1  UNL1        0.2292
     25 O         -30.7290   -1.8780   24.7210 O.3     1  UNL1       -0.2162
     26 C         -26.3540    0.5760   25.7770 C.3     1  UNL1        0.2655
     27 F         -25.8600   -0.6810   25.7950 F       1  UNL1       -0.2217
     28 C         -28.3248    1.5635   29.3677 C.2     1  UNL1       -0.0003
     29 C         -25.0357    1.3519   27.3427 C.1     1  UNL1       -0.0179
     30 N         -25.4777   -0.0841   29.1275 N.pl3   1  UNL1       -0.1804
     31 C         -29.9043    0.4642   27.4110 C.2     1  UNL1       -0.0002
     32 C         -30.3584    1.5907   28.0950 C.2     1  UNL1       -0.0000
     33 F         -20.8030    1.5952   27.6863 F       1  UNL1       -0.1936
     34 F         -22.4851    2.3396   26.4728 F       1  UNL1       -0.1936
     35 C         -28.6800   -0.1145   27.7058 C.2     1  UNL1       -0.0003
     36 C         -22.7628    1.9156   28.7019 C.3     1  UNL1        0.3231
     37 C         -24.7791    0.8435   28.5058 C.2     1  UNL1        0.3469
     38 C         -29.5855    2.0798   29.1354 C.2     1  UNL1       -0.0002
     39 C         -22.1730    1.5697   27.4879 C.3     1  UNL1        0.3689
     40 C         -27.8615    0.4301   28.6688 C.2     1  UNL1        0.0243
     41 N         -23.8420    1.4302   29.1591 N.pl3   1  UNL1       -0.0230
     42 C         -26.7138   -0.1275   28.8587 C.3     1  UNL1        0.2302
@<TRIPOS>BOND
     1     1    30    1
     2     2     7    1
     3     2     1    1
     4     3     2    2
     5     4     3    1
     6     4     5    2
     7     5     6    1
     8     6     7    2
     9     8     1    1
    10     8     9    1
    11     8    12    1
    12     9    10    1
    13    10    11    1
    14    12    11    1
    15    13    29    2
    16    14    13    1
    17    14    15    1
    18    15    18    2
    19    16    17    1
    20    16    15    1
    21    19    14    2
    22    20    21    2
    23    20    19    1
    24    21    26    1
    25    22    21    1
    26    23    22    1
    27    24    23    1
    28    24    25    1
    29    26    27    1
    30    26    13    1
    31    29    37    2
    32    31    35    2
    33    31    32    1
    34    32    38    2
    35    34    39    1
    36    35    40    1
    37    36    41    1
    38    37    30    1
    39    37    41    1
    40    38    28    1
    41    39    33    1
    42    39    36    1
    43    40    42    1
    44    40    28    2
    45    42    30    1
