@<TRIPOS>MOLECULE
outputs/IAG933/test6/raw/output_9442_IAG933_linker_design_.xyz
 41 46 0 0 0
SMALL
GASTEIGER

@<TRIPOS>ATOM
      1 C         -24.8550   -1.0120   30.1430 C.3     1  UNL1        0.0510
      2 C         -24.9730   -2.5050   29.7880 C.2     1  UNL1       -0.0204
      3 C         -23.9060   -3.1730   29.1460 C.2     1  UNL1       -0.0042
      4 C         -23.9890   -4.5490   28.8530 C.2     1  UNL1       -0.0003
      5 C         -25.1370   -5.2800   29.2050 C.2     1  UNL1       -0.0000
      6 C         -26.2320   -4.6110   29.7840 C.2     1  UNL1       -0.0003
      7 C         -26.1550   -3.2320   30.0650 C.2     1  UNL1       -0.0042
      8 C         -25.3870   -0.6790   31.5710 C.3     1  UNL1        0.0776
      9 C         -25.1890    0.7730   32.0280 C.3     1  UNL1        0.0192
     10 C         -25.3360    0.6840   33.5440 C.3     1  UNL1        0.0202
     11 C         -24.8290   -0.7150   33.9050 C.3     1  UNL1        0.0887
     12 N         -24.7580   -1.4810   32.6460 N.3     1  UNL1       -0.2191
     13 C         -25.6880    1.6140   26.4610 C.3     1  UNL1        0.1524
     14 C         -26.2500    2.9200   26.3950 C.2     1  UNL1        0.0735
     15 C         -25.6420    4.0930   27.1230 C.2     1  UNL1        0.2640
     16 N         -25.6140    5.2520   26.4490 N.am    1  UNL1       -0.1999
     17 C         -25.0260    6.4790   26.9630 C.3     1  UNL1        0.1388
     18 O         -25.1430    3.9660   28.2430 O.2     1  UNL1       -0.2686
     19 C         -27.4380    3.0910   25.6450 C.2     1  UNL1        0.1038
     20 N         -28.0750    2.0890   25.0030 N.2     1  UNL1       -0.2118
     21 C         -27.5430    0.8490   25.0790 C.2     1  UNL1        0.2359
     22 O         -28.1930   -0.2080   24.4770 O.2     1  UNL1       -0.4585
     23 C         -29.4600    0.0050   23.8660 C.3     1  UNL1        0.2423
     24 C         -30.0650   -1.3770   23.5730 C.3     1  UNL1        0.2292
     25 O         -30.7290   -1.8780   24.7210 O.3     1  UNL1       -0.2162
     26 C         -26.3540    0.5760   25.7770 C.3     1  UNL1        0.2585
     27 F         -25.8600   -0.6810   25.7950 F       1  UNL1       -0.2250
     28 O         -21.1458    2.1166   26.3236 O.3     1  UNL1       -0.2869
     29 O         -26.2396    0.9949   29.0588 O.2     1  UNL1       -0.2741
     30 C         -20.5293   -0.0849   28.9128 C.3     1  UNL1        0.1710
     31 C         -21.7581   -0.5164   29.3373 C.2     1  UNL1        0.0020
     32 O         -23.4276    1.9839   25.8131 O.2     1  UNL1       -0.4348
     33 N         -24.7541    1.2086   27.3600 N.am    1  UNL1       -0.2241
     34 C         -22.2331    2.5458   25.5992 C.3     1  UNL1        0.3639
     35 C         -22.7148    1.0324   27.8318 C.2     1  UNL1        0.0792
     36 C         -21.3772    1.5533   27.5305 C.3     1  UNL1        0.2670
     37 C         -25.1703    0.6877   28.5725 C.2     1  UNL1        0.2357
     38 C         -22.9339    0.0974   28.8334 C.2     1  UNL1       -0.0104
     39 C         -23.6186    1.4224   27.0543 C.2     1  UNL1        0.2025
     40 O         -20.4505    1.1356   28.2438 O.3     1  UNL1       -0.3221
     41 C         -24.2639   -0.1238   29.2734 C.3     1  UNL1        0.1044
@<TRIPOS>BOND
     1     1     2    1
     2     2     7    1
     3     3     2    2
     4     4     3    1
     5     4     5    2
     6     5     6    1
     7     6     7    2
     8     8     1    1
     9     8     9    1
    10     8    12    1
    11     9    10    1
    12    10    11    1
    13    12    11    1
    14    13    33    1
    15    14    13    1
    16    14    15    1
    17    15    18    2
    18    16    17    1
    19    16    15    1
    20    19    14    2
    21    20    21    2
    22    20    19    1
    23    21    26    1
    24    22    21    1
    25    23    22    1
    26    24    23    1
    27    24    25    1
    28    26    27    1
    29    26    13    1
    30    30    31    1
    31    32    39    1
    32    33    37   am
    33    34    32    1
    34    34    28    1
    35    35    38    1
    36    36    28    1
    37    36    35    1
    38    36    40    1
    39    37    29    2
    40    37    41    1
    41    38    41    1
    42    38    31    2
    43    39    33    1
    44    39    35    2
    45    40    30    1
    46    41     1    1
