@<TRIPOS>MOLECULE
outputs/IAG933/test6/raw/output_9444_IAG933_linker_design_.xyz
 44 48 0 0 0
SMALL
GASTEIGER

@<TRIPOS>ATOM
      1 C         -24.8550   -1.0120   30.1430 C.3     1  UNL1        0.2040
      2 C         -24.9730   -2.5050   29.7880 C.2     1  UNL1        0.0186
      3 C         -23.9060   -3.1730   29.1460 C.2     1  UNL1       -0.0008
      4 C         -23.9890   -4.5490   28.8530 C.2     1  UNL1       -0.0002
      5 C         -25.1370   -5.2800   29.2050 C.2     1  UNL1       -0.0000
      6 C         -26.2320   -4.6110   29.7840 C.2     1  UNL1       -0.0002
      7 C         -26.1550   -3.2320   30.0650 C.2     1  UNL1       -0.0008
      8 C         -25.3870   -0.6790   31.5710 C.3     1  UNL1        0.1170
      9 C         -25.1890    0.7730   32.0280 C.3     1  UNL1        0.0238
     10 C         -25.3360    0.6840   33.5440 C.3     1  UNL1        0.0204
     11 C         -24.8290   -0.7150   33.9050 C.3     1  UNL1        0.0888
     12 N         -24.7580   -1.4810   32.6460 N.3     1  UNL1       -0.2154
     13 C         -25.6880    1.6140   26.4610 C.2     1  UNL1        0.0411
     14 C         -26.2500    2.9200   26.3950 C.2     1  UNL1        0.0766
     15 C         -25.6420    4.0930   27.1230 C.2     1  UNL1        0.2664
     16 N         -25.6140    5.2520   26.4490 N.am    1  UNL1       -0.1997
     17 C         -25.0260    6.4790   26.9630 C.3     1  UNL1        0.1388
     18 O         -25.1430    3.9660   28.2430 O.2     1  UNL1       -0.2683
     19 C         -27.4380    3.0910   25.6450 C.2     1  UNL1        0.1067
     20 N         -28.0750    2.0890   25.0030 N.2     1  UNL1       -0.2081
     21 C         -27.5430    0.8490   25.0790 C.2     1  UNL1        0.2533
     22 O         -28.1930   -0.2080   24.4770 O.2     1  UNL1       -0.4558
     23 C         -29.4600    0.0050   23.8660 C.3     1  UNL1        0.2426
     24 C         -30.0650   -1.3770   23.5730 C.3     1  UNL1        0.2292
     25 O         -30.7290   -1.8780   24.7210 O.3     1  UNL1       -0.2162
     26 C         -26.3540    0.5760   25.7770 C.2     1  UNL1        0.1931
     27 F         -25.8600   -0.6810   25.7950 F       1  UNL1       -0.1992
     28 C         -22.0312    1.9796   26.7088 C.2     1  UNL1        0.0025
     29 C         -24.9534    6.8523   30.8527 C.3     1  UNL1        0.0296
     30 C         -24.7952    1.9944   31.1824 C.3     1  UNL1        0.0311
     31 O         -24.7860    4.3898   31.0983 O.3     1  UNL1       -0.3610
     32 C         -22.7981    0.6561   28.6028 C.2     1  UNL1        0.1738
     33 C         -26.9681    5.4203   31.0729 C.3     1  UNL1        0.0296
     34 F         -22.4950    0.0262   29.7551 F       1  UNL1       -0.2010
     35 C         -23.3509    2.0260   26.2398 C.2     1  UNL1        0.0032
     36 C         -24.1163    0.6527   28.1786 C.2     1  UNL1        0.1661
     37 C         -24.6885    3.2755   32.0239 C.3     1  UNL1        0.1151
     38 C         -24.3884    1.4039   26.9595 C.2     1  UNL1        0.0388
     39 O         -25.0947   -0.0727   28.9473 O.2     1  UNL1       -0.4710
     40 C         -21.7532    1.2763   27.8746 C.2     1  UNL1        0.0328
     41 C         -25.4846    5.5688   31.5543 C.3     1  UNL1        0.0928
     42 C         -25.7447    4.6941   33.8710 C.3     1  UNL1        0.0049
     43 C         -25.0770    5.7808   33.0559 C.3     1  UNL1        0.0273
     44 C         -25.7385    3.3747   33.1167 C.3     1  UNL1        0.0296
@<TRIPOS>BOND
     1     1    39    1
     2     2     7    1
     3     2     1    1
     4     3     2    2
     5     4     3    1
     6     4     5    2
     7     5     6    1
     8     6     7    2
     9     8     1    1
    10     8     9    1
    11     8    12    1
    12     9    30    1
    13     9    10    1
    14    10    11    1
    15    12    11    1
    16    13    38    1
    17    14    13    1
    18    14    15    1
    19    15    18    2
    20    16    17    1
    21    16    15    1
    22    19    14    2
    23    20    21    2
    24    20    19    1
    25    21    26    1
    26    22    21    1
    27    23    22    1
    28    24    23    1
    29    24    25    1
    30    26    27    1
    31    26    13    2
    32    28    40    1
    33    29    41    1
    34    31    41    1
    35    31    37    1
    36    32    34    1
    37    33    41    1
    38    35    28    2
    39    35    38    1
    40    36    32    1
    41    36    39    1
    42    37    30    1
    43    37    44    1
    44    38    36    2
    45    40    32    2
    46    41    43    1
    47    43    42    1
    48    44    42    1
