@<TRIPOS>MOLECULE
No_945-gen_results/8p0m/2024-11-27-11-27-31/
 15 16 0 0 0
SMALL
GASTEIGER

@<TRIPOS>ATOM
      1 C         -28.0162   -0.8135   28.8779 C.ar    1  UNL1        0.0002
      2 C         -27.0636   -0.1189   28.6079 C.ar    1  UNL1        0.0000
      3 C         -26.9716    0.7139   27.5060 C.ar    1  UNL1        0.0002
      4 C         -28.1053    0.7744   26.6421 C.ar    1  UNL1        0.0066
      5 C         -29.2041    0.1179   27.0477 C.ar    1  UNL1        0.0798
      6 C         -30.3488    0.2568   26.2203 C.2     1  UNL1        0.3878
      7 C         -29.1817   -0.6758   28.1173 C.ar    1  UNL1        0.0066
      8 O         -30.8359    1.3105   25.9989 O.co2   1  UNL1       -0.2406
      9 O         -30.8848   -0.8428   25.6953 O.co2   1  UNL1       -0.2406
     10 C         -25.6727    1.4294   27.1413 C.ar    1  UNL1        0.0000
     11 C         -24.5279    1.0664   27.7164 C.ar    1  UNL1        0.0000
     12 C         -23.3130    1.8266   27.3582 C.ar    1  UNL1        0.0000
     13 C         -23.4007    2.6890   26.2598 C.ar    1  UNL1        0.0000
     14 C         -25.5626    2.3676   26.1049 C.ar    1  UNL1        0.0000
     15 C         -24.5585    3.0682   25.7283 C.ar    1  UNL1        0.0000
@<TRIPOS>BOND
     1     5     6    1
     2     6     8   ar
     3     6     9   ar
     4     3    10    1
     5     1     2   ar
     6     2     3   ar
     7     3     4   ar
     8     4     5   ar
     9     5     7   ar
    10     7     1   ar
    11    10    11   ar
    12    11    12   ar
    13    12    13   ar
    14    13    15   ar
    15    15    14   ar
    16    14    10   ar
