@<TRIPOS>MOLECULE
outputs/IAG933/test6/raw/output_9453_IAG933_linker_design_.xyz
 42 45 0 0 0
SMALL
GASTEIGER

@<TRIPOS>ATOM
      1 C         -24.8550   -1.0120   30.1430 C.3     1  UNL1        0.0553
      2 C         -24.9730   -2.5050   29.7880 C.2     1  UNL1       -0.0198
      3 C         -23.9060   -3.1730   29.1460 C.2     1  UNL1       -0.0042
      4 C         -23.9890   -4.5490   28.8530 C.2     1  UNL1       -0.0003
      5 C         -25.1370   -5.2800   29.2050 C.2     1  UNL1       -0.0000
      6 C         -26.2320   -4.6110   29.7840 C.2     1  UNL1       -0.0003
      7 C         -26.1550   -3.2320   30.0650 C.2     1  UNL1       -0.0042
      8 C         -25.3870   -0.6790   31.5710 C.3     1  UNL1        0.0782
      9 C         -25.1890    0.7730   32.0280 C.3     1  UNL1        0.0192
     10 C         -25.3360    0.6840   33.5440 C.3     1  UNL1        0.0202
     11 C         -24.8290   -0.7150   33.9050 C.3     1  UNL1        0.0887
     12 N         -24.7580   -1.4810   32.6460 N.3     1  UNL1       -0.2191
     13 C         -25.6880    1.6140   26.4610 C.2     1  UNL1        0.0431
     14 C         -26.2500    2.9200   26.3950 C.2     1  UNL1        0.0769
     15 C         -25.6420    4.0930   27.1230 C.2     1  UNL1        0.2664
     16 N         -25.6140    5.2520   26.4490 N.am    1  UNL1       -0.1997
     17 C         -25.0260    6.4790   26.9630 C.3     1  UNL1        0.1388
     18 O         -25.1430    3.9660   28.2430 O.2     1  UNL1       -0.2683
     19 C         -27.4380    3.0910   25.6450 C.2     1  UNL1        0.1067
     20 N         -28.0750    2.0890   25.0030 N.2     1  UNL1       -0.2081
     21 C         -27.5430    0.8490   25.0790 C.2     1  UNL1        0.2533
     22 O         -28.1930   -0.2080   24.4770 O.2     1  UNL1       -0.4558
     23 C         -29.4600    0.0050   23.8660 C.3     1  UNL1        0.2426
     24 C         -30.0650   -1.3770   23.5730 C.3     1  UNL1        0.2292
     25 O         -30.7290   -1.8780   24.7210 O.3     1  UNL1       -0.2162
     26 C         -26.3540    0.5760   25.7770 C.2     1  UNL1        0.1934
     27 F         -25.8600   -0.6810   25.7950 F       1  UNL1       -0.1992
     28 C         -24.6294    1.3106   27.2295 C.2     1  UNL1        0.0399
     29 C         -27.3695    1.4353   29.6018 C.3     1  UNL1        0.1100
     30 C         -21.9302    1.0506   28.7405 C.2     1  UNL1        0.0749
     31 C         -25.3760    0.0320   29.1944 C.3     1  UNL1        0.0923
     32 O         -29.6006    0.6049   28.5799 O.3     1  UNL1       -0.2189
     33 C         -22.3322    1.8815   26.5150 C.2     1  UNL1        0.1576
     34 F         -22.0387    2.3299   25.3562 F       1  UNL1       -0.2002
     35 C         -21.5242    1.6334   27.5225 C.3     1  UNL1        0.1110
     36 C         -28.9027    1.2119   29.7043 C.3     1  UNL1        0.1994
     37 N         -23.1357    0.7253   29.0738 N.2     1  UNL1       -0.2686
     38 C         -24.3148    0.6776   28.4768 C.3     1  UNL1        0.1471
     39 C         -23.5459    1.6743   26.6235 C.1     1  UNL1       -0.0789
     40 C         -27.1553   -0.5069   28.6119 C.3     1  UNL1        0.2591
     41 O         -27.6558   -1.3474   28.2234 O.3     1  UNL1       -0.2005
     42 N         -26.5158    0.3327   29.0886 N.3     1  UNL1       -0.2411
@<TRIPOS>BOND
     1     1    31    1
     2     2     7    1
     3     2     1    1
     4     3     2    2
     5     4     3    1
     6     4     5    2
     7     5     6    1
     8     6     7    2
     9     8     1    1
    10     8     9    1
    11     8    12    1
    12     9    10    1
    13    10    11    1
    14    12    11    1
    15    13    28    1
    16    14    13    1
    17    14    15    1
    18    15    18    2
    19    16    17    1
    20    16    15    1
    21    19    14    2
    22    20    21    2
    23    20    19    1
    24    21    26    1
    25    22    21    1
    26    23    22    1
    27    24    23    1
    28    24    25    1
    29    26    27    1
    30    26    13    2
    31    28    38    1
    32    29    36    1
    33    30    37    2
    34    31    42    1
    35    32    36    1
    36    33    39    2
    37    33    35    1
    38    34    33    1
    39    35    30    1
    40    38    37    1
    41    38    31    1
    42    39    28    2
    43    40    42    1
    44    41    40    1
    45    42    29    1
