@<TRIPOS>MOLECULE
outputs/IAG933/test6/raw/output_9459_IAG933_linker_design_.xyz
 46 49 0 0 0
SMALL
GASTEIGER

@<TRIPOS>ATOM
      1 C         -24.8550   -1.0120   30.1430 C.3     1  UNL1        0.0583
      2 C         -24.9730   -2.5050   29.7880 C.2     1  UNL1       -0.0195
      3 C         -23.9060   -3.1730   29.1460 C.2     1  UNL1       -0.0042
      4 C         -23.9890   -4.5490   28.8530 C.2     1  UNL1       -0.0003
      5 C         -25.1370   -5.2800   29.2050 C.2     1  UNL1       -0.0000
      6 C         -26.2320   -4.6110   29.7840 C.2     1  UNL1       -0.0003
      7 C         -26.1550   -3.2320   30.0650 C.2     1  UNL1       -0.0042
      8 C         -25.3870   -0.6790   31.5710 C.3     1  UNL1        0.0785
      9 C         -25.1890    0.7730   32.0280 C.3     1  UNL1        0.0192
     10 C         -25.3360    0.6840   33.5440 C.3     1  UNL1        0.0202
     11 C         -24.8290   -0.7150   33.9050 C.3     1  UNL1        0.0887
     12 N         -24.7580   -1.4810   32.6460 N.3     1  UNL1       -0.2191
     13 C         -25.6880    1.6140   26.4610 C.2     1  UNL1        0.0206
     14 C         -26.2500    2.9200   26.3950 C.2     1  UNL1        0.0729
     15 C         -25.6420    4.0930   27.1230 C.2     1  UNL1        0.2661
     16 N         -25.6140    5.2520   26.4490 N.am    1  UNL1       -0.1997
     17 C         -25.0260    6.4790   26.9630 C.3     1  UNL1        0.1388
     18 O         -25.1430    3.9660   28.2430 O.2     1  UNL1       -0.2683
     19 C         -27.4380    3.0910   25.6450 C.2     1  UNL1        0.1064
     20 N         -28.0750    2.0890   25.0030 N.2     1  UNL1       -0.2081
     21 C         -27.5430    0.8490   25.0790 C.2     1  UNL1        0.2530
     22 O         -28.1930   -0.2080   24.4770 O.2     1  UNL1       -0.4558
     23 C         -29.4600    0.0050   23.8660 C.3     1  UNL1        0.2426
     24 C         -30.0650   -1.3770   23.5730 C.3     1  UNL1        0.2292
     25 O         -30.7290   -1.8780   24.7210 O.3     1  UNL1       -0.2162
     26 C         -26.3540    0.5760   25.7770 C.2     1  UNL1        0.1894
     27 F         -25.8600   -0.6810   25.7950 F       1  UNL1       -0.1996
     28 C         -28.5578    0.8882   30.2583 C.3     1  UNL1        0.0980
     29 C         -27.4753    3.2007   30.6558 C.3     1  UNL1        0.0117
     30 CL        -23.0266    2.2467   25.1068 Cl      1  UNL1       -0.0846
     31 C         -27.5021    4.5693   29.8632 C.3     1  UNL1        0.0006
     32 O         -30.8038    3.8870   30.2560 O.co2   1  UNL1       -0.2457
     33 C         -22.1138    0.9402   28.8494 C.3     1  UNL1        0.0572
     34 O         -29.5014    3.8987   32.0337 O.co2   1  UNL1       -0.2457
     35 C         -22.0748    1.5390   27.5972 C.2     1  UNL1        0.1244
     36 C         -24.4687    1.3450   27.2647 C.3     1  UNL1        0.0614
     37 F         -20.8410    1.9798   27.3401 F       1  UNL1       -0.2083
     38 C         -23.3594    0.7724   29.3135 C.3     1  UNL1        0.0095
     39 N         -26.7674   -0.2281   28.7238 N.am    1  UNL1       -0.2068
     40 C         -28.8454    2.5149   30.2088 C.3     1  UNL1        0.1125
     41 C         -24.4818    0.7226   28.4900 C.3     1  UNL1        0.0299
     42 O         -28.8461   -0.1878   28.1920 O.2     1  UNL1       -0.2733
     43 C         -23.1801    1.7036   26.7628 C.2     1  UNL1        0.0624
     44 C         -25.5065   -0.1247   29.0642 C.3     1  UNL1        0.1012
     45 C         -28.0527    0.1155   29.0213 C.2     1  UNL1        0.2419
     46 C         -29.8004    3.5257   30.8771 C.2     1  UNL1        0.3648
@<TRIPOS>BOND
     1     1    44    1
     2     2     7    1
     3     2     1    1
     4     3     2    2
     5     4     3    1
     6     4     5    2
     7     5     6    1
     8     6     7    2
     9     8     1    1
    10     8     9    1
    11     8    12    1
    12     9    10    1
    13    10    11    1
    14    12    11    1
    15    14    13    1
    16    14    15    1
    17    15    18    2
    18    16    17    1
    19    16    15    1
    20    19    14    2
    21    20    21    2
    22    20    19    1
    23    21    26    1
    24    22    21    1
    25    23    22    1
    26    24    23    1
    27    24    25    1
    28    26    27    1
    29    26    13    2
    30    30    43    1
    31    31    29    1
    32    32    46   ar
    33    33    38    1
    34    35    33    1
    35    36    13    1
    36    36    41    1
    37    37    35    1
    38    39    45    1
    39    40    28    1
    40    40    29    1
    41    40    46    1
    42    41    44    1
    43    41    38    1
    44    42    45    2
    45    43    36    1
    46    43    35    2
    47    44    39    1
    48    45    28    1
    49    46    34   ar
