@<TRIPOS>MOLECULE
outputs/IAG933/test6/raw/output_9461_IAG933_linker_design_.xyz
 44 46 0 0 0
SMALL
GASTEIGER

@<TRIPOS>ATOM
      1 C         -24.8550   -1.0120   30.1430 C.3     1  UNL1        0.0633
      2 C         -24.9730   -2.5050   29.7880 C.2     1  UNL1       -0.0192
      3 C         -23.9060   -3.1730   29.1460 C.2     1  UNL1       -0.0042
      4 C         -23.9890   -4.5490   28.8530 C.2     1  UNL1       -0.0003
      5 C         -25.1370   -5.2800   29.2050 C.2     1  UNL1       -0.0000
      6 C         -26.2320   -4.6110   29.7840 C.2     1  UNL1       -0.0003
      7 C         -26.1550   -3.2320   30.0650 C.2     1  UNL1       -0.0042
      8 C         -25.3870   -0.6790   31.5710 C.3     1  UNL1        0.0788
      9 C         -25.1890    0.7730   32.0280 C.3     1  UNL1        0.0193
     10 C         -25.3360    0.6840   33.5440 C.3     1  UNL1        0.0202
     11 C         -24.8290   -0.7150   33.9050 C.3     1  UNL1        0.0887
     12 N         -24.7580   -1.4810   32.6460 N.3     1  UNL1       -0.2191
     13 C         -25.6880    1.6140   26.4610 C.3     1  UNL1        0.1849
     14 C         -26.2500    2.9200   26.3950 C.2     1  UNL1        0.0819
     15 C         -25.6420    4.0930   27.1230 C.2     1  UNL1        0.2647
     16 N         -25.6140    5.2520   26.4490 N.am    1  UNL1       -0.1999
     17 C         -25.0260    6.4790   26.9630 C.3     1  UNL1        0.1388
     18 O         -25.1430    3.9660   28.2430 O.2     1  UNL1       -0.2686
     19 C         -27.4380    3.0910   25.6450 C.2     1  UNL1        0.1045
     20 N         -28.0750    2.0890   25.0030 N.2     1  UNL1       -0.2117
     21 C         -27.5430    0.8490   25.0790 C.2     1  UNL1        0.2367
     22 O         -28.1930   -0.2080   24.4770 O.2     1  UNL1       -0.4585
     23 C         -29.4600    0.0050   23.8660 C.3     1  UNL1        0.2423
     24 C         -30.0650   -1.3770   23.5730 C.3     1  UNL1        0.2292
     25 O         -30.7290   -1.8780   24.7210 O.3     1  UNL1       -0.2162
     26 C         -26.3540    0.5760   25.7770 C.3     1  UNL1        0.2670
     27 F         -25.8600   -0.6810   25.7950 F       1  UNL1       -0.2242
     28 C         -27.1962   -0.1256   28.3064 C.2     1  UNL1        0.0672
     29 C         -32.1742    0.8907   29.8544 C.3     1  UNL1        0.4046
     30 C         -30.5219   -0.3775   28.5308 C.2     1  UNL1        0.1597
     31 F         -32.4792    1.6547   28.8373 F       1  UNL1       -0.1696
     32 C         -24.6786    0.0244   28.9934 C.3     1  UNL1        0.1409
     33 C         -27.9770    0.1504   29.5760 C.3     1  UNL1        0.0543
     34 O         -22.8875    1.2654   29.9234 O.3     1  UNL1       -0.2184
     35 F         -33.2630    0.7761   30.6131 F       1  UNL1       -0.1696
     36 O         -30.6534   -0.1548   27.3528 O.2     1  UNL1       -0.2957
     37 C         -23.1038    1.1382   27.5932 C.3     1  UNL1        0.1479
     38 F         -31.1870    1.4113   30.6026 F       1  UNL1       -0.1696
     39 C         -31.6927   -0.5163   29.4076 C.3     1  UNL1        0.1675
     40 C         -29.3902   -0.5767   29.3172 C.3     1  UNL1        0.0711
     41 N         -25.7112   -0.1065   28.1083 N.2     1  UNL1       -0.2724
     42 O         -24.2848    1.6282   26.9445 O.3     1  UNL1       -0.3481
     43 C         -23.5623    0.7536   28.9448 C.3     1  UNL1        0.2013
     44 C         -21.5582    1.6565   27.5682 C.3     1  UNL1        0.0349
@<TRIPOS>BOND
     1     1    32    1
     2     2     7    1
     3     2     1    1
     4     3     2    2
     5     4     3    1
     6     4     5    2
     7     5     6    1
     8     6     7    2
     9     8     1    1
    10     8     9    1
    11     8    12    1
    12     9    10    1
    13    10    11    1
    14    12    11    1
    15    13    42    1
    16    14    13    1
    17    14    15    1
    18    15    18    2
    19    16    17    1
    20    16    15    1
    21    19    14    2
    22    20    21    2
    23    20    19    1
    24    21    26    1
    25    22    21    1
    26    23    22    1
    27    24    23    1
    28    24    25    1
    29    26    27    1
    30    26    13    1
    31    28    33    1
    32    29    38    1
    33    29    35    1
    34    30    40    1
    35    30    39    1
    36    31    29    1
    37    32    41    1
    38    36    30    2
    39    37    44    1
    40    37    43    1
    41    39    29    1
    42    40    33    1
    43    41    28    2
    44    42    37    1
    45    43    32    1
    46    43    34    1
