@<TRIPOS>MOLECULE
outputs/IAG933/test6/raw/output_9466_IAG933_linker_design_.xyz
 44 47 0 0 0
SMALL
GASTEIGER

@<TRIPOS>ATOM
      1 C         -24.8550   -1.0120   30.1430 C.3     1  UNL1        0.0387
      2 C         -24.9730   -2.5050   29.7880 C.2     1  UNL1       -0.0211
      3 C         -23.9060   -3.1730   29.1460 C.2     1  UNL1       -0.0042
      4 C         -23.9890   -4.5490   28.8530 C.2     1  UNL1       -0.0003
      5 C         -25.1370   -5.2800   29.2050 C.2     1  UNL1       -0.0000
      6 C         -26.2320   -4.6110   29.7840 C.2     1  UNL1       -0.0003
      7 C         -26.1550   -3.2320   30.0650 C.2     1  UNL1       -0.0042
      8 C         -25.3870   -0.6790   31.5710 C.3     1  UNL1        0.0768
      9 C         -25.1890    0.7730   32.0280 C.3     1  UNL1        0.0192
     10 C         -25.3360    0.6840   33.5440 C.3     1  UNL1        0.0202
     11 C         -24.8290   -0.7150   33.9050 C.3     1  UNL1        0.0887
     12 N         -24.7580   -1.4810   32.6460 N.3     1  UNL1       -0.2191
     13 C         -25.6880    1.6140   26.4610 C.3     1  UNL1        0.0742
     14 C         -26.2500    2.9200   26.3950 C.2     1  UNL1        0.0551
     15 C         -25.6420    4.0930   27.1230 C.2     1  UNL1        0.2624
     16 N         -25.6140    5.2520   26.4490 N.am    1  UNL1       -0.2000
     17 C         -25.0260    6.4790   26.9630 C.3     1  UNL1        0.1388
     18 O         -25.1430    3.9660   28.2430 O.2     1  UNL1       -0.2687
     19 C         -27.4380    3.0910   25.6450 C.2     1  UNL1        0.1021
     20 N         -28.0750    2.0890   25.0030 N.2     1  UNL1       -0.2119
     21 C         -27.5430    0.8490   25.0790 C.2     1  UNL1        0.2341
     22 O         -28.1930   -0.2080   24.4770 O.2     1  UNL1       -0.4585
     23 C         -29.4600    0.0050   23.8660 C.3     1  UNL1        0.2423
     24 C         -30.0650   -1.3770   23.5730 C.3     1  UNL1        0.2292
     25 O         -30.7290   -1.8780   24.7210 O.3     1  UNL1       -0.2162
     26 C         -26.3540    0.5760   25.7770 C.3     1  UNL1        0.2403
     27 F         -25.8600   -0.6810   25.7950 F       1  UNL1       -0.2269
     28 C         -21.3359    0.0429   28.5282 C.3     1  UNL1        0.2500
     29 C         -24.3301    1.4209   26.5708 C.3     1  UNL1        0.0295
     30 C         -22.2174    2.1473   25.6901 C.2     1  UNL1        0.0157
     31 C         -21.3966   -0.8332   29.1158 C.3     1  UNL1        0.1994
     32 C         -23.8772    0.8994   27.5780 C.3     1  UNL1        0.0048
     33 C         -26.2161    4.7522   32.1642 C.2     1  UNL1        0.0194
     34 C         -26.0383    0.9025   29.1842 C.3     1  UNL1        0.0264
     35 C         -21.4440    2.0200   26.8324 C.2     1  UNL1        0.0956
     36 N         -21.0426    1.2193   27.8718 N.2     1  UNL1       -0.2395
     37 O         -22.1124   -0.4419   28.8500 O.3     1  UNL1       -0.3278
     38 C         -26.3961    1.9457   29.7150 C.2     1  UNL1       -0.0247
     39 N         -27.5740    4.4806   30.2675 N.pl3   1  UNL1       -0.1281
     40 C         -23.8336    0.2003   28.4472 C.3     1  UNL1        0.0010
     41 C         -26.5037    4.1353   30.9812 C.2     1  UNL1        0.0888
     42 C         -25.6499    3.1341   30.3776 C.2     1  UNL1        0.0135
     43 C         -25.1012   -0.1912   28.9030 C.3     1  UNL1        0.0097
     44 C         -23.5522    1.8209   25.4939 C.2     1  UNL1       -0.0245
@<TRIPOS>BOND
     1     1    43    1
     2     2     7    1
     3     2     1    1
     4     3     2    2
     5     4     3    1
     6     4     5    2
     7     5     6    1
     8     6     7    2
     9     8     1    1
    10     8     9    1
    11     8    12    1
    12     9    10    1
    13    10    11    1
    14    12    11    1
    15    13    29    1
    16    14    13    1
    17    14    15    1
    18    15    18    2
    19    16    17    1
    20    16    15    1
    21    19    14    2
    22    20    21    2
    23    20    19    1
    24    21    26    1
    25    22    21    1
    26    23    22    1
    27    24    23    1
    28    24    25    1
    29    26    27    1
    30    26    13    1
    31    28    36    1
    32    28    37    1
    33    28    31    1
    34    29    44    1
    35    29    32    1
    36    30    35    1
    37    32    40    1
    38    34    38    1
    39    35    36    2
    40    37    31    1
    41    38    42    2
    42    39    41    1
    43    41    33    2
    44    42    41    1
    45    43    40    1
    46    43    34    1
    47    44    30    2
