@<TRIPOS>MOLECULE
outputs/IAG933/test6/raw/output_9469_IAG933_linker_design_.xyz
 42 46 0 0 0
SMALL
GASTEIGER

@<TRIPOS>ATOM
      1 C         -24.8550   -1.0120   30.1430 C.3     1  UNL1        0.0965
      2 C         -24.9730   -2.5050   29.7880 C.2     1  UNL1       -0.0064
      3 C         -23.9060   -3.1730   29.1460 C.2     1  UNL1       -0.0029
      4 C         -23.9890   -4.5490   28.8530 C.2     1  UNL1       -0.0003
      5 C         -25.1370   -5.2800   29.2050 C.2     1  UNL1       -0.0000
      6 C         -26.2320   -4.6110   29.7840 C.2     1  UNL1       -0.0003
      7 C         -26.1550   -3.2320   30.0650 C.2     1  UNL1       -0.0029
      8 C         -25.3870   -0.6790   31.5710 C.3     1  UNL1        0.0916
      9 C         -25.1890    0.7730   32.0280 C.3     1  UNL1        0.0206
     10 C         -25.3360    0.6840   33.5440 C.3     1  UNL1        0.0203
     11 C         -24.8290   -0.7150   33.9050 C.3     1  UNL1        0.0888
     12 N         -24.7580   -1.4810   32.6460 N.3     1  UNL1       -0.2178
     13 C         -25.6880    1.6140   26.4610 C.3     1  UNL1        0.0922
     14 C         -26.2500    2.9200   26.3950 C.2     1  UNL1        0.0589
     15 C         -25.6420    4.0930   27.1230 C.2     1  UNL1        0.2628
     16 N         -25.6140    5.2520   26.4490 N.am    1  UNL1       -0.2000
     17 C         -25.0260    6.4790   26.9630 C.3     1  UNL1        0.1388
     18 O         -25.1430    3.9660   28.2430 O.2     1  UNL1       -0.2686
     19 C         -27.4380    3.0910   25.6450 C.2     1  UNL1        0.1025
     20 N         -28.0750    2.0890   25.0030 N.2     1  UNL1       -0.2118
     21 C         -27.5430    0.8490   25.0790 C.2     1  UNL1        0.2344
     22 O         -28.1930   -0.2080   24.4770 O.2     1  UNL1       -0.4585
     23 C         -29.4600    0.0050   23.8660 C.3     1  UNL1        0.2423
     24 C         -30.0650   -1.3770   23.5730 C.3     1  UNL1        0.2292
     25 O         -30.7290   -1.8780   24.7210 O.3     1  UNL1       -0.2162
     26 C         -26.3540    0.5760   25.7770 C.3     1  UNL1        0.2440
     27 F         -25.8600   -0.6810   25.7950 F       1  UNL1       -0.2265
     28 C         -28.9585    0.8296   28.0926 C.3     1  UNL1        0.0041
     29 C         -21.4877    1.3870   27.3730 C.2     1  UNL1        0.0417
     30 C         -29.8245   -1.1315   29.2176 C.3     1  UNL1        0.1821
     31 C         -24.7167    0.8679   28.6823 C.3     1  UNL1        0.1023
     32 C         -22.3814    0.7264   28.2164 C.2     1  UNL1        0.1927
     33 C         -29.0091    0.2101   29.4402 C.3     1  UNL1        0.0344
     34 C         -23.3504    1.9238   25.8758 C.2     1  UNL1       -0.0039
     35 C         -21.9711    2.0133   26.1909 C.2     1  UNL1        0.0030
     36 N         -25.3921   -0.1981   29.1483 N.3     1  UNL1       -0.2654
     37 C         -27.8116    0.0979   28.6104 C.3     1  UNL1        0.0186
     38 O         -21.9681    0.2987   29.3660 O.2     1  UNL1       -0.2869
     39 C         -23.7300    0.8741   27.9755 C.2     1  UNL1        0.0293
     40 O         -31.2186   -0.7060   29.0209 O.3     1  UNL1       -0.2204
     41 C         -26.7434    0.2004   29.6183 C.3     1  UNL1        0.0727
     42 C         -24.2465    1.3814   26.8481 C.2     1  UNL1       -0.0146
@<TRIPOS>BOND
     1     1    36    1
     2     2     7    1
     3     2     1    1
     4     3     2    2
     5     4     3    1
     6     4     5    2
     7     5     6    1
     8     6     7    2
     9     8     1    1
    10     8     9    1
    11     8    12    1
    12     9    10    1
    13    10    11    1
    14    12    11    1
    15    13    42    1
    16    14    13    1
    17    14    15    1
    18    15    18    2
    19    16    17    1
    20    16    15    1
    21    19    14    2
    22    20    21    2
    23    20    19    1
    24    21    26    1
    25    22    21    1
    26    23    22    1
    27    24    23    1
    28    24    25    1
    29    26    27    1
    30    26    13    1
    31    28    37    1
    32    28    33    1
    33    29    32    1
    34    31    36    1
    35    32    38    1
    36    33    30    1
    37    34    35    1
    38    34    42    2
    39    35    29    2
    40    36    41    1
    41    37    33    1
    42    37    41    1
    43    39    32    2
    44    39    31    1
    45    40    30    1
    46    42    39    1
