@<TRIPOS>MOLECULE
outputs/IAG933/test6/raw/output_9478_IAG933_linker_design_.xyz
 45 48 0 0 0
SMALL
GASTEIGER

@<TRIPOS>ATOM
      1 C         -24.8550   -1.0120   30.1430 C.3     1  UNL1        0.1109
      2 C         -24.9730   -2.5050   29.7880 C.2     1  UNL1       -0.0051
      3 C         -23.9060   -3.1730   29.1460 C.2     1  UNL1       -0.0029
      4 C         -23.9890   -4.5490   28.8530 C.2     1  UNL1       -0.0003
      5 C         -25.1370   -5.2800   29.2050 C.2     1  UNL1       -0.0000
      6 C         -26.2320   -4.6110   29.7840 C.2     1  UNL1       -0.0003
      7 C         -26.1550   -3.2320   30.0650 C.2     1  UNL1       -0.0029
      8 C         -25.3870   -0.6790   31.5710 C.3     1  UNL1        0.0929
      9 C         -25.1890    0.7730   32.0280 C.3     1  UNL1        0.0206
     10 C         -25.3360    0.6840   33.5440 C.3     1  UNL1        0.0203
     11 C         -24.8290   -0.7150   33.9050 C.3     1  UNL1        0.0888
     12 N         -24.7580   -1.4810   32.6460 N.3     1  UNL1       -0.2177
     13 C         -25.6880    1.6140   26.4610 C.2     1  UNL1        0.0330
     14 C         -26.2500    2.9200   26.3950 C.2     1  UNL1        0.0739
     15 C         -25.6420    4.0930   27.1230 C.2     1  UNL1        0.2662
     16 N         -25.6140    5.2520   26.4490 N.am    1  UNL1       -0.1997
     17 C         -25.0260    6.4790   26.9630 C.3     1  UNL1        0.1388
     18 O         -25.1430    3.9660   28.2430 O.2     1  UNL1       -0.2683
     19 C         -27.4380    3.0910   25.6450 C.2     1  UNL1        0.1065
     20 N         -28.0750    2.0890   25.0030 N.2     1  UNL1       -0.2081
     21 C         -27.5430    0.8490   25.0790 C.2     1  UNL1        0.2530
     22 O         -28.1930   -0.2080   24.4770 O.2     1  UNL1       -0.4558
     23 C         -29.4600    0.0050   23.8660 C.3     1  UNL1        0.2426
     24 C         -30.0650   -1.3770   23.5730 C.3     1  UNL1        0.2292
     25 O         -30.7290   -1.8780   24.7210 O.3     1  UNL1       -0.2162
     26 C         -26.3540    0.5760   25.7770 C.2     1  UNL1        0.1905
     27 F         -25.8600   -0.6810   25.7950 F       1  UNL1       -0.1995
     28 C         -28.7911    2.4800   29.8370 C.3     1  UNL1        0.0417
     29 N         -24.6352    0.9131   28.4974 N.3     1  UNL1       -0.2126
     30 C         -23.5576    1.4074   27.4378 C.3     1  UNL1        0.1039
     31 N         -27.0192    5.2757   30.5398 N.am    1  UNL1       -0.0878
     32 C         -21.1997    1.5664   27.1139 C.2     1  UNL1        0.3657
     33 O         -28.5929    4.3297   31.8999 O.2     1  UNL1       -0.2717
     34 O         -21.3910    2.0460   25.9529 O.co2   1  UNL1       -0.2456
     35 C         -22.3968    1.0130   27.9075 C.3     1  UNL1        0.1211
     36 C         -27.4765    2.8440   30.5087 C.3     1  UNL1        0.0911
     37 N         -25.1123   -0.1861   28.9712 N.3     1  UNL1       -0.2110
     38 C         -26.1803   -0.6435   28.2845 C.3     1  UNL1        0.1211
     39 O         -20.0700    1.5117   27.7352 O.co2   1  UNL1       -0.2456
     40 C         -27.3864   -0.2460   29.0335 C.3     1  UNL1        0.1609
     41 C         -27.7755    4.2535   30.9841 C.2     1  UNL1        0.2608
     42 O         -27.9485    0.3033   30.2730 O.3     1  UNL1       -0.3522
     43 C         -29.1427    1.0417   29.9637 C.3     1  UNL1        0.1427
     44 C         -24.7212    1.1836   27.3846 C.3     1  UNL1        0.1139
     45 C         -22.2135    0.3864   29.2397 C.3     1  UNL1        0.0133
@<TRIPOS>BOND
     1     1    37    1
     2     2     7    1
     3     2     1    1
     4     3     2    2
     5     4     3    1
     6     4     5    2
     7     5     6    1
     8     6     7    2
     9     8     1    1
    10     8     9    1
    11     8    12    1
    12     9    10    1
    13    10    11    1
    14    12    11    1
    15    14    13    1
    16    14    15    1
    17    15    18    2
    18    16    17    1
    19    16    15    1
    20    19    14    2
    21    20    21    2
    22    20    19    1
    23    21    26    1
    24    22    21    1
    25    23    22    1
    26    24    23    1
    27    24    25    1
    28    26    27    1
    29    26    13    2
    30    28    43    1
    31    28    36    1
    32    29    37    1
    33    30    35    1
    34    30    29    1
    35    31    41    1
    36    32    39   ar
    37    32    35    1
    38    34    32   ar
    39    35    45    1
    40    36    41    1
    41    38    37    1
    42    38    40    1
    43    40    42    1
    44    41    33    2
    45    43    42    1
    46    44    13    1
    47    44    30    1
    48    44    29    1
