@<TRIPOS>MOLECULE
outputs/IAG933/test6/raw/output_9482_IAG933_linker_design_.xyz
 42 47 0 0 0
SMALL
GASTEIGER

@<TRIPOS>ATOM
      1 C         -24.8550   -1.0120   30.1430 C.3     1  UNL1        0.0750
      2 C         -24.9730   -2.5050   29.7880 C.2     1  UNL1       -0.0158
      3 C         -23.9060   -3.1730   29.1460 C.2     1  UNL1       -0.0039
      4 C         -23.9890   -4.5490   28.8530 C.2     1  UNL1       -0.0003
      5 C         -25.1370   -5.2800   29.2050 C.2     1  UNL1       -0.0000
      6 C         -26.2320   -4.6110   29.7840 C.2     1  UNL1       -0.0003
      7 C         -26.1550   -3.2320   30.0650 C.2     1  UNL1       -0.0039
      8 C         -25.3870   -0.6790   31.5710 C.3     1  UNL1        0.0821
      9 C         -25.1890    0.7730   32.0280 C.3     1  UNL1        0.0196
     10 C         -25.3360    0.6840   33.5440 C.3     1  UNL1        0.0203
     11 C         -24.8290   -0.7150   33.9050 C.3     1  UNL1        0.0887
     12 N         -24.7580   -1.4810   32.6460 N.3     1  UNL1       -0.2188
     13 C         -25.6880    1.6140   26.4610 C.3     1  UNL1        0.1463
     14 C         -26.2500    2.9200   26.3950 C.2     1  UNL1        0.0712
     15 C         -25.6420    4.0930   27.1230 C.2     1  UNL1        0.2638
     16 N         -25.6140    5.2520   26.4490 N.am    1  UNL1       -0.2000
     17 C         -25.0260    6.4790   26.9630 C.3     1  UNL1        0.1388
     18 O         -25.1430    3.9660   28.2430 O.2     1  UNL1       -0.2686
     19 C         -27.4380    3.0910   25.6450 C.2     1  UNL1        0.1035
     20 N         -28.0750    2.0890   25.0030 N.2     1  UNL1       -0.2118
     21 C         -27.5430    0.8490   25.0790 C.2     1  UNL1        0.2356
     22 O         -28.1930   -0.2080   24.4770 O.2     1  UNL1       -0.4585
     23 C         -29.4600    0.0050   23.8660 C.3     1  UNL1        0.2423
     24 C         -30.0650   -1.3770   23.5730 C.3     1  UNL1        0.2292
     25 O         -30.7290   -1.8780   24.7210 O.3     1  UNL1       -0.2162
     26 C         -26.3540    0.5760   25.7770 C.3     1  UNL1        0.2562
     27 F         -25.8600   -0.6810   25.7950 F       1  UNL1       -0.2253
     28 C         -23.6520    1.1015   27.5046 C.3     1  UNL1        0.1391
     29 N         -25.7807    0.4204   28.3362 N.pl3   1  UNL1       -0.2537
     30 F         -21.8647    2.1215   24.7913 F       1  UNL1       -0.0870
     31 C         -21.4137    1.4471   27.3601 C.2     1  UNL1        0.0163
     32 C         -27.5759    1.2849   29.5032 C.3     1  UNL1        0.0213
     33 N         -24.9391    1.1745   27.3106 N.3     1  UNL1       -0.1906
     34 C         -22.6160    1.6405   26.8106 C.2     1  UNL1        0.0994
     35 C         -22.2654    0.0101   29.0193 C.2     1  UNL1       -0.0016
     36 C         -21.2211    0.6197   28.3993 C.2     1  UNL1        0.0009
     37 C         -28.9030    1.4269   30.0664 C.3     1  UNL1        0.0018
     38 C         -24.8108   -0.0866   29.0677 C.2     1  UNL1        0.0427
     39 C         -27.2313    0.1060   28.6024 C.3     1  UNL1        0.1084
     40 C         -23.5146    0.3406   28.6013 C.2     1  UNL1        0.0101
     41 C         -28.2569    2.5776   29.4149 C.3     1  UNL1        0.0018
     42 N         -22.8191    2.3064   25.6721 N.pl3   1  UNL1       -0.0582
@<TRIPOS>BOND
     1     1    38    1
     2     2     7    1
     3     2     1    1
     4     3     2    2
     5     4     3    1
     6     4     5    2
     7     5     6    1
     8     6     7    2
     9     8     1    1
    10     8     9    1
    11     8    12    1
    12     9    10    1
    13    10    11    1
    14    12    11    1
    15    13    14    1
    16    13    33    1
    17    14    15    1
    18    15    18    2
    19    16    17    1
    20    16    15    1
    21    19    14    2
    22    20    21    2
    23    20    19    1
    24    21    26    1
    25    22    21    1
    26    23    22    1
    27    24    23    1
    28    24    25    1
    29    26    27    1
    30    26    13    1
    31    28    34    1
    32    28    40    1
    33    29    39    1
    34    29    38    1
    35    30    42    1
    36    31    36    1
    37    32    37    1
    38    33    28    1
    39    33    29    1
    40    34    31    2
    41    36    35    2
    42    39    32    1
    43    40    35    1
    44    40    38    2
    45    41    32    1
    46    41    37    1
    47    42    34    1
