@<TRIPOS>MOLECULE
outputs/IAG933/test6/raw/output_9486_IAG933_linker_design_.xyz
 43 47 0 0 0
SMALL
GASTEIGER

@<TRIPOS>ATOM
      1 C         -24.8550   -1.0120   30.1430 C.3     1  UNL1        0.0716
      2 C         -24.9730   -2.5050   29.7880 C.2     1  UNL1       -0.0184
      3 C         -23.9060   -3.1730   29.1460 C.2     1  UNL1       -0.0041
      4 C         -23.9890   -4.5490   28.8530 C.2     1  UNL1       -0.0003
      5 C         -25.1370   -5.2800   29.2050 C.2     1  UNL1       -0.0000
      6 C         -26.2320   -4.6110   29.7840 C.2     1  UNL1       -0.0003
      7 C         -26.1550   -3.2320   30.0650 C.2     1  UNL1       -0.0041
      8 C         -25.3870   -0.6790   31.5710 C.3     1  UNL1        0.0796
      9 C         -25.1890    0.7730   32.0280 C.3     1  UNL1        0.0193
     10 C         -25.3360    0.6840   33.5440 C.3     1  UNL1        0.0202
     11 C         -24.8290   -0.7150   33.9050 C.3     1  UNL1        0.0887
     12 N         -24.7580   -1.4810   32.6460 N.3     1  UNL1       -0.2190
     13 C         -25.6880    1.6140   26.4610 C.2     1  UNL1        0.0515
     14 C         -26.2500    2.9200   26.3950 C.2     1  UNL1        0.0777
     15 C         -25.6420    4.0930   27.1230 C.2     1  UNL1        0.2665
     16 N         -25.6140    5.2520   26.4490 N.am    1  UNL1       -0.1997
     17 C         -25.0260    6.4790   26.9630 C.3     1  UNL1        0.1388
     18 O         -25.1430    3.9660   28.2430 O.2     1  UNL1       -0.2683
     19 C         -27.4380    3.0910   25.6450 C.2     1  UNL1        0.1068
     20 N         -28.0750    2.0890   25.0030 N.2     1  UNL1       -0.2081
     21 C         -27.5430    0.8490   25.0790 C.2     1  UNL1        0.2533
     22 O         -28.1930   -0.2080   24.4770 O.2     1  UNL1       -0.4558
     23 C         -29.4600    0.0050   23.8660 C.3     1  UNL1        0.2426
     24 C         -30.0650   -1.3770   23.5730 C.3     1  UNL1        0.2292
     25 O         -30.7290   -1.8780   24.7210 O.3     1  UNL1       -0.2162
     26 C         -26.3540    0.5760   25.7770 C.2     1  UNL1        0.1942
     27 F         -25.8600   -0.6810   25.7950 F       1  UNL1       -0.1992
     28 C         -26.8773    1.3585   29.4827 C.3     1  UNL1        0.1075
     29 C         -31.2046   -0.2010   30.9025 C.3     1  UNL1        0.0015
     30 C         -30.0978    2.1480   31.1331 C.3     1  UNL1        0.0187
     31 N         -23.4553    1.6636   26.9637 N.pl3   1  UNL1       -0.2628
     32 C         -22.9711    2.4497   25.8290 C.3     1  UNL1        0.1194
     33 N         -28.2869    1.0534   30.1764 N.3     1  UNL1       -0.2703
     34 C         -25.7849   -0.0877   29.1760 C.3     1  UNL1        0.1661
     35 C         -24.7048    0.5894   28.3995 C.2     1  UNL1        0.0240
     36 C         -28.6644    1.7996   31.2539 C.3     1  UNL1        0.0722
     37 C         -24.7265    1.3344   27.2070 C.2     1  UNL1        0.0543
     38 O         -26.8709   -0.8738   28.5440 O.3     1  UNL1       -0.2193
     39 F         -21.2161    1.4904   27.8554 F       1  UNL1       -0.1875
     40 C         -22.5847    1.1786   27.7994 C.2     1  UNL1        0.1956
     41 C         -29.4986    0.7922   29.4120 C.3     1  UNL1        0.0722
     42 C         -23.3848    0.5019   28.8161 C.2     1  UNL1        0.0448
     43 C         -30.6380    1.1053   30.2227 C.3     1  UNL1        0.0174
@<TRIPOS>BOND
     1     1    34    1
     2     2     7    1
     3     2     1    1
     4     3     2    2
     5     4     3    1
     6     4     5    2
     7     5     6    1
     8     6     7    2
     9     8     1    1
    10     8     9    1
    11     8    12    1
    12     9    10    1
    13    10    11    1
    14    12    11    1
    15    13    37    1
    16    14    13    1
    17    14    15    1
    18    15    18    2
    19    16    17    1
    20    16    15    1
    21    19    14    2
    22    20    21    2
    23    20    19    1
    24    21    26    1
    25    22    21    1
    26    23    22    1
    27    24    23    1
    28    24    25    1
    29    26    27    1
    30    26    13    2
    31    28    33    1
    32    30    36    1
    33    31    37    1
    34    31    40    1
    35    32    31    1
    36    33    36    1
    37    34    38    1
    38    34    28    1
    39    35    42    1
    40    35    34    1
    41    37    35    2
    42    40    39    1
    43    40    42    2
    44    41    33    1
    45    41    43    1
    46    43    29    1
    47    43    30    1
