@<TRIPOS>MOLECULE
outputs/IAG933/test6/raw/output_9487_IAG933_linker_design_.xyz
 46 51 0 0 0
SMALL
GASTEIGER

@<TRIPOS>ATOM
      1 C         -24.8550   -1.0120   30.1430 C.3     1  UNL1        0.0397
      2 C         -24.9730   -2.5050   29.7880 C.2     1  UNL1       -0.0211
      3 C         -23.9060   -3.1730   29.1460 C.2     1  UNL1       -0.0042
      4 C         -23.9890   -4.5490   28.8530 C.2     1  UNL1       -0.0003
      5 C         -25.1370   -5.2800   29.2050 C.2     1  UNL1       -0.0000
      6 C         -26.2320   -4.6110   29.7840 C.2     1  UNL1       -0.0003
      7 C         -26.1550   -3.2320   30.0650 C.2     1  UNL1       -0.0042
      8 C         -25.3870   -0.6790   31.5710 C.3     1  UNL1        0.0773
      9 C         -25.1890    0.7730   32.0280 C.3     1  UNL1        0.0277
     10 C         -25.3360    0.6840   33.5440 C.3     1  UNL1        0.0207
     11 C         -24.8290   -0.7150   33.9050 C.3     1  UNL1        0.0887
     12 N         -24.7580   -1.4810   32.6460 N.3     1  UNL1       -0.2191
     13 C         -25.6880    1.6140   26.4610 C.3     1  UNL1        0.0956
     14 C         -26.2500    2.9200   26.3950 C.2     1  UNL1        0.0567
     15 C         -25.6420    4.0930   27.1230 C.2     1  UNL1        0.2625
     16 N         -25.6140    5.2520   26.4490 N.am    1  UNL1       -0.2000
     17 C         -25.0260    6.4790   26.9630 C.3     1  UNL1        0.1388
     18 O         -25.1430    3.9660   28.2430 O.2     1  UNL1       -0.2687
     19 C         -27.4380    3.0910   25.6450 C.2     1  UNL1        0.1022
     20 N         -28.0750    2.0890   25.0030 N.2     1  UNL1       -0.2119
     21 C         -27.5430    0.8490   25.0790 C.2     1  UNL1        0.2341
     22 O         -28.1930   -0.2080   24.4770 O.2     1  UNL1       -0.4585
     23 C         -29.4600    0.0050   23.8660 C.3     1  UNL1        0.2423
     24 C         -30.0650   -1.3770   23.5730 C.3     1  UNL1        0.2292
     25 O         -30.7290   -1.8780   24.7210 O.3     1  UNL1       -0.2162
     26 C         -26.3540    0.5760   25.7770 C.3     1  UNL1        0.2419
     27 F         -25.8600   -0.6810   25.7950 F       1  UNL1       -0.2268
     28 N         -25.4966    3.7357   32.1942 N.am    1  UNL1       -0.2780
     29 C         -24.2960    1.3327   26.8792 C.3     1  UNL1        0.1650
     30 N         -24.2804    1.6765   28.2972 N.3     1  UNL1       -0.2653
     31 C         -24.8775    5.0953   32.2832 C.3     1  UNL1        0.1124
     32 C         -25.9632    3.0996   31.1102 C.2     1  UNL1        0.2266
     33 C         -25.5649   -0.2343   29.0286 C.3     1  UNL1        0.0222
     34 C         -24.7677    5.3869   33.7923 C.3     1  UNL1        0.1133
     35 C         -26.0660    4.7145   34.3411 C.3     1  UNL1        0.0423
     36 O         -21.8647    1.9261   26.2007 O.3     1  UNL1       -0.4475
     37 C         -23.0490    1.7864   29.0790 C.3     1  UNL1        0.0763
     38 O         -26.8721    3.6926   30.5248 O.2     1  UNL1       -0.2748
     39 C         -25.4049    1.2876   29.1904 C.3     1  UNL1        0.0669
     40 N         -24.7431    6.8084   34.1037 N.3     1  UNL1       -0.1310
     41 O         -23.6224    2.3940   24.8854 O.2     1  UNL1       -0.2486
     42 C         -21.2394    1.5604   27.4018 C.3     1  UNL1        0.2099
     43 C         -21.9579    0.9632   28.4257 C.3     1  UNL1        0.0647
     44 C         -26.3721    3.5784   33.3698 C.3     1  UNL1        0.0950
     45 C         -25.4218    1.7519   30.6875 C.3     1  UNL1        0.0927
     46 C         -23.2667    1.9570   25.9359 C.2     1  UNL1        0.3320
@<TRIPOS>BOND
     1     1     2    1
     2     1     8    1
     3     2     7    1
     4     3     2    2
     5     4     3    1
     6     4     5    2
     7     5     6    1
     8     6     7    2
     9     8     9    1
    10     8    12    1
    11     9    10    1
    12    10    11    1
    13    12    11    1
    14    13    14    1
    15    13    29    1
    16    14    15    1
    17    15    18    2
    18    16    17    1
    19    16    15    1
    20    19    14    2
    21    20    21    2
    22    20    19    1
    23    21    26    1
    24    22    21    1
    25    23    22    1
    26    24    23    1
    27    24    25    1
    28    26    27    1
    29    26    13    1
    30    28    31    1
    31    28    44    1
    32    29    46    1
    33    29    30    1
    34    30    37    1
    35    30    39    1
    36    31    34    1
    37    32    28   am
    38    33     1    1
    39    34    40    1
    40    34    35    1
    41    36    42    1
    42    38    32    2
    43    39    33    1
    44    39    45    1
    45    41    46    2
    46    42    43    1
    47    43    37    1
    48    44    35    1
    49    45    32    1
    50    45     9    1
    51    46    36    1
