@<TRIPOS>MOLECULE
outputs/IAG933/test6/raw/output_9490_IAG933_linker_design_.xyz
 42 45 0 0 0
SMALL
GASTEIGER

@<TRIPOS>ATOM
      1 C         -24.8550   -1.0120   30.1430 C.3     1  UNL1        0.0737
      2 C         -24.9730   -2.5050   29.7880 C.2     1  UNL1       -0.0181
      3 C         -23.9060   -3.1730   29.1460 C.2     1  UNL1       -0.0041
      4 C         -23.9890   -4.5490   28.8530 C.2     1  UNL1       -0.0003
      5 C         -25.1370   -5.2800   29.2050 C.2     1  UNL1       -0.0000
      6 C         -26.2320   -4.6110   29.7840 C.2     1  UNL1       -0.0003
      7 C         -26.1550   -3.2320   30.0650 C.2     1  UNL1       -0.0041
      8 C         -25.3870   -0.6790   31.5710 C.3     1  UNL1        0.0798
      9 C         -25.1890    0.7730   32.0280 C.3     1  UNL1        0.0193
     10 C         -25.3360    0.6840   33.5440 C.3     1  UNL1        0.0202
     11 C         -24.8290   -0.7150   33.9050 C.3     1  UNL1        0.0887
     12 N         -24.7580   -1.4810   32.6460 N.3     1  UNL1       -0.2190
     13 C         -25.6880    1.6140   26.4610 C.2     1  UNL1        0.0407
     14 C         -26.2500    2.9200   26.3950 C.2     1  UNL1        0.0747
     15 C         -25.6420    4.0930   27.1230 C.2     1  UNL1        0.2662
     16 N         -25.6140    5.2520   26.4490 N.am    1  UNL1       -0.1997
     17 C         -25.0260    6.4790   26.9630 C.3     1  UNL1        0.1388
     18 O         -25.1430    3.9660   28.2430 O.2     1  UNL1       -0.2683
     19 C         -27.4380    3.0910   25.6450 C.2     1  UNL1        0.1065
     20 N         -28.0750    2.0890   25.0030 N.2     1  UNL1       -0.2081
     21 C         -27.5430    0.8490   25.0790 C.2     1  UNL1        0.2530
     22 O         -28.1930   -0.2080   24.4770 O.2     1  UNL1       -0.4558
     23 C         -29.4600    0.0050   23.8660 C.3     1  UNL1        0.2426
     24 C         -30.0650   -1.3770   23.5730 C.3     1  UNL1        0.2292
     25 O         -30.7290   -1.8780   24.7210 O.3     1  UNL1       -0.2162
     26 C         -26.3540    0.5760   25.7770 C.2     1  UNL1        0.1912
     27 F         -25.8600   -0.6810   25.7950 F       1  UNL1       -0.1995
     28 C         -23.0885    0.2803   28.5215 C.3     1  UNL1        0.1931
     29 C         -27.9559    1.4159   29.1706 C.2     1  UNL1        0.2536
     30 C         -30.2058    4.3767   29.6260 C.3     1  UNL1        0.0697
     31 S         -28.4483    4.1736   29.6360 S.3     1  UNL1       -0.1296
     32 S         -23.1049    1.6306   26.3972 S.3     1  UNL1       -0.0868
     33 C         -25.6299   -0.0718   29.0977 C.3     1  UNL1        0.1619
     34 N         -26.5865    1.0976   29.3290 N.am    1  UNL1       -0.1893
     35 O         -28.6475    0.9220   28.3013 O.2     1  UNL1       -0.2723
     36 N         -24.4932    0.5534   28.3594 N.3     1  UNL1       -0.2282
     37 N         -22.1939   -0.5347   29.1645 N.3     1  UNL1       -0.1112
     38 C         -22.3539    0.9701   27.7960 C.3     1  UNL1        0.2224
     39 C         -28.5335    2.3994   30.1624 C.3     1  UNL1        0.1442
     40 N         -19.9657    0.8155   28.4647 N.3     1  UNL1        0.0427
     41 O         -20.9796    1.2597   27.7602 O.3     1  UNL1       -0.2373
     42 C         -24.6184    1.2023   27.2516 C.3     1  UNL1        0.1361
@<TRIPOS>BOND
     1     1    33    1
     2     2     7    1
     3     2     1    1
     4     3     2    2
     5     4     3    1
     6     4     5    2
     7     5     6    1
     8     6     7    2
     9     8     1    1
    10     8     9    1
    11     8    12    1
    12     9    10    1
    13    10    11    1
    14    12    11    1
    15    14    13    1
    16    14    15    1
    17    15    18    2
    18    16    17    1
    19    16    15    1
    20    19    14    2
    21    20    21    2
    22    20    19    1
    23    21    26    1
    24    22    21    1
    25    23    22    1
    26    24    23    1
    27    24    25    1
    28    26    27    1
    29    26    13    2
    30    28    37    1
    31    29    34    1
    32    29    39    1
    33    30    31    1
    34    31    39    1
    35    32    42    1
    36    32    38    1
    37    33    34    1
    38    35    29    2
    39    36    28    1
    40    36    33    1
    41    38    41    1
    42    38    28    1
    43    41    40    1
    44    42    13    1
    45    42    36    1
