@<TRIPOS>MOLECULE
outputs/IAG933/test6/raw/output_9503_IAG933_linker_design_.xyz
 41 44 0 0 0
SMALL
GASTEIGER

@<TRIPOS>ATOM
      1 C         -24.8550   -1.0120   30.1430 C.3     1  UNL1        0.0982
      2 C         -24.9730   -2.5050   29.7880 C.2     1  UNL1       -0.0064
      3 C         -23.9060   -3.1730   29.1460 C.2     1  UNL1       -0.0029
      4 C         -23.9890   -4.5490   28.8530 C.2     1  UNL1       -0.0003
      5 C         -25.1370   -5.2800   29.2050 C.2     1  UNL1       -0.0000
      6 C         -26.2320   -4.6110   29.7840 C.2     1  UNL1       -0.0003
      7 C         -26.1550   -3.2320   30.0650 C.2     1  UNL1       -0.0029
      8 C         -25.3870   -0.6790   31.5710 C.3     1  UNL1        0.0916
      9 C         -25.1890    0.7730   32.0280 C.3     1  UNL1        0.0206
     10 C         -25.3360    0.6840   33.5440 C.3     1  UNL1        0.0203
     11 C         -24.8290   -0.7150   33.9050 C.3     1  UNL1        0.0888
     12 N         -24.7580   -1.4810   32.6460 N.3     1  UNL1       -0.2178
     13 C         -25.6880    1.6140   26.4610 C.3     1  UNL1        0.1102
     14 C         -26.2500    2.9200   26.3950 C.2     1  UNL1        0.0583
     15 C         -25.6420    4.0930   27.1230 C.2     1  UNL1        0.2626
     16 N         -25.6140    5.2520   26.4490 N.am    1  UNL1       -0.2000
     17 C         -25.0260    6.4790   26.9630 C.3     1  UNL1        0.1388
     18 O         -25.1430    3.9660   28.2430 O.2     1  UNL1       -0.2687
     19 C         -27.4380    3.0910   25.6450 C.2     1  UNL1        0.1023
     20 N         -28.0750    2.0890   25.0030 N.2     1  UNL1       -0.2119
     21 C         -27.5430    0.8490   25.0790 C.2     1  UNL1        0.2342
     22 O         -28.1930   -0.2080   24.4770 O.2     1  UNL1       -0.4585
     23 C         -29.4600    0.0050   23.8660 C.3     1  UNL1        0.2423
     24 C         -30.0650   -1.3770   23.5730 C.3     1  UNL1        0.2292
     25 O         -30.7290   -1.8780   24.7210 O.3     1  UNL1       -0.2162
     26 C         -26.3540    0.5760   25.7770 C.3     1  UNL1        0.2435
     27 F         -25.8600   -0.6810   25.7950 F       1  UNL1       -0.2268
     28 C         -21.2266    1.3116   27.7965 C.2     1  UNL1        0.0848
     29 N         -25.3494   -0.0928   29.1091 N.3     1  UNL1       -0.2410
     30 C         -24.0892    0.9288   27.5910 C.3     1  UNL1        0.0967
     31 C         -22.2994    2.0578   25.4420 C.2     1  UNL1        0.2155
     32 F         -23.9701    1.8881   29.8330 F       1  UNL1       -0.2287
     33 C         -23.4417    1.2228   28.7144 C.3     1  UNL1        0.2272
     34 C         -24.3180    1.5623   26.4881 C.3     1  UNL1        0.1784
     35 C         -24.9602   -0.3063   27.8299 C.3     1  UNL1        0.0815
     36 O         -23.6498    2.0337   25.3992 O.2     1  UNL1       -0.4687
     37 C         -21.5756    1.8992   26.5308 C.1     1  UNL1       -0.0581
     38 O         -27.7490   -0.3689   28.7009 O.3     1  UNL1       -0.2005
     39 O         -21.8650    0.1097   29.7839 O.2     1  UNL1       -0.2878
     40 C         -22.0688    0.9240   28.8340 C.2     1  UNL1        0.2132
     41 C         -26.6907    0.4255   29.2751 C.3     1  UNL1        0.2592
@<TRIPOS>BOND
     1     1    29    1
     2     2     7    1
     3     2     1    1
     4     3     2    2
     5     4     3    1
     6     4     5    2
     7     5     6    1
     8     6     7    2
     9     8     1    1
    10     8     9    1
    11     8    12    1
    12     9    10    1
    13    10    11    1
    14    12    11    1
    15    13    14    1
    16    13    34    1
    17    14    15    1
    18    15    18    2
    19    16    17    1
    20    16    15    1
    21    19    14    2
    22    20    21    2
    23    20    19    1
    24    21    26    1
    25    22    21    1
    26    23    22    1
    27    24    23    1
    28    24    25    1
    29    26    27    1
    30    26    13    1
    31    28    40    1
    32    29    41    1
    33    30    35    1
    34    30    33    1
    35    31    37    2
    36    33    40    1
    37    33    32    1
    38    34    36    1
    39    34    30    1
    40    35    29    1
    41    36    31    1
    42    37    28    2
    43    38    41    1
    44    40    39    2
