@<TRIPOS>MOLECULE
outputs/IAG933/test6/raw/output_9504_IAG933_linker_design_.xyz
 46 50 0 0 0
SMALL
GASTEIGER

@<TRIPOS>ATOM
      1 C         -24.8550   -1.0120   30.1430 C.3     1  UNL1        0.0454
      2 C         -24.9730   -2.5050   29.7880 C.2     1  UNL1       -0.0207
      3 C         -23.9060   -3.1730   29.1460 C.2     1  UNL1       -0.0042
      4 C         -23.9890   -4.5490   28.8530 C.2     1  UNL1       -0.0003
      5 C         -25.1370   -5.2800   29.2050 C.2     1  UNL1       -0.0000
      6 C         -26.2320   -4.6110   29.7840 C.2     1  UNL1       -0.0003
      7 C         -26.1550   -3.2320   30.0650 C.2     1  UNL1       -0.0042
      8 C         -25.3870   -0.6790   31.5710 C.3     1  UNL1        0.0956
      9 C         -25.1890    0.7730   32.0280 C.3     1  UNL1        0.0981
     10 C         -25.3360    0.6840   33.5440 C.3     1  UNL1        0.0404
     11 C         -24.8290   -0.7150   33.9050 C.3     1  UNL1        0.0905
     12 N         -24.7580   -1.4810   32.6460 N.3     1  UNL1       -0.2174
     13 C         -25.6880    1.6140   26.4610 C.3     1  UNL1        0.0959
     14 C         -26.2500    2.9200   26.3950 C.2     1  UNL1        0.0590
     15 C         -25.6420    4.0930   27.1230 C.2     1  UNL1        0.2628
     16 N         -25.6140    5.2520   26.4490 N.am    1  UNL1       -0.2000
     17 C         -25.0260    6.4790   26.9630 C.3     1  UNL1        0.1388
     18 O         -25.1430    3.9660   28.2430 O.2     1  UNL1       -0.2686
     19 C         -27.4380    3.0910   25.6450 C.2     1  UNL1        0.1025
     20 N         -28.0750    2.0890   25.0030 N.2     1  UNL1       -0.2118
     21 C         -27.5430    0.8490   25.0790 C.2     1  UNL1        0.2344
     22 O         -28.1930   -0.2080   24.4770 O.2     1  UNL1       -0.4585
     23 C         -29.4600    0.0050   23.8660 C.3     1  UNL1        0.2423
     24 C         -30.0650   -1.3770   23.5730 C.3     1  UNL1        0.2292
     25 O         -30.7290   -1.8780   24.7210 O.3     1  UNL1       -0.2162
     26 C         -26.3540    0.5760   25.7770 C.3     1  UNL1        0.2441
     27 F         -25.8600   -0.6810   25.7950 F       1  UNL1       -0.2265
     28 C         -23.5653    1.8583   29.0289 C.1     1  UNL1       -0.0831
     29 BR        -21.3346    6.3274   34.3468 Br      1  UNL1       -0.0490
     30 C         -23.3838    1.7560   27.6799 C.2     1  UNL1        0.0870
     31 C         -22.1371    1.7916   27.0270 C.3     1  UNL1        0.3582
     32 C         -25.0609    7.6992   33.8546 C.2     1  UNL1        0.0002
     33 N         -24.8864    2.0005   31.2039 N.am    1  UNL1       -0.2510
     34 C         -23.0670    6.2845   33.6884 C.2     1  UNL1        0.0343
     35 C         -23.7814    5.3054   32.9050 C.2     1  UNL1        0.0029
     36 C         -25.7613    3.1780   31.5115 C.2     1  UNL1        0.2342
     37 C         -23.7631    1.9703   30.3613 C.2     1  UNL1        0.1102
     38 O         -26.6632    2.9564   32.2325 O.2     1  UNL1       -0.2742
     39 O         -22.2505    1.9239   25.6687 O.2     1  UNL1       -0.4428
     40 C         -24.3095    1.6386   26.5488 C.2     1  UNL1        0.0313
     41 C         -23.5689    1.7765   25.3419 C.2     1  UNL1        0.1722
     42 C         -23.7206    7.4265   34.0805 C.2     1  UNL1        0.0067
     43 C         -25.0711    5.6239   32.4595 C.2     1  UNL1       -0.0126
     44 F         -20.9291    1.7499   27.5833 F       1  UNL1       -0.1826
     45 C         -25.5915    4.7507   31.2363 C.3     1  UNL1        0.1119
     46 C         -25.7447    6.7739   33.0764 C.2     1  UNL1       -0.0038
@<TRIPOS>BOND
     1     2     7    1
     2     2     1    1
     3     3     2    2
     4     4     3    1
     5     4     5    2
     6     5     6    1
     7     6     7    2
     8     8     1    1
     9     8     9    1
    10     8    12    1
    11     9    33    1
    12     9    10    1
    13    10    11    1
    14    12    11    1
    15    13    40    1
    16    14    13    1
    17    14    15    1
    18    15    18    2
    19    16    17    1
    20    16    15    1
    21    19    14    2
    22    20    21    2
    23    20    19    1
    24    21    26    1
    25    22    21    1
    26    23    22    1
    27    24    23    1
    28    24    25    1
    29    26    27    1
    30    26    13    1
    31    28    37    2
    32    30    28    2
    33    31    44    1
    34    31    30    1
    35    32    42    1
    36    33    36   am
    37    34    42    2
    38    34    29    1
    39    35    34    1
    40    36    38    2
    41    37    33    1
    42    39    31    1
    43    40    30    1
    44    41    39    1
    45    41    40    2
    46    43    35    2
    47    43    46    1
    48    45    36    1
    49    45    43    1
    50    46    32    2
