@<TRIPOS>MOLECULE
outputs/IAG933/test6/raw/output_9505_IAG933_linker_design_.xyz
 48 52 0 0 0
SMALL
GASTEIGER

@<TRIPOS>ATOM
      1 C         -24.8550   -1.0120   30.1430 C.3     1  UNL1        0.0697
      2 C         -24.9730   -2.5050   29.7880 C.2     1  UNL1       -0.0184
      3 C         -23.9060   -3.1730   29.1460 C.2     1  UNL1       -0.0041
      4 C         -23.9890   -4.5490   28.8530 C.2     1  UNL1       -0.0003
      5 C         -25.1370   -5.2800   29.2050 C.2     1  UNL1       -0.0000
      6 C         -26.2320   -4.6110   29.7840 C.2     1  UNL1       -0.0003
      7 C         -26.1550   -3.2320   30.0650 C.2     1  UNL1       -0.0041
      8 C         -25.3870   -0.6790   31.5710 C.3     1  UNL1        0.0795
      9 C         -25.1890    0.7730   32.0280 C.3     1  UNL1        0.0193
     10 C         -25.3360    0.6840   33.5440 C.3     1  UNL1        0.0202
     11 C         -24.8290   -0.7150   33.9050 C.3     1  UNL1        0.0887
     12 N         -24.7580   -1.4810   32.6460 N.3     1  UNL1       -0.2190
     13 C         -25.6880    1.6140   26.4610 C.2     1  UNL1        0.0373
     14 C         -26.2500    2.9200   26.3950 C.2     1  UNL1        0.0765
     15 C         -25.6420    4.0930   27.1230 C.2     1  UNL1        0.2664
     16 N         -25.6140    5.2520   26.4490 N.am    1  UNL1       -0.1997
     17 C         -25.0260    6.4790   26.9630 C.3     1  UNL1        0.1388
     18 O         -25.1430    3.9660   28.2430 O.2     1  UNL1       -0.2683
     19 C         -27.4380    3.0910   25.6450 C.2     1  UNL1        0.1067
     20 N         -28.0750    2.0890   25.0030 N.2     1  UNL1       -0.2081
     21 C         -27.5430    0.8490   25.0790 C.2     1  UNL1        0.2533
     22 O         -28.1930   -0.2080   24.4770 O.2     1  UNL1       -0.4558
     23 C         -29.4600    0.0050   23.8660 C.3     1  UNL1        0.2426
     24 C         -30.0650   -1.3770   23.5730 C.3     1  UNL1        0.2292
     25 O         -30.7290   -1.8780   24.7210 O.3     1  UNL1       -0.2162
     26 C         -26.3540    0.5760   25.7770 C.2     1  UNL1        0.1930
     27 F         -25.8600   -0.6810   25.7950 F       1  UNL1       -0.1992
     28 C         -27.6750    0.7548   28.8246 C.3     1  UNL1        0.1745
     29 C         -32.2075   -1.3880   30.5691 C.3     1  UNL1        0.1184
     30 O         -26.5354   -0.2331   28.5727 O.3     1  UNL1       -0.3488
     31 C         -23.1577    1.6528   26.8541 C.2     1  UNL1       -0.0079
     32 O         -29.7254   -0.5903   28.2089 O.3     1  UNL1       -0.3484
     33 O         -30.9665    0.5005   29.8178 O.3     1  UNL1       -0.3509
     34 C         -24.4660    1.2767   27.2073 C.2     1  UNL1       -0.0045
     35 C         -24.3280    0.5542   28.4354 C.2     1  UNL1        0.0031
     36 C         -22.7224    2.2736   25.6679 C.3     1  UNL1        0.0294
     37 C         -22.2509    1.1910   27.8709 C.3     1  UNL1        0.2012
     38 F         -33.1306    0.3866   31.7983 F       1  UNL1       -0.1840
     39 C         -25.3778    0.0544   29.2147 C.3     1  UNL1        0.1426
     40 C         -30.7491    0.5064   28.3936 C.3     1  UNL1        0.1742
     41 C         -29.7123    0.1720   30.4048 C.3     1  UNL1        0.1718
     42 C         -22.9827    0.4366   28.8127 C.2     1  UNL1        0.0107
     43 C         -33.3417   -0.4793   30.9207 C.3     1  UNL1        0.3434
     44 N         -34.2502   -1.2777   31.4436 N.3     1  UNL1       -0.0665
     45 C         -28.7707   -0.2730   29.2297 C.3     1  UNL1        0.1741
     46 F         -33.6568    0.2043   29.8674 F       1  UNL1       -0.1840
     47 F         -20.9535    1.5070   27.8610 F       1  UNL1       -0.2279
     48 C         -30.9315   -0.5046   30.7094 C.3     1  UNL1        0.1519
@<TRIPOS>BOND
     1     1    39    1
     2     2     7    1
     3     2     1    1
     4     3     2    2
     5     4     3    1
     6     4     5    2
     7     5     6    1
     8     6     7    2
     9     8     1    1
    10     8     9    1
    11     8    12    1
    12     9    10    1
    13    10    11    1
    14    12    11    1
    15    13    34    1
    16    14    13    1
    17    14    15    1
    18    15    18    2
    19    16    17    1
    20    16    15    1
    21    19    14    2
    22    20    21    2
    23    20    19    1
    24    21    26    1
    25    22    21    1
    26    23    22    1
    27    24    23    1
    28    24    25    1
    29    26    27    1
    30    26    13    2
    31    29    43    1
    32    30    28    1
    33    31    34    2
    34    31    37    1
    35    32    40    1
    36    32    45    1
    37    33    41    1
    38    33    48    1
    39    34    35    1
    40    35    42    2
    41    35    39    1
    42    36    31    1
    43    37    47    1
    44    37    42    1
    45    39    30    1
    46    41    45    1
    47    41    48    1
    48    43    44    1
    49    43    38    1
    50    45    28    1
    51    46    43    1
    52    48    29    1
