@<TRIPOS>MOLECULE
outputs/IAG933/test6/raw/output_9506_IAG933_linker_design_.xyz
 48 51 0 0 0
SMALL
GASTEIGER

@<TRIPOS>ATOM
      1 C         -24.8550   -1.0120   30.1430 C.3     1  UNL1        0.2062
      2 C         -24.9730   -2.5050   29.7880 C.2     1  UNL1        0.0218
      3 C         -23.9060   -3.1730   29.1460 C.2     1  UNL1       -0.0004
      4 C         -23.9890   -4.5490   28.8530 C.2     1  UNL1       -0.0002
      5 C         -25.1370   -5.2800   29.2050 C.2     1  UNL1       -0.0000
      6 C         -26.2320   -4.6110   29.7840 C.2     1  UNL1       -0.0002
      7 C         -26.1550   -3.2320   30.0650 C.2     1  UNL1       -0.0004
      8 C         -25.3870   -0.6790   31.5710 C.3     1  UNL1        0.1202
      9 C         -25.1890    0.7730   32.0280 C.3     1  UNL1        0.0233
     10 C         -25.3360    0.6840   33.5440 C.3     1  UNL1        0.0204
     11 C         -24.8290   -0.7150   33.9050 C.3     1  UNL1        0.0889
     12 N         -24.7580   -1.4810   32.6460 N.3     1  UNL1       -0.2150
     13 C         -25.6880    1.6140   26.4610 C.2     1  UNL1        0.0452
     14 C         -26.2500    2.9200   26.3950 C.2     1  UNL1        0.0768
     15 C         -25.6420    4.0930   27.1230 C.2     1  UNL1        0.2664
     16 N         -25.6140    5.2520   26.4490 N.am    1  UNL1       -0.1997
     17 C         -25.0260    6.4790   26.9630 C.3     1  UNL1        0.1388
     18 O         -25.1430    3.9660   28.2430 O.2     1  UNL1       -0.2683
     19 C         -27.4380    3.0910   25.6450 C.2     1  UNL1        0.1067
     20 N         -28.0750    2.0890   25.0030 N.2     1  UNL1       -0.2081
     21 C         -27.5430    0.8490   25.0790 C.2     1  UNL1        0.2533
     22 O         -28.1930   -0.2080   24.4770 O.2     1  UNL1       -0.4558
     23 C         -29.4600    0.0050   23.8660 C.3     1  UNL1        0.2426
     24 C         -30.0650   -1.3770   23.5730 C.3     1  UNL1        0.2292
     25 O         -30.7290   -1.8780   24.7210 O.3     1  UNL1       -0.2162
     26 C         -26.3540    0.5760   25.7770 C.2     1  UNL1        0.1933
     27 F         -25.8600   -0.6810   25.7950 F       1  UNL1       -0.1992
     28 C         -27.5256   -0.6102   28.5936 C.2     1  UNL1        0.0931
     29 N         -25.3068   -0.0236   29.2287 N.am    1  UNL1       -0.1357
     30 C         -28.8882   -0.0837   28.6948 C.2     1  UNL1        0.0481
     31 C         -23.2195    1.8436   26.9230 C.2     1  UNL1        0.0424
     32 C         -24.4664    0.8382   28.7968 C.2     1  UNL1        0.3377
     33 C         -26.6861    4.7814   31.7569 C.3     1  UNL1        0.2066
     34 O         -27.1535    4.0272   30.5700 O.3     1  UNL1       -0.3370
     35 C         -26.5692    0.3392   29.1856 C.2     1  UNL1        0.3307
     36 C         -26.1593    4.1265   33.0089 C.2     1  UNL1        0.1808
     37 CL        -21.5513    1.8424   27.7228 Cl      1  UNL1       -0.0867
     38 C         -28.0646    1.9779   29.9224 C.2     1  UNL1        0.2339
     39 C         -29.1261    1.1764   29.3055 C.2     1  UNL1        0.1799
     40 C         -24.8636    4.6591   33.5931 C.3     1  UNL1        0.0750
     41 O         -23.6069    1.3029   29.6142 O.2     1  UNL1       -0.2416
     42 C         -30.3172    2.0737   27.9094 C.3     1  UNL1        0.2526
     43 C         -24.5697    1.3419   27.3828 C.2     1  UNL1        0.0874
     44 N         -26.8131    1.5218   29.6724 N.2     1  UNL1       -0.0384
     45 O         -30.2389    1.8301   29.2294 O.2     1  UNL1       -0.4679
     46 C         -28.2924    3.2121   30.7617 C.3     1  UNL1        0.2192
     47 C         -23.0375    2.2812   25.4886 C.3     1  UNL1        0.0438
     48 O         -26.8227    3.3785   33.7389 O.2     1  UNL1       -0.2934
@<TRIPOS>BOND
     1     1    29    1
     2     2     7    1
     3     2     1    1
     4     3     2    2
     5     4     3    1
     6     4     5    2
     7     5     6    1
     8     6     7    2
     9     8     1    1
    10     8     9    1
    11     8    12    1
    12     9    10    1
    13    10    11    1
    14    12    11    1
    15    13    43    1
    16    14    13    1
    17    14    15    1
    18    15    18    2
    19    16    17    1
    20    16    15    1
    21    19    14    2
    22    20    21    2
    23    20    19    1
    24    21    26    1
    25    22    21    1
    26    23    22    1
    27    24    23    1
    28    24    25    1
    29    26    27    1
    30    26    13    2
    31    28    30    2
    32    28    35    1
    33    30    39    1
    34    31    43    2
    35    31    37    1
    36    32    29   am
    37    32    41    2
    38    33    36    1
    39    34    46    1
    40    34    33    1
    41    35    29    1
    42    35    44    2
    43    36    40    1
    44    36    48    2
    45    38    46    1
    46    39    38    2
    47    42    45    1
    48    43    32    1
    49    44    38    1
    50    45    39    1
    51    47    31    1
