@<TRIPOS>MOLECULE
outputs/IAG933/test6/raw/output_9517_IAG933_linker_design_.xyz
 44 48 0 0 0
SMALL
GASTEIGER

@<TRIPOS>ATOM
      1 C         -24.8550   -1.0120   30.1430 C.3     1  UNL1        0.0582
      2 C         -24.9730   -2.5050   29.7880 C.2     1  UNL1       -0.0197
      3 C         -23.9060   -3.1730   29.1460 C.2     1  UNL1       -0.0042
      4 C         -23.9890   -4.5490   28.8530 C.2     1  UNL1       -0.0003
      5 C         -25.1370   -5.2800   29.2050 C.2     1  UNL1       -0.0000
      6 C         -26.2320   -4.6110   29.7840 C.2     1  UNL1       -0.0003
      7 C         -26.1550   -3.2320   30.0650 C.2     1  UNL1       -0.0042
      8 C         -25.3870   -0.6790   31.5710 C.3     1  UNL1        0.0783
      9 C         -25.1890    0.7730   32.0280 C.3     1  UNL1        0.0192
     10 C         -25.3360    0.6840   33.5440 C.3     1  UNL1        0.0202
     11 C         -24.8290   -0.7150   33.9050 C.3     1  UNL1        0.0887
     12 N         -24.7580   -1.4810   32.6460 N.3     1  UNL1       -0.2191
     13 C         -25.6880    1.6140   26.4610 C.3     1  UNL1        0.0926
     14 C         -26.2500    2.9200   26.3950 C.2     1  UNL1        0.0566
     15 C         -25.6420    4.0930   27.1230 C.2     1  UNL1        0.2625
     16 N         -25.6140    5.2520   26.4490 N.am    1  UNL1       -0.2000
     17 C         -25.0260    6.4790   26.9630 C.3     1  UNL1        0.1388
     18 O         -25.1430    3.9660   28.2430 O.2     1  UNL1       -0.2687
     19 C         -27.4380    3.0910   25.6450 C.2     1  UNL1        0.1022
     20 N         -28.0750    2.0890   25.0030 N.2     1  UNL1       -0.2119
     21 C         -27.5430    0.8490   25.0790 C.2     1  UNL1        0.2341
     22 O         -28.1930   -0.2080   24.4770 O.2     1  UNL1       -0.4585
     23 C         -29.4600    0.0050   23.8660 C.3     1  UNL1        0.2423
     24 C         -30.0650   -1.3770   23.5730 C.3     1  UNL1        0.2292
     25 O         -30.7290   -1.8780   24.7210 O.3     1  UNL1       -0.2162
     26 C         -26.3540    0.5760   25.7770 C.3     1  UNL1        0.2417
     27 F         -25.8600   -0.6810   25.7950 F       1  UNL1       -0.2268
     28 N         -26.0999    2.1597   29.5337 N.pl3   1  UNL1        0.0609
     29 C         -20.7706   -0.3108   28.7404 C.3     1  UNL1        0.0621
     30 F         -23.2867    1.2078   24.6285 F       1  UNL1       -0.1962
     31 C         -22.5153    0.7688   28.2239 C.2     1  UNL1        0.0717
     32 C         -22.7323    1.3887   25.8668 C.3     1  UNL1        0.3305
     33 C         -21.6874   -0.6632   29.6291 C.3     1  UNL1        0.1149
     34 C         -21.1908    0.8524   28.0323 C.3     1  UNL1        0.1903
     35 C         -27.3586    2.0291   30.1395 C.2     1  UNL1        0.4106
     36 N         -28.0674    0.9529   30.2295 N.2     1  UNL1        0.1938
     37 N         -22.5966    0.3311   29.5133 N.pl3   1  UNL1       -0.2397
     38 O         -21.4677    1.7219   25.8606 O.3     1  UNL1       -0.1819
     39 C         -28.0156    3.2859   30.6917 C.3     1  UNL1        0.1410
     40 C         -25.4767   -0.1074   29.1068 C.3     1  UNL1        0.1254
     41 C         -24.6647    1.2710   27.4747 C.3     1  UNL1        0.1327
     42 O         -20.6432    1.5948   26.9909 O.3     1  UNL1       -0.2143
     43 N         -25.0736    1.3366   28.8121 N.3     1  UNL1       -0.0873
     44 C         -23.3553    1.1365   27.1295 C.2     1  UNL1        0.0508
@<TRIPOS>BOND
     1     1    40    1
     2     2     7    1
     3     2     1    1
     4     3     2    2
     5     4     3    1
     6     4     5    2
     7     5     6    1
     8     6     7    2
     9     8     1    1
    10     8     9    1
    11     8    12    1
    12     9    10    1
    13    10    11    1
    14    12    11    1
    15    13    41    1
    16    14    13    1
    17    14    15    1
    18    15    18    2
    19    16    17    1
    20    16    15    1
    21    19    14    2
    22    20    21    2
    23    20    19    1
    24    21    26    1
    25    22    21    1
    26    23    22    1
    27    24    23    1
    28    24    25    1
    29    26    27    1
    30    26    13    1
    31    28    35    1
    32    29    33    1
    33    31    37    1
    34    32    30    1
    35    32    44    1
    36    34    31    1
    37    34    29    1
    38    35    36    2
    39    35    39    1
    40    37    33    1
    41    38    32    1
    42    38    42    1
    43    41    43    1
    44    42    34    1
    45    43    40    1
    46    43    28    1
    47    44    41    1
    48    44    31    2
