@<TRIPOS>MOLECULE
outputs/IAG933/test6/raw/output_9518_IAG933_linker_design_.xyz
 39 44 0 0 0
SMALL
GASTEIGER

@<TRIPOS>ATOM
      1 C         -24.8550   -1.0120   30.1430 C.3     1  UNL1        0.1178
      2 C         -24.9730   -2.5050   29.7880 C.2     1  UNL1       -0.0026
      3 C         -23.9060   -3.1730   29.1460 C.2     1  UNL1       -0.0026
      4 C         -23.9890   -4.5490   28.8530 C.2     1  UNL1       -0.0003
      5 C         -25.1370   -5.2800   29.2050 C.2     1  UNL1       -0.0000
      6 C         -26.2320   -4.6110   29.7840 C.2     1  UNL1       -0.0003
      7 C         -26.1550   -3.2320   30.0650 C.2     1  UNL1       -0.0026
      8 C         -25.3870   -0.6790   31.5710 C.3     1  UNL1        0.0954
      9 C         -25.1890    0.7730   32.0280 C.3     1  UNL1        0.0209
     10 C         -25.3360    0.6840   33.5440 C.3     1  UNL1        0.0203
     11 C         -24.8290   -0.7150   33.9050 C.3     1  UNL1        0.0888
     12 N         -24.7580   -1.4810   32.6460 N.3     1  UNL1       -0.2174
     13 C         -25.6880    1.6140   26.4610 C.2     1  UNL1        0.0313
     14 C         -26.2500    2.9200   26.3950 C.2     1  UNL1        0.0734
     15 C         -25.6420    4.0930   27.1230 C.2     1  UNL1        0.2661
     16 N         -25.6140    5.2520   26.4490 N.am    1  UNL1       -0.1997
     17 C         -25.0260    6.4790   26.9630 C.3     1  UNL1        0.1388
     18 O         -25.1430    3.9660   28.2430 O.2     1  UNL1       -0.2683
     19 C         -27.4380    3.0910   25.6450 C.2     1  UNL1        0.1064
     20 N         -28.0750    2.0890   25.0030 N.2     1  UNL1       -0.2081
     21 C         -27.5430    0.8490   25.0790 C.2     1  UNL1        0.2530
     22 O         -28.1930   -0.2080   24.4770 O.2     1  UNL1       -0.4558
     23 C         -29.4600    0.0050   23.8660 C.3     1  UNL1        0.2426
     24 C         -30.0650   -1.3770   23.5730 C.3     1  UNL1        0.2292
     25 O         -30.7290   -1.8780   24.7210 O.3     1  UNL1       -0.2162
     26 C         -26.3540    0.5760   25.7770 C.2     1  UNL1        0.1900
     27 F         -25.8600   -0.6810   25.7950 F       1  UNL1       -0.1996
     28 C         -21.6855    1.2650   27.6152 C.2     1  UNL1        0.2577
     29 C         -21.8803   -0.2806   29.3147 C.2     1  UNL1        0.0999
     30 C         -24.4036    1.3370   27.1476 C.3     1  UNL1        0.1610
     31 O         -26.5545    0.3254   28.3335 O.2     1  UNL1       -0.2737
     32 C         -25.1997    0.5460   28.3674 C.2     1  UNL1        0.2403
     33 O         -21.1549    1.9567   26.6424 O.2     1  UNL1       -0.2721
     34 C         -23.6115    2.0800   26.2462 C.2     1  UNL1        0.1769
     35 N         -24.4266    0.0298   29.1672 N.am    1  UNL1       -0.2559
     36 C         -23.0293    1.0831   27.7390 C.3     1  UNL1        0.1725
     37 C         -23.1734    0.1780   28.9556 C.2     1  UNL1        0.0635
     38 N         -20.9618    0.4380   28.4951 N.am    1  UNL1       -0.1762
     39 O         -23.6508    2.7989   25.4459 O.2     1  UNL1       -0.2943
@<TRIPOS>BOND
     1     1     2    1
     2     2     7    1
     3     3     2    2
     4     4     3    1
     5     4     5    2
     6     5     6    1
     7     6     7    2
     8     8     1    1
     9     8     9    1
    10     8    12    1
    11     9    10    1
    12    10    11    1
    13    12    11    1
    14    14    13    1
    15    14    15    1
    16    15    18    2
    17    16    17    1
    18    16    15    1
    19    19    14    2
    20    20    21    2
    21    20    19    1
    22    21    26    1
    23    22    21    1
    24    23    22    1
    25    24    23    1
    26    24    25    1
    27    26    27    1
    28    26    13    2
    29    28    36    1
    30    28    38    1
    31    30    13    1
    32    30    36    1
    33    30    32    1
    34    31    32    2
    35    32    35   am
    36    33    28    2
    37    34    30    1
    38    35     1    1
    39    36    34    1
    40    36    37    1
    41    37    35    1
    42    37    29    2
    43    38    29    1
    44    39    34    2
