@<TRIPOS>MOLECULE
outputs/IAG933/test6/raw/output_9533_IAG933_linker_design_.xyz
 44 46 0 0 0
SMALL
GASTEIGER

@<TRIPOS>ATOM
      1 C         -24.8550   -1.0120   30.1430 C.3     1  UNL1        0.0507
      2 C         -24.9730   -2.5050   29.7880 C.2     1  UNL1       -0.0204
      3 C         -23.9060   -3.1730   29.1460 C.2     1  UNL1       -0.0042
      4 C         -23.9890   -4.5490   28.8530 C.2     1  UNL1       -0.0003
      5 C         -25.1370   -5.2800   29.2050 C.2     1  UNL1       -0.0000
      6 C         -26.2320   -4.6110   29.7840 C.2     1  UNL1       -0.0003
      7 C         -26.1550   -3.2320   30.0650 C.2     1  UNL1       -0.0042
      8 C         -25.3870   -0.6790   31.5710 C.3     1  UNL1        0.0776
      9 C         -25.1890    0.7730   32.0280 C.3     1  UNL1        0.0192
     10 C         -25.3360    0.6840   33.5440 C.3     1  UNL1        0.0202
     11 C         -24.8290   -0.7150   33.9050 C.3     1  UNL1        0.0887
     12 N         -24.7580   -1.4810   32.6460 N.3     1  UNL1       -0.2191
     13 C         -25.6880    1.6140   26.4610 C.2     1  UNL1        0.0206
     14 C         -26.2500    2.9200   26.3950 C.2     1  UNL1        0.0562
     15 C         -25.6420    4.0930   27.1230 C.2     1  UNL1        0.2625
     16 N         -25.6140    5.2520   26.4490 N.am    1  UNL1       -0.2000
     17 C         -25.0260    6.4790   26.9630 C.3     1  UNL1        0.1388
     18 O         -25.1430    3.9660   28.2430 O.2     1  UNL1       -0.2687
     19 C         -27.4380    3.0910   25.6450 C.3     1  UNL1        0.1591
     20 N         -28.0750    2.0890   25.0030 N.2     1  UNL1       -0.2341
     21 C         -27.5430    0.8490   25.0790 C.2     1  UNL1        0.2341
     22 O         -28.1930   -0.2080   24.4770 O.2     1  UNL1       -0.4585
     23 C         -29.4600    0.0050   23.8660 C.3     1  UNL1        0.2423
     24 C         -30.0650   -1.3770   23.5730 C.3     1  UNL1        0.2292
     25 O         -30.7290   -1.8780   24.7210 O.3     1  UNL1       -0.2162
     26 C         -26.3540    0.5760   25.7770 C.3     1  UNL1        0.2577
     27 F         -25.8600   -0.6810   25.7950 F       1  UNL1       -0.2223
     28 C         -26.6897    0.5815   29.2584 C.2     1  UNL1        0.2450
     29 C         -27.9765    3.8248   29.9647 C.3     1  UNL1        0.0368
     30 O         -22.4908    2.0047   26.4800 O.3     1  UNL1       -0.3239
     31 C         -23.0851    1.1132   28.6571 C.3     1  UNL1        0.0894
     32 C         -28.1902    2.3546   29.6113 C.3     1  UNL1        0.1158
     33 C         -27.9429    4.0792   31.4822 C.3     1  UNL1        0.1353
     34 N         -26.8283    1.8691   29.5476 N.am    1  UNL1       -0.2051
     35 N         -28.9927    5.5651   33.1773 N.pl3   1  UNL1        0.1994
     36 C         -22.2062    1.5233   27.6608 C.3     1  UNL1        0.2825
     37 C         -24.3947    0.8460   28.3728 C.2     1  UNL1       -0.0305
     38 O         -27.6461   -0.1845   29.1835 O.2     1  UNL1       -0.2730
     39 C         -29.0278    4.9062   31.9368 C.2     1  UNL1        0.4538
     40 C         -24.8363    1.4175   27.2955 C.2     1  UNL1       -0.0091
     41 C         -23.0166    1.4078   25.2942 C.3     1  UNL1        0.1771
     42 C         -25.2958    0.0398   29.1329 C.3     1  UNL1        0.1019
     43 F         -20.9366    1.4935   27.8285 F       1  UNL1       -0.2037
     44 N         -30.0754    5.0508   31.1523 N.pl3   1  UNL1        0.1994
@<TRIPOS>BOND
     1     1    42    1
     2     2     7    1
     3     2     1    1
     4     3     2    2
     5     4     3    1
     6     4     5    2
     7     5     6    1
     8     6     7    2
     9     8     1    1
    10     8     9    1
    11     8    12    1
    12     9    10    1
    13    10    11    1
    14    12    11    1
    15    13    40    1
    16    14    13    2
    17    14    15    1
    18    15    18    2
    19    16    17    1
    20    16    15    1
    21    19    14    1
    22    20    21    2
    23    20    19    1
    24    21    26    1
    25    22    21    1
    26    23    22    1
    27    24    23    1
    28    24    25    1
    29    26    27    1
    30    26    13    1
    31    28    34    1
    32    29    33    1
    33    30    36    1
    34    32    29    1
    35    33    39    1
    36    34    32    1
    37    36    43    1
    38    36    31    1
    39    37    31    1
    40    38    28    2
    41    39    35    1
    42    40    37    2
    43    41    30    1
    44    42    37    1
    45    42    28    1
    46    44    39    2
