@<TRIPOS>MOLECULE
outputs/IAG933/test6/raw/output_9536_IAG933_linker_design_.xyz
 41 45 0 0 0
SMALL
GASTEIGER

@<TRIPOS>ATOM
      1 C         -24.8550   -1.0120   30.1430 C.3     1  UNL1        0.0581
      2 C         -24.9730   -2.5050   29.7880 C.2     1  UNL1       -0.0195
      3 C         -23.9060   -3.1730   29.1460 C.2     1  UNL1       -0.0042
      4 C         -23.9890   -4.5490   28.8530 C.2     1  UNL1       -0.0003
      5 C         -25.1370   -5.2800   29.2050 C.2     1  UNL1       -0.0000
      6 C         -26.2320   -4.6110   29.7840 C.2     1  UNL1       -0.0003
      7 C         -26.1550   -3.2320   30.0650 C.2     1  UNL1       -0.0042
      8 C         -25.3870   -0.6790   31.5710 C.3     1  UNL1        0.0805
      9 C         -25.1890    0.7730   32.0280 C.3     1  UNL1        0.0450
     10 C         -25.3360    0.6840   33.5440 C.3     1  UNL1        0.0224
     11 C         -24.8290   -0.7150   33.9050 C.3     1  UNL1        0.0888
     12 N         -24.7580   -1.4810   32.6460 N.3     1  UNL1       -0.2190
     13 C         -25.6880    1.6140   26.4610 C.2     1  UNL1        0.0393
     14 C         -26.2500    2.9200   26.3950 C.2     1  UNL1        0.0766
     15 C         -25.6420    4.0930   27.1230 C.2     1  UNL1        0.2664
     16 N         -25.6140    5.2520   26.4490 N.am    1  UNL1       -0.1997
     17 C         -25.0260    6.4790   26.9630 C.3     1  UNL1        0.1388
     18 O         -25.1430    3.9660   28.2430 O.2     1  UNL1       -0.2683
     19 C         -27.4380    3.0910   25.6450 C.2     1  UNL1        0.1067
     20 N         -28.0750    2.0890   25.0030 N.2     1  UNL1       -0.2081
     21 C         -27.5430    0.8490   25.0790 C.2     1  UNL1        0.2533
     22 O         -28.1930   -0.2080   24.4770 O.2     1  UNL1       -0.4558
     23 C         -29.4600    0.0050   23.8660 C.3     1  UNL1        0.2426
     24 C         -30.0650   -1.3770   23.5730 C.3     1  UNL1        0.2292
     25 O         -30.7290   -1.8780   24.7210 O.3     1  UNL1       -0.2162
     26 C         -26.3540    0.5760   25.7770 C.2     1  UNL1        0.1931
     27 F         -25.8600   -0.6810   25.7950 F       1  UNL1       -0.1992
     28 C         -25.6954    1.9533   31.2051 C.3     1  UNL1        0.1528
     29 C         -25.3622    3.4514   31.6372 C.2     1  UNL1        0.2595
     30 C         -24.4887    1.5696   26.9756 C.2     1  UNL1        0.0160
     31 C         -21.8780    1.5459   27.7085 C.2     1  UNL1        0.1414
     32 F         -20.6027    1.5397   28.0452 F       1  UNL1       -0.2041
     33 C         -25.8474   -0.0808   29.4022 C.3     1  UNL1        0.0969
     34 N         -25.2391    1.3122   29.5048 N.pl3   1  UNL1       -0.3010
     35 C         -24.1897    1.3774   28.3553 C.2     1  UNL1        0.0504
     36 C         -22.1806    1.8226   26.3753 C.2     1  UNL1        0.0297
     37 N         -26.3930    4.2887   31.4544 N.am    1  UNL1       -0.2021
     38 C         -22.8450    1.3067   28.6882 C.2     1  UNL1        0.0441
     39 C         -26.1337    5.6360   30.9097 C.3     1  UNL1        0.1386
     40 C         -23.5129    1.8188   26.0032 C.2     1  UNL1        0.0036
     41 O         -24.2785    3.6897   32.1399 O.2     1  UNL1       -0.2716
@<TRIPOS>BOND
     1     1     2    1
     2     1     8    1
     3     2     7    1
     4     3     2    2
     5     4     3    1
     6     4     5    2
     7     5     6    1
     8     6     7    2
     9     8     9    1
    10     8    12    1
    11     9    10    1
    12    10    11    1
    13    12    11    1
    14    13    30    1
    15    14    13    1
    16    14    15    1
    17    15    18    2
    18    16    17    1
    19    16    15    1
    20    19    14    2
    21    20    21    2
    22    20    19    1
    23    21    26    1
    24    22    21    1
    25    23    22    1
    26    24    23    1
    27    24    25    1
    28    26    27    1
    29    26    13    2
    30    28    29    1
    31    28     9    1
    32    29    41    2
    33    30    35    1
    34    31    32    1
    35    31    38    1
    36    33    34    1
    37    33     1    1
    38    34    28    1
    39    35    38    2
    40    35    34    1
    41    36    31    2
    42    37    29    1
    43    39    37    1
    44    40    36    1
    45    40    30    2
