@<TRIPOS>MOLECULE
outputs/IAG933/test6/raw/output_9537_IAG933_linker_design_.xyz
 44 48 0 0 0
SMALL
GASTEIGER

@<TRIPOS>ATOM
      1 C         -24.8550   -1.0120   30.1430 C.3     1  UNL1        0.0441
      2 C         -24.9730   -2.5050   29.7880 C.2     1  UNL1       -0.0208
      3 C         -23.9060   -3.1730   29.1460 C.2     1  UNL1       -0.0042
      4 C         -23.9890   -4.5490   28.8530 C.2     1  UNL1       -0.0003
      5 C         -25.1370   -5.2800   29.2050 C.2     1  UNL1       -0.0000
      6 C         -26.2320   -4.6110   29.7840 C.2     1  UNL1       -0.0003
      7 C         -26.1550   -3.2320   30.0650 C.2     1  UNL1       -0.0042
      8 C         -25.3870   -0.6790   31.5710 C.3     1  UNL1        0.0824
      9 C         -25.1890    0.7730   32.0280 C.3     1  UNL1        0.0554
     10 C         -25.3360    0.6840   33.5440 C.3     1  UNL1        0.0259
     11 C         -24.8290   -0.7150   33.9050 C.3     1  UNL1        0.0891
     12 N         -24.7580   -1.4810   32.6460 N.3     1  UNL1       -0.2187
     13 C         -25.6880    1.6140   26.4610 C.2     1  UNL1        0.0358
     14 C         -26.2500    2.9200   26.3950 C.2     1  UNL1        0.0742
     15 C         -25.6420    4.0930   27.1230 C.2     1  UNL1        0.2662
     16 N         -25.6140    5.2520   26.4490 N.am    1  UNL1       -0.1997
     17 C         -25.0260    6.4790   26.9630 C.3     1  UNL1        0.1388
     18 O         -25.1430    3.9660   28.2430 O.2     1  UNL1       -0.2683
     19 C         -27.4380    3.0910   25.6450 C.2     1  UNL1        0.1065
     20 N         -28.0750    2.0890   25.0030 N.2     1  UNL1       -0.2081
     21 C         -27.5430    0.8490   25.0790 C.2     1  UNL1        0.2530
     22 O         -28.1930   -0.2080   24.4770 O.2     1  UNL1       -0.4558
     23 C         -29.4600    0.0050   23.8660 C.3     1  UNL1        0.2426
     24 C         -30.0650   -1.3770   23.5730 C.3     1  UNL1        0.2292
     25 O         -30.7290   -1.8780   24.7210 O.3     1  UNL1       -0.2162
     26 C         -26.3540    0.5760   25.7770 C.2     1  UNL1        0.1907
     27 F         -25.8600   -0.6810   25.7950 F       1  UNL1       -0.1995
     28 N         -23.5253    1.8306   27.7703 N.am    1  UNL1       -0.2719
     29 C         -24.7085    1.4391   27.0850 C.3     1  UNL1        0.1230
     30 C         -20.8542    1.3979   27.6128 C.3     1  UNL1        0.0233
     31 O         -25.4646    5.4749   30.2478 O.3     1  UNL1       -0.0892
     32 N         -26.6517    5.1260   30.7939 N.3     1  UNL1        0.0034
     33 N         -25.4824    3.2892   31.9197 N.pl3   1  UNL1       -0.2201
     34 C         -26.4289    4.3449   32.0889 C.3     1  UNL1        0.2360
     35 C         -25.3743    5.5641   33.6667 C.3     1  UNL1        0.1751
     36 C         -25.0106    2.1673   31.5239 C.2     1  UNL1        0.0503
     37 O         -27.5367    6.2743   31.1753 O.3     1  UNL1       -0.2522
     38 C         -22.1498    1.9494   27.0871 C.3     1  UNL1        0.0941
     39 O         -26.1007    5.0871   34.3386 O.3     1  UNL1       -0.3475
     40 C         -26.4205    5.3629   33.3278 C.3     1  UNL1        0.1859
     41 O         -22.6563    0.4108   29.4428 O.2     1  UNL1       -0.2699
     42 C         -24.1519    2.1609   30.2294 C.2     1  UNL1        0.0697
     43 C         -23.3355    1.4018   29.1629 C.2     1  UNL1        0.2504
     44 C         -27.2067    6.5491   32.5322 C.3     1  UNL1        0.2020
@<TRIPOS>BOND
     1     2     7    1
     2     2     1    1
     3     3     2    2
     4     4     3    1
     5     4     5    2
     6     5     6    1
     7     6     7    2
     8     8     1    1
     9     8     9    1
    10     8    12    1
    11     9    36    1
    12     9    10    1
    13    10    11    1
    14    12    11    1
    15    13    29    1
    16    14    13    1
    17    14    15    1
    18    15    18    2
    19    16    17    1
    20    16    15    1
    21    19    14    2
    22    20    21    2
    23    20    19    1
    24    21    26    1
    25    22    21    1
    26    23    22    1
    27    24    23    1
    28    24    25    1
    29    26    27    1
    30    26    13    2
    31    28    43   am
    32    29    28    1
    33    31    32    1
    34    32    37    1
    35    32    34    1
    36    34    33    1
    37    34    40    1
    38    35    39    1
    39    36    33    1
    40    37    44    1
    41    38    30    1
    42    38    28    1
    43    40    44    1
    44    40    35    1
    45    40    39    1
    46    42    36    2
    47    43    41    2
    48    43    42    1
