@<TRIPOS>MOLECULE
outputs/IAG933/test6/raw/output_954_IAG933_linker_design_.xyz
 43 48 0 0 0
SMALL
GASTEIGER

@<TRIPOS>ATOM
      1 C         -24.8550   -1.0120   30.1430 C.3     1  UNL1        0.0983
      2 C         -24.9730   -2.5050   29.7880 C.2     1  UNL1       -0.0064
      3 C         -23.9060   -3.1730   29.1460 C.2     1  UNL1       -0.0029
      4 C         -23.9890   -4.5490   28.8530 C.2     1  UNL1       -0.0003
      5 C         -25.1370   -5.2800   29.2050 C.2     1  UNL1       -0.0000
      6 C         -26.2320   -4.6110   29.7840 C.2     1  UNL1       -0.0003
      7 C         -26.1550   -3.2320   30.0650 C.2     1  UNL1       -0.0029
      8 C         -25.3870   -0.6790   31.5710 C.3     1  UNL1        0.0916
      9 C         -25.1890    0.7730   32.0280 C.3     1  UNL1        0.0206
     10 C         -25.3360    0.6840   33.5440 C.3     1  UNL1        0.0203
     11 C         -24.8290   -0.7150   33.9050 C.3     1  UNL1        0.0888
     12 N         -24.7580   -1.4810   32.6460 N.3     1  UNL1       -0.2178
     13 C         -25.6880    1.6140   26.4610 C.3     1  UNL1        0.0747
     14 C         -26.2500    2.9200   26.3950 C.2     1  UNL1        0.0550
     15 C         -25.6420    4.0930   27.1230 C.2     1  UNL1        0.2624
     16 N         -25.6140    5.2520   26.4490 N.am    1  UNL1       -0.2000
     17 C         -25.0260    6.4790   26.9630 C.3     1  UNL1        0.1388
     18 O         -25.1430    3.9660   28.2430 O.2     1  UNL1       -0.2687
     19 C         -27.4380    3.0910   25.6450 C.2     1  UNL1        0.1021
     20 N         -28.0750    2.0890   25.0030 N.2     1  UNL1       -0.2119
     21 C         -27.5430    0.8490   25.0790 C.2     1  UNL1        0.2341
     22 O         -28.1930   -0.2080   24.4770 O.2     1  UNL1       -0.4585
     23 C         -29.4600    0.0050   23.8660 C.3     1  UNL1        0.2423
     24 C         -30.0650   -1.3770   23.5730 C.3     1  UNL1        0.2292
     25 O         -30.7290   -1.8780   24.7210 O.3     1  UNL1       -0.2162
     26 C         -26.3540    0.5760   25.7770 C.3     1  UNL1        0.2401
     27 F         -25.8600   -0.6810   25.7950 F       1  UNL1       -0.2269
     28 C         -26.3834    2.9342   30.4607 C.3     1  UNL1        0.1057
     29 C         -22.3494    1.5155   26.8974 C.2     1  UNL1        0.3330
     30 C         -23.6030    1.3999   27.3796 C.3     1  UNL1        0.1643
     31 O         -21.3367    0.9216   27.6668 O.3     1  UNL1       -0.4295
     32 C         -28.3908    2.2728   29.9065 C.3     1  UNL1        0.1057
     33 C         -24.7209    1.2396   27.4594 C.3     1  UNL1        0.0633
     34 O         -22.1571    2.0519   25.7723 O.2     1  UNL1       -0.2486
     35 N         -23.4932    0.4227   28.5415 N.3     1  UNL1       -0.2149
     36 N         -27.1218    1.8026   29.6069 N.3     1  UNL1       -0.2543
     37 C         -28.7215    3.6627   29.5157 C.3     1  UNL1        0.1595
     38 C         -22.1006    0.0686   28.7316 C.3     1  UNL1        0.2891
     39 C         -27.1861    0.3287   29.1197 C.3     1  UNL1        0.1507
     40 O         -27.9922    4.6460   30.3329 O.3     1  UNL1       -0.3508
     41 N         -25.7179   -0.1591   29.1358 N.3     1  UNL1       -0.2432
     42 C         -24.9646    0.6668   28.3990 C.3     1  UNL1        0.1250
     43 C         -27.1320    3.9703   31.3125 C.3     1  UNL1        0.1595
@<TRIPOS>BOND
     1     1    41    1
     2     2     7    1
     3     2     1    1
     4     3     2    2
     5     4     3    1
     6     4     5    2
     7     5     6    1
     8     6     7    2
     9     8     1    1
    10     8     9    1
    11     8    12    1
    12     9    10    1
    13    10    11    1
    14    12    11    1
    15    13    14    1
    16    14    15    1
    17    15    18    2
    18    16    17    1
    19    16    15    1
    20    19    14    2
    21    20    21    2
    22    20    19    1
    23    21    26    1
    24    22    21    1
    25    23    22    1
    26    24    23    1
    27    24    25    1
    28    26    27    1
    29    26    13    1
    30    28    43    1
    31    29    31    1
    32    30    29    1
    33    30    33    1
    34    30    35    1
    35    31    38    1
    36    33    13    1
    37    33    42    1
    38    34    29    2
    39    35    38    1
    40    36    32    1
    41    36    28    1
    42    37    32    1
    43    37    40    1
    44    39    41    1
    45    39    36    1
    46    40    43    1
    47    42    35    1
    48    42    41    1
