@<TRIPOS>MOLECULE
outputs/IAG933/test6/raw/output_9545_IAG933_linker_design_.xyz
 42 46 0 0 0
SMALL
GASTEIGER

@<TRIPOS>ATOM
      1 C         -24.8550   -1.0120   30.1430 C.3     1  UNL1        0.0451
      2 C         -24.9730   -2.5050   29.7880 C.2     1  UNL1       -0.0207
      3 C         -23.9060   -3.1730   29.1460 C.2     1  UNL1       -0.0042
      4 C         -23.9890   -4.5490   28.8530 C.2     1  UNL1       -0.0003
      5 C         -25.1370   -5.2800   29.2050 C.2     1  UNL1       -0.0000
      6 C         -26.2320   -4.6110   29.7840 C.2     1  UNL1       -0.0003
      7 C         -26.1550   -3.2320   30.0650 C.2     1  UNL1       -0.0042
      8 C         -25.3870   -0.6790   31.5710 C.3     1  UNL1        0.0932
      9 C         -25.1890    0.7730   32.0280 C.3     1  UNL1        0.0932
     10 C         -25.3360    0.6840   33.5440 C.3     1  UNL1        0.0377
     11 C         -24.8290   -0.7150   33.9050 C.3     1  UNL1        0.0902
     12 N         -24.7580   -1.4810   32.6460 N.3     1  UNL1       -0.2177
     13 C         -25.6880    1.6140   26.4610 C.2     1  UNL1        0.0407
     14 C         -26.2500    2.9200   26.3950 C.2     1  UNL1        0.0744
     15 C         -25.6420    4.0930   27.1230 C.2     1  UNL1        0.2223
     16 N         -25.6140    5.2520   26.4490 N.2     1  UNL1       -0.2356
     17 C         -25.0260    6.4790   26.9630 C.3     1  UNL1        0.1550
     18 O         -25.1430    3.9660   28.2430 O.2     1  UNL1       -0.4552
     19 C         -27.4380    3.0910   25.6450 C.2     1  UNL1        0.1068
     20 N         -28.0750    2.0890   25.0030 N.2     1  UNL1       -0.2081
     21 C         -27.5430    0.8490   25.0790 C.2     1  UNL1        0.2533
     22 O         -28.1930   -0.2080   24.4770 O.2     1  UNL1       -0.4558
     23 C         -29.4600    0.0050   23.8660 C.3     1  UNL1        0.2426
     24 C         -30.0650   -1.3770   23.5730 C.3     1  UNL1        0.2292
     25 O         -30.7290   -1.8780   24.7210 O.3     1  UNL1       -0.2162
     26 C         -26.3540    0.5760   25.7770 C.2     1  UNL1        0.1931
     27 F         -25.8600   -0.6810   25.7950 F       1  UNL1       -0.1992
     28 C         -25.4070    3.0127   30.7481 C.3     1  UNL1        0.2151
     29 C         -21.2777    1.1508   27.5258 C.3     1  UNL1        0.1210
     30 O         -24.1027    2.6127   30.3777 O.3     1  UNL1       -0.3109
     31 N         -21.7171    0.6034   28.6847 N.3     1  UNL1       -0.2101
     32 CL        -27.3483    7.1339   31.0884 Cl      1  UNL1       -0.0825
     33 C         -22.8288    1.0430   29.1600 C.3     1  UNL1        0.1500
     34 C         -26.4983    5.1711   29.6939 C.2     1  UNL1        0.0323
     35 C         -23.6409    2.1543   29.2465 C.3     1  UNL1        0.2546
     36 O         -23.1255    2.4236   27.8173 O.3     1  UNL1       -0.3279
     37 N         -26.0873    1.7079   31.2582 N.3     1  UNL1       -0.1880
     38 C         -26.2939    4.9300   32.1265 C.2     1  UNL1        0.0105
     39 C         -25.7475    4.0038   29.4735 C.3     1  UNL1        0.2345
     40 C         -22.0863    2.1638   27.0240 C.3     1  UNL1        0.1636
     41 C         -25.5552    3.7638   32.0146 C.2     1  UNL1        0.0220
     42 C         -26.7109    5.6546   30.9741 C.2     1  UNL1        0.0568
@<TRIPOS>BOND
     1     2     7    1
     2     2     1    1
     3     3     2    2
     4     4     3    1
     5     4     5    2
     6     5     6    1
     7     6     7    2
     8     8     1    1
     9     8     9    1
    10     8    12    1
    11     9    37    1
    12     9    10    1
    13    10    11    1
    14    12    11    1
    15    14    13    1
    16    14    15    1
    17    15    18    1
    18    16    17    1
    19    16    15    2
    20    19    14    2
    21    20    21    2
    22    20    19    1
    23    21    26    1
    24    22    21    1
    25    23    22    1
    26    24    23    1
    27    24    25    1
    28    26    27    1
    29    26    13    2
    30    28    30    1
    31    28    37    1
    32    28    41    1
    33    29    31    1
    34    31    33    1
    35    33    35    1
    36    34    42    2
    37    35    30    1
    38    36    35    1
    39    39    18    1
    40    39    34    1
    41    39    28    1
    42    40    29    1
    43    40    36    1
    44    41    38    2
    45    42    32    1
    46    42    38    1
