@<TRIPOS>MOLECULE
outputs/IAG933/test6/raw/output_9547_IAG933_linker_design_.xyz
 43 47 0 0 0
SMALL
GASTEIGER

@<TRIPOS>ATOM
      1 C         -24.8550   -1.0120   30.1430 C.3     1  UNL1        0.0497
      2 C         -24.9730   -2.5050   29.7880 C.2     1  UNL1       -0.0206
      3 C         -23.9060   -3.1730   29.1460 C.2     1  UNL1       -0.0042
      4 C         -23.9890   -4.5490   28.8530 C.2     1  UNL1       -0.0003
      5 C         -25.1370   -5.2800   29.2050 C.2     1  UNL1       -0.0000
      6 C         -26.2320   -4.6110   29.7840 C.2     1  UNL1       -0.0003
      7 C         -26.1550   -3.2320   30.0650 C.2     1  UNL1       -0.0042
      8 C         -25.3870   -0.6790   31.5710 C.3     1  UNL1        0.0774
      9 C         -25.1890    0.7730   32.0280 C.3     1  UNL1        0.0192
     10 C         -25.3360    0.6840   33.5440 C.3     1  UNL1        0.0202
     11 C         -24.8290   -0.7150   33.9050 C.3     1  UNL1        0.0887
     12 N         -24.7580   -1.4810   32.6460 N.3     1  UNL1       -0.2191
     13 C         -25.6880    1.6140   26.4610 C.2     1  UNL1        0.0884
     14 C         -26.2500    2.9200   26.3950 C.2     1  UNL1        0.0899
     15 C         -25.6420    4.0930   27.1230 C.2     1  UNL1        0.2676
     16 N         -25.6140    5.2520   26.4490 N.am    1  UNL1       -0.1997
     17 C         -25.0260    6.4790   26.9630 C.3     1  UNL1        0.1388
     18 O         -25.1430    3.9660   28.2430 O.2     1  UNL1       -0.2683
     19 C         -27.4380    3.0910   25.6450 C.2     1  UNL1        0.1080
     20 N         -28.0750    2.0890   25.0030 N.2     1  UNL1       -0.2080
     21 C         -27.5430    0.8490   25.0790 C.2     1  UNL1        0.2546
     22 O         -28.1930   -0.2080   24.4770 O.2     1  UNL1       -0.4558
     23 C         -29.4600    0.0050   23.8660 C.3     1  UNL1        0.2426
     24 C         -30.0650   -1.3770   23.5730 C.3     1  UNL1        0.2292
     25 O         -30.7290   -1.8780   24.7210 O.3     1  UNL1       -0.2162
     26 C         -26.3540    0.5760   25.7770 C.2     1  UNL1        0.2063
     27 F         -25.8600   -0.6810   25.7950 F       1  UNL1       -0.1979
     28 C         -25.0158    1.0244   28.8367 C.3     1  UNL1        0.2138
     29 N         -25.5718    4.0031   31.5836 N.am    1  UNL1       -0.2499
     30 C         -25.7049    2.9393   30.6906 C.2     1  UNL1        0.0676
     31 C         -26.5777    4.7306   31.8984 C.2     1  UNL1        0.2529
     32 O         -26.3358    0.5351   28.9366 O.3     1  UNL1       -0.1999
     33 N         -24.6315    1.1888   27.2798 N.pl3   1  UNL1       -0.2762
     34 O         -27.7054    4.9559   31.0091 O.2     1  UNL1       -0.2696
     35 C         -25.1544    4.8961   33.6214 C.2     1  UNL1        0.0003
     36 C         -23.2380    1.6282   27.3228 C.3     1  UNL1        0.1328
     37 C         -24.0977   -0.2102   29.0278 C.3     1  UNL1        0.1144
     38 C         -26.4004    5.2292   33.1142 C.2     1  UNL1        0.0554
     39 O         -21.6473    0.3327   28.7160 O.2     1  UNL1       -0.2942
     40 C         -22.7936    0.5308   28.4831 C.2     1  UNL1        0.1728
     41 C         -24.8446    2.1183   29.9773 C.2     1  UNL1        0.0391
     42 C         -24.5669    4.1189   32.6492 C.3     1  UNL1        0.1250
     43 C         -21.9294    1.8612   26.4316 C.3     1  UNL1        0.0296
@<TRIPOS>BOND
     1     1     2    1
     2     2     7    1
     3     3     2    2
     4     4     3    1
     5     4     5    2
     6     5     6    1
     7     6     7    2
     8     8     1    1
     9     8     9    1
    10     8    12    1
    11     9    10    1
    12    10    11    1
    13    12    11    1
    14    13    33    1
    15    14    13    1
    16    14    15    1
    17    15    18    2
    18    16    17    1
    19    16    15    1
    20    19    14    2
    21    20    21    2
    22    20    19    1
    23    21    26    1
    24    22    21    1
    25    23    22    1
    26    24    23    1
    27    24    25    1
    28    26    27    1
    29    26    13    2
    30    28    32    1
    31    28    37    1
    32    28    41    1
    33    29    31   am
    34    29    42    1
    35    30    29    1
    36    31    38    1
    37    33    36    1
    38    33    28    1
    39    34    31    2
    40    36    43    1
    41    36    40    1
    42    37     1    1
    43    38    35    2
    44    40    39    2
    45    40    37    1
    46    41    30    2
    47    42    35    1
