@<TRIPOS>MOLECULE
No_955-gen_results/8p0m/2024-11-27-11-27-31/
 23 25 0 0 0
SMALL
GASTEIGER

@<TRIPOS>ATOM
      1 C         -28.0162   -0.8135   28.8779 C.ar    1  UNL1        0.0042
      2 C         -28.4690   -0.7850   29.8287 C.ar    1  UNL1        0.0536
      3 C         -27.1356    0.2359   28.5352 C.ar    1  UNL1       -0.0033
      4 C         -26.3351    0.2900   27.2835 C.2     1  UNL1       -0.0103
      5 C         -29.3807   -1.9134   30.3549 C.2     1  UNL1        0.2490
      6 C         -28.2295    0.3010   30.9036 C.ar    1  UNL1        0.0045
      7 C         -26.4076   -0.2207   26.3599 C.2     1  UNL1       -0.0040
      8 C         -25.4719   -0.0051   25.1693 C.2     1  UNL1       -0.0043
      9 C         -27.4401    1.3324   30.6406 C.ar    1  UNL1        0.0001
     10 C         -26.7846    1.3318   29.4694 C.ar    1  UNL1       -0.0003
     11 C         -24.4514    0.7934   25.5074 C.2     1  UNL1       -0.0136
     12 C         -24.9906    1.1632   27.1549 C.3     1  UNL1        0.1394
     13 N         -30.4119   -1.9938   30.1405 N.am    1  UNL1       -0.2761
     14 O         -28.7145   -2.9214   31.0179 O.2     1  UNL1       -0.2699
     15 C         -31.2278   -0.9817   29.5688 C.3     1  UNL1        0.0937
     16 C         -32.4982   -1.3475   29.1083 C.3     1  UNL1        0.0216
     17 C         -24.2682    2.0432   27.8945 C.3     1  UNL1        0.4048
     18 F         -23.9230    1.5401   28.9716 F       1  UNL1       -0.1693
     19 F         -24.8799    3.1874   28.0666 F       1  UNL1       -0.1693
     20 F         -23.0246    2.3216   27.3195 F       1  UNL1       -0.1693
     21 C         -32.8013   -2.5169   29.1066 C.3     1  UNL1        0.0035
     22 C         -31.1631   -3.2292   29.9966 C.3     1  UNL1        0.0937
     23 C         -32.2772   -3.5397   29.5317 C.3     1  UNL1        0.0216
@<TRIPOS>BOND
     1     3     4    1
     2     2     5    1
     3     4     7    2
     4     7     8    1
     5     8    11    2
     6     4    12    1
     7    11    12    1
     8     5    13   am
     9     5    14    2
    10    13    15    1
    11    12    17    1
    12    17    18    1
    13    17    19    1
    14    17    20    1
    15    16    21    1
    16    13    22    1
    17    22    23    1
    18    15    16    1
    19    21    23    1
    20     1     2   ar
    21     2     6   ar
    22     6     9   ar
    23     9    10   ar
    24    10     3   ar
    25     3     1   ar
