@<TRIPOS>MOLECULE
outputs/IAG933/test6/raw/output_9555_IAG933_linker_design_.xyz
 44 48 0 0 0
SMALL
GASTEIGER

@<TRIPOS>ATOM
      1 C         -24.8550   -1.0120   30.1430 C.3     1  UNL1        0.0637
      2 C         -24.9730   -2.5050   29.7880 C.2     1  UNL1       -0.0168
      3 C         -23.9060   -3.1730   29.1460 C.2     1  UNL1       -0.0039
      4 C         -23.9890   -4.5490   28.8530 C.2     1  UNL1       -0.0003
      5 C         -25.1370   -5.2800   29.2050 C.2     1  UNL1       -0.0000
      6 C         -26.2320   -4.6110   29.7840 C.2     1  UNL1       -0.0003
      7 C         -26.1550   -3.2320   30.0650 C.2     1  UNL1       -0.0039
      8 C         -25.3870   -0.6790   31.5710 C.3     1  UNL1        0.0811
      9 C         -25.1890    0.7730   32.0280 C.3     1  UNL1        0.0195
     10 C         -25.3360    0.6840   33.5440 C.3     1  UNL1        0.0203
     11 C         -24.8290   -0.7150   33.9050 C.3     1  UNL1        0.0887
     12 N         -24.7580   -1.4810   32.6460 N.3     1  UNL1       -0.2188
     13 C         -25.6880    1.6140   26.4610 C.3     1  UNL1        0.0768
     14 C         -26.2500    2.9200   26.3950 C.2     1  UNL1        0.0552
     15 C         -25.6420    4.0930   27.1230 C.2     1  UNL1        0.2625
     16 N         -25.6140    5.2520   26.4490 N.am    1  UNL1       -0.2000
     17 C         -25.0260    6.4790   26.9630 C.3     1  UNL1        0.1388
     18 O         -25.1430    3.9660   28.2430 O.2     1  UNL1       -0.2687
     19 C         -27.4380    3.0910   25.6450 C.2     1  UNL1        0.1022
     20 N         -28.0750    2.0890   25.0030 N.2     1  UNL1       -0.2119
     21 C         -27.5430    0.8490   25.0790 C.2     1  UNL1        0.2341
     22 O         -28.1930   -0.2080   24.4770 O.2     1  UNL1       -0.4585
     23 C         -29.4600    0.0050   23.8660 C.3     1  UNL1        0.2423
     24 C         -30.0650   -1.3770   23.5730 C.3     1  UNL1        0.2292
     25 O         -30.7290   -1.8780   24.7210 O.3     1  UNL1       -0.2162
     26 C         -26.3540    0.5760   25.7770 C.3     1  UNL1        0.2404
     27 F         -25.8600   -0.6810   25.7950 F       1  UNL1       -0.2269
     28 C         -29.4076    2.4065   29.3172 C.3     1  UNL1        0.1246
     29 C         -28.7464    1.2983   29.8132 C.3     1  UNL1        0.0639
     30 O         -23.1879   -0.0533   28.7278 O.3     1  UNL1       -0.3508
     31 C         -30.2502    2.3105   28.1996 C.3     1  UNL1        0.0559
     32 C         -25.3756   -0.0577   28.9626 C.2     1  UNL1       -0.0027
     33 C         -26.9438   -0.1078   28.9141 C.1     1  UNL1       -0.1142
     34 C         -22.9916    1.4496   26.7220 C.3     1  UNL1        0.0557
     35 O         -29.0950    3.5658   29.8654 O.3     1  UNL1       -0.3529
     36 C         -21.8463    0.1822   29.1830 C.3     1  UNL1        0.1679
     37 C         -21.4552    1.3637   27.0776 C.2     1  UNL1       -0.0257
     38 C         -25.1256    1.1471   27.9109 C.3     1  UNL1        0.0607
     39 C         -29.4949    4.1829   31.0328 C.3     1  UNL1        0.1740
     40 C         -29.0707    0.2495   27.7617 C.2     1  UNL1       -0.0011
     41 C         -23.6247    1.2234   28.0661 C.3     1  UNL1        0.1246
     42 C         -30.1162    1.1484   27.4408 C.2     1  UNL1       -0.0233
     43 C         -20.9715    0.7939   28.1147 C.2     1  UNL1        0.0012
     44 C         -28.2907    0.4528   28.8342 C.2     1  UNL1        0.0136
@<TRIPOS>BOND
     1     1    32    1
     2     2     7    1
     3     2     1    1
     4     3     2    2
     5     4     3    1
     6     4     5    2
     7     5     6    1
     8     6     7    2
     9     8     1    1
    10     8     9    1
    11     8    12    1
    12     9    10    1
    13    10    11    1
    14    12    11    1
    15    13    38    1
    16    14    13    1
    17    14    15    1
    18    15    18    2
    19    16    17    1
    20    16    15    1
    21    19    14    2
    22    20    21    2
    23    20    19    1
    24    21    26    1
    25    22    21    1
    26    23    22    1
    27    24    23    1
    28    24    25    1
    29    26    27    1
    30    26    13    1
    31    28    29    1
    32    28    35    1
    33    30    36    1
    34    31    28    1
    35    33    32    2
    36    34    37    1
    37    34    41    1
    38    35    39    1
    39    37    43    2
    40    38    32    1
    41    40    44    1
    42    41    38    1
    43    41    30    1
    44    42    40    2
    45    42    31    1
    46    43    36    1
    47    44    33    2
    48    44    29    1
