@<TRIPOS>MOLECULE
outputs/IAG933/test6/raw/output_9562_IAG933_linker_design_.xyz
 45 49 0 0 0
SMALL
GASTEIGER

@<TRIPOS>ATOM
      1 C         -24.8550   -1.0120   30.1430 C.3     1  UNL1        0.0965
      2 C         -24.9730   -2.5050   29.7880 C.2     1  UNL1       -0.0064
      3 C         -23.9060   -3.1730   29.1460 C.2     1  UNL1       -0.0029
      4 C         -23.9890   -4.5490   28.8530 C.2     1  UNL1       -0.0003
      5 C         -25.1370   -5.2800   29.2050 C.2     1  UNL1       -0.0000
      6 C         -26.2320   -4.6110   29.7840 C.2     1  UNL1       -0.0003
      7 C         -26.1550   -3.2320   30.0650 C.2     1  UNL1       -0.0029
      8 C         -25.3870   -0.6790   31.5710 C.3     1  UNL1        0.0916
      9 C         -25.1890    0.7730   32.0280 C.3     1  UNL1        0.0206
     10 C         -25.3360    0.6840   33.5440 C.3     1  UNL1        0.0203
     11 C         -24.8290   -0.7150   33.9050 C.3     1  UNL1        0.0888
     12 N         -24.7580   -1.4810   32.6460 N.3     1  UNL1       -0.2178
     13 C         -25.6880    1.6140   26.4610 C.2     1  UNL1        0.0172
     14 C         -26.2500    2.9200   26.3950 C.2     1  UNL1        0.0726
     15 C         -25.6420    4.0930   27.1230 C.2     1  UNL1        0.2661
     16 N         -25.6140    5.2520   26.4490 N.am    1  UNL1       -0.1997
     17 C         -25.0260    6.4790   26.9630 C.3     1  UNL1        0.1388
     18 O         -25.1430    3.9660   28.2430 O.2     1  UNL1       -0.2683
     19 C         -27.4380    3.0910   25.6450 C.2     1  UNL1        0.1064
     20 N         -28.0750    2.0890   25.0030 N.2     1  UNL1       -0.2081
     21 C         -27.5430    0.8490   25.0790 C.2     1  UNL1        0.2530
     22 O         -28.1930   -0.2080   24.4770 O.2     1  UNL1       -0.4558
     23 C         -29.4600    0.0050   23.8660 C.3     1  UNL1        0.2426
     24 C         -30.0650   -1.3770   23.5730 C.3     1  UNL1        0.2292
     25 O         -30.7290   -1.8780   24.7210 O.3     1  UNL1       -0.2162
     26 C         -26.3540    0.5760   25.7770 C.2     1  UNL1        0.1892
     27 F         -25.8600   -0.6810   25.7950 F       1  UNL1       -0.1996
     28 C         -32.9668    0.4250   28.6846 C.3     1  UNL1        0.1816
     29 C         -21.1530    1.5277   27.8487 C.3     1  UNL1        0.0014
     30 C         -29.7882   -1.0675   29.3920 C.2     1  UNL1       -0.0031
     31 C         -30.3055    0.0272   28.7581 C.2     1  UNL1        0.1018
     32 N         -24.3891   -0.1550   29.1265 N.3     1  UNL1       -0.2665
     33 C         -24.7506    1.2832   27.1637 C.3     1  UNL1        0.0438
     34 C         -27.2582   -0.7389   29.3970 C.2     1  UNL1       -0.0243
     35 C         -27.9156    1.5892   29.0898 C.2     1  UNL1       -0.0020
     36 C         -26.9618    0.5919   29.0387 C.2     1  UNL1       -0.0114
     37 C         -28.4673   -1.1121   29.9416 C.3     1  UNL1        0.0530
     38 C         -25.4486    0.6904   28.4790 C.3     1  UNL1        0.0841
     39 O         -31.6215   -1.4201   27.2586 O.2     1  UNL1       -0.1686
     40 C         -29.4594    1.2312   28.8109 C.2     1  UNL1        0.0177
     41 O         -31.4770    1.1190   26.7588 O.2     1  UNL1       -0.1686
     42 C         -23.0723   -0.0664   28.7247 C.3     1  UNL1        0.0726
     43 C         -23.5338    1.4354   26.7821 C.3     1  UNL1        0.0075
     44 C         -22.5765    0.9958   27.8337 C.3     1  UNL1        0.0164
     45 S         -31.5460   -0.0471   27.7811 S.O2    1  UNL1        0.0101
@<TRIPOS>BOND
     1     1     2    1
     2     2     7    1
     3     3     2    2
     4     4     3    1
     5     4     5    2
     6     5     6    1
     7     6     7    2
     8     8     1    1
     9     8     9    1
    10     8    12    1
    11     9    10    1
    12    10    11    1
    13    12    11    1
    14    14    13    1
    15    14    15    1
    16    15    18    2
    17    16    17    1
    18    16    15    1
    19    19    14    2
    20    20    21    2
    21    20    19    1
    22    21    26    1
    23    22    21    1
    24    23    22    1
    25    24    23    1
    26    24    25    1
    27    26    27    1
    28    26    13    2
    29    30    37    1
    30    31    40    1
    31    31    30    2
    32    32     1    1
    33    33    13    1
    34    33    38    1
    35    34    37    1
    36    36    35    1
    37    36    34    2
    38    38    36    1
    39    38    32    1
    40    39    45    2
    41    40    35    2
    42    41    45    2
    43    42    32    1
    44    43    33    1
    45    43    44    1
    46    44    29    1
    47    44    42    1
    48    45    28    1
    49    45    31    1
