@<TRIPOS>MOLECULE
outputs/IAG933/test6/raw/output_957_IAG933_linker_design_.xyz
 41 44 0 0 0
SMALL
GASTEIGER

@<TRIPOS>ATOM
      1 C         -24.8550   -1.0120   30.1430 C.3     1  UNL1        0.0441
      2 C         -24.9730   -2.5050   29.7880 C.2     1  UNL1       -0.0208
      3 C         -23.9060   -3.1730   29.1460 C.2     1  UNL1       -0.0042
      4 C         -23.9890   -4.5490   28.8530 C.2     1  UNL1       -0.0003
      5 C         -25.1370   -5.2800   29.2050 C.2     1  UNL1       -0.0000
      6 C         -26.2320   -4.6110   29.7840 C.2     1  UNL1       -0.0003
      7 C         -26.1550   -3.2320   30.0650 C.2     1  UNL1       -0.0042
      8 C         -25.3870   -0.6790   31.5710 C.3     1  UNL1        0.0819
      9 C         -25.1890    0.7730   32.0280 C.3     1  UNL1        0.0538
     10 C         -25.3360    0.6840   33.5440 C.3     1  UNL1        0.0254
     11 C         -24.8290   -0.7150   33.9050 C.3     1  UNL1        0.0891
     12 N         -24.7580   -1.4810   32.6460 N.3     1  UNL1       -0.2188
     13 C         -25.6880    1.6140   26.4610 C.2     1  UNL1        0.1168
     14 C         -26.2500    2.9200   26.3950 C.2     1  UNL1        0.0923
     15 C         -25.6420    4.0930   27.1230 C.2     1  UNL1        0.2677
     16 N         -25.6140    5.2520   26.4490 N.am    1  UNL1       -0.1997
     17 C         -25.0260    6.4790   26.9630 C.3     1  UNL1        0.1388
     18 O         -25.1430    3.9660   28.2430 O.2     1  UNL1       -0.2683
     19 C         -27.4380    3.0910   25.6450 C.2     1  UNL1        0.1081
     20 N         -28.0750    2.0890   25.0030 N.2     1  UNL1       -0.2080
     21 C         -27.5430    0.8490   25.0790 C.2     1  UNL1        0.2546
     22 O         -28.1930   -0.2080   24.4770 O.2     1  UNL1       -0.4558
     23 C         -29.4600    0.0050   23.8660 C.3     1  UNL1        0.2426
     24 C         -30.0650   -1.3770   23.5730 C.3     1  UNL1        0.2292
     25 O         -30.7290   -1.8780   24.7210 O.3     1  UNL1       -0.2162
     26 C         -26.3540    0.5760   25.7770 C.2     1  UNL1        0.2087
     27 F         -25.8600   -0.6810   25.7950 F       1  UNL1       -0.1978
     28 C         -23.2948    1.2894   28.8615 C.2     1  UNL1        0.0400
     29 C         -23.6639    1.4363   27.4674 C.3     1  UNL1        0.1959
     30 C         -21.4082    1.6941   26.8692 C.2     1  UNL1        0.0396
     31 N         -24.8470    1.0499   27.2109 N.pl3   1  UNL1       -0.1461
     32 O         -23.1980    2.3742   25.4738 O.2     1  UNL1       -0.2891
     33 C         -25.4163    3.3716   31.8913 C.2     1  UNL1        0.3908
     34 O         -25.1121    4.3535   31.2889 O.co2   1  UNL1       -0.2402
     35 C         -22.7583    1.8563   26.5661 C.2     1  UNL1        0.1984
     36 C         -24.2263    1.7912   29.8641 C.1     1  UNL1       -0.1017
     37 O         -25.9447    3.4938   33.0128 O.co2   1  UNL1       -0.2402
     38 F         -24.8912   -0.3380   27.6555 F       1  UNL1       -0.1073
     39 C         -24.9638    1.9704   31.2363 C.2     1  UNL1        0.0925
     40 C         -21.0613    1.1875   28.1130 C.2     1  UNL1        0.0033
     41 C         -22.0124    0.9477   29.0739 C.2     1  UNL1        0.0055
@<TRIPOS>BOND
     1     2     7    1
     2     2     1    1
     3     3     2    2
     4     4     3    1
     5     4     5    2
     6     5     6    1
     7     6     7    2
     8     8     1    1
     9     8     9    1
    10     8    12    1
    11     9    39    1
    12     9    10    1
    13    10    11    1
    14    12    11    1
    15    13    31    1
    16    14    13    1
    17    14    15    1
    18    15    18    2
    19    16    17    1
    20    16    15    1
    21    19    14    2
    22    20    21    2
    23    20    19    1
    24    21    26    1
    25    22    21    1
    26    23    22    1
    27    24    23    1
    28    24    25    1
    29    26    27    1
    30    26    13    2
    31    28    41    1
    32    28    36    2
    33    29    31    1
    34    29    28    1
    35    30    40    1
    36    31    38    1
    37    32    35    1
    38    33    37   ar
    39    34    33   ar
    40    35    30    2
    41    35    29    1
    42    36    39    2
    43    39    33    1
    44    40    41    2
