@<TRIPOS>MOLECULE
outputs/IAG933/test6/raw/output_9575_IAG933_linker_design_.xyz
 44 49 0 0 0
SMALL
GASTEIGER

@<TRIPOS>ATOM
      1 C         -24.8550   -1.0120   30.1430 C.3     1  UNL1        0.0440
      2 C         -24.9730   -2.5050   29.7880 C.2     1  UNL1       -0.0208
      3 C         -23.9060   -3.1730   29.1460 C.2     1  UNL1       -0.0042
      4 C         -23.9890   -4.5490   28.8530 C.2     1  UNL1       -0.0003
      5 C         -25.1370   -5.2800   29.2050 C.2     1  UNL1       -0.0000
      6 C         -26.2320   -4.6110   29.7840 C.2     1  UNL1       -0.0003
      7 C         -26.1550   -3.2320   30.0650 C.2     1  UNL1       -0.0042
      8 C         -25.3870   -0.6790   31.5710 C.3     1  UNL1        0.0808
      9 C         -25.1890    0.7730   32.0280 C.3     1  UNL1        0.0358
     10 C         -25.3360    0.6840   33.5440 C.3     1  UNL1        0.0242
     11 C         -24.8290   -0.7150   33.9050 C.3     1  UNL1        0.0890
     12 N         -24.7580   -1.4810   32.6460 N.3     1  UNL1       -0.2188
     13 C         -25.6880    1.6140   26.4610 C.2     1  UNL1        0.0530
     14 C         -26.2500    2.9200   26.3950 C.2     1  UNL1        0.0778
     15 C         -25.6420    4.0930   27.1230 C.2     1  UNL1        0.2665
     16 N         -25.6140    5.2520   26.4490 N.am    1  UNL1       -0.1997
     17 C         -25.0260    6.4790   26.9630 C.3     1  UNL1        0.1388
     18 O         -25.1430    3.9660   28.2430 O.2     1  UNL1       -0.2683
     19 C         -27.4380    3.0910   25.6450 C.2     1  UNL1        0.1068
     20 N         -28.0750    2.0890   25.0030 N.2     1  UNL1       -0.2081
     21 C         -27.5430    0.8490   25.0790 C.2     1  UNL1        0.2533
     22 O         -28.1930   -0.2080   24.4770 O.2     1  UNL1       -0.4558
     23 C         -29.4600    0.0050   23.8660 C.3     1  UNL1        0.2426
     24 C         -30.0650   -1.3770   23.5730 C.3     1  UNL1        0.2292
     25 O         -30.7290   -1.8780   24.7210 O.3     1  UNL1       -0.2162
     26 C         -26.3540    0.5760   25.7770 C.2     1  UNL1        0.1943
     27 F         -25.8600   -0.6810   25.7950 F       1  UNL1       -0.1992
     28 C         -26.1270    5.7707   33.8281 C.3     1  UNL1        0.0882
     29 C         -25.2012    6.1211   31.2260 C.3     1  UNL1        0.0190
     30 C         -26.1157    3.5018   31.2888 C.3     1  UNL1        0.0232
     31 C         -23.2455    1.7171   26.0752 C.2     1  UNL1        0.0455
     32 C         -24.3886    1.2830   26.8262 C.2     1  UNL1        0.0703
     33 C         -24.5001    2.1566   29.9183 C.2     1  UNL1       -0.0131
     34 C         -24.9194    4.5336   31.6704 C.3     1  UNL1        0.0214
     35 C         -25.3644    2.1108   31.3196 C.2     1  UNL1       -0.0457
     36 C         -21.8757    1.5615   26.3161 C.2     1  UNL1        0.1372
     37 C         -25.1497    4.7320   33.2820 C.3     1  UNL1        0.0738
     38 C         -22.2325    1.1154   28.8770 C.3     1  UNL1        0.0544
     39 F         -21.0748    1.8081   25.3174 F       1  UNL1       -0.2045
     40 C         -23.6455    1.1530   28.9596 C.3     1  UNL1        0.1181
     41 N         -24.5518    0.5041   27.9141 N.pl3   1  UNL1       -0.2345
     42 N         -24.5942    5.9683   33.6345 N.3     1  UNL1       -0.2715
     43 C         -24.4490    6.9274   32.3713 C.3     1  UNL1        0.0722
     44 C         -21.4237    1.2910   27.6261 C.2     1  UNL1        0.0056
@<TRIPOS>BOND
     1     2     7    1
     2     2     1    1
     3     3     2    2
     4     4     3    1
     5     4     5    2
     6     5     6    1
     7     6     7    2
     8     8     1    1
     9     8     9    1
    10     8    12    1
    11     9    35    1
    12     9    10    1
    13    10    11    1
    14    12    11    1
    15    13    32    1
    16    14    13    1
    17    14    15    1
    18    15    18    2
    19    16    17    1
    20    16    15    1
    21    19    14    2
    22    20    21    2
    23    20    19    1
    24    21    26    1
    25    22    21    1
    26    23    22    1
    27    24    23    1
    28    24    25    1
    29    26    27    1
    30    26    13    2
    31    29    34    1
    32    29    43    1
    33    30    35    1
    34    31    36    1
    35    31    32    2
    36    32    41    1
    37    33    35    2
    38    34    30    1
    39    34    37    1
    40    36    44    2
    41    37    42    1
    42    37    28    1
    43    38    40    1
    44    39    36    1
    45    40    33    1
    46    41    40    1
    47    42    43    1
    48    42    28    1
    49    44    38    1
