@<TRIPOS>MOLECULE
outputs/IAG933/test6/raw/output_9576_IAG933_linker_design_.xyz
 42 45 0 0 0
SMALL
GASTEIGER

@<TRIPOS>ATOM
      1 C         -24.8550   -1.0120   30.1430 C.3     1  UNL1        0.1152
      2 C         -24.9730   -2.5050   29.7880 C.2     1  UNL1       -0.0027
      3 C         -23.9060   -3.1730   29.1460 C.2     1  UNL1       -0.0026
      4 C         -23.9890   -4.5490   28.8530 C.2     1  UNL1       -0.0003
      5 C         -25.1370   -5.2800   29.2050 C.2     1  UNL1       -0.0000
      6 C         -26.2320   -4.6110   29.7840 C.2     1  UNL1       -0.0003
      7 C         -26.1550   -3.2320   30.0650 C.2     1  UNL1       -0.0026
      8 C         -25.3870   -0.6790   31.5710 C.3     1  UNL1        0.0954
      9 C         -25.1890    0.7730   32.0280 C.3     1  UNL1        0.0209
     10 C         -25.3360    0.6840   33.5440 C.3     1  UNL1        0.0203
     11 C         -24.8290   -0.7150   33.9050 C.3     1  UNL1        0.0888
     12 N         -24.7580   -1.4810   32.6460 N.3     1  UNL1       -0.2174
     13 C         -25.6880    1.6140   26.4610 C.3     1  UNL1        0.0754
     14 C         -26.2500    2.9200   26.3950 C.2     1  UNL1        0.0552
     15 C         -25.6420    4.0930   27.1230 C.2     1  UNL1        0.2625
     16 N         -25.6140    5.2520   26.4490 N.am    1  UNL1       -0.2000
     17 C         -25.0260    6.4790   26.9630 C.3     1  UNL1        0.1388
     18 O         -25.1430    3.9660   28.2430 O.2     1  UNL1       -0.2687
     19 C         -27.4380    3.0910   25.6450 C.2     1  UNL1        0.1021
     20 N         -28.0750    2.0890   25.0030 N.2     1  UNL1       -0.2119
     21 C         -27.5430    0.8490   25.0790 C.2     1  UNL1        0.2341
     22 O         -28.1930   -0.2080   24.4770 O.2     1  UNL1       -0.4585
     23 C         -29.4600    0.0050   23.8660 C.3     1  UNL1        0.2423
     24 C         -30.0650   -1.3770   23.5730 C.3     1  UNL1        0.2292
     25 O         -30.7290   -1.8780   24.7210 O.3     1  UNL1       -0.2162
     26 C         -26.3540    0.5760   25.7770 C.3     1  UNL1        0.2403
     27 F         -25.8600   -0.6810   25.7950 F       1  UNL1       -0.2269
     28 C         -27.5063   -0.7333   29.0061 C.2     1  UNL1        0.0787
     29 N         -32.7640   -1.7327   29.4536 N.3     1  UNL1       -0.1136
     30 C         -29.8678   -0.2918   27.6715 C.3     1  UNL1        0.1847
     31 C         -29.6170    0.2094   29.9063 C.3     1  UNL1        0.0952
     32 N         -31.2304   -0.1940   28.1817 N.3     1  UNL1       -0.1796
     33 C         -23.3041    1.8533   25.6051 C.3     1  UNL1        0.0065
     34 C         -31.6599   -0.9057   29.1804 C.3     1  UNL1        0.1672
     35 C         -24.2366    1.3799   26.8276 C.3     1  UNL1        0.0432
     36 C         -22.4529    0.7036   28.6352 C.2     1  UNL1       -0.0154
     37 C         -23.9075    0.5678   28.0538 C.2     1  UNL1        0.0249
     38 C         -30.5130   -0.9155   30.3418 C.3     1  UNL1        0.0584
     39 N         -28.9173   -0.4970   28.8216 N.pl3   1  UNL1       -0.2907
     40 C         -21.4516    1.5233   27.8370 C.3     1  UNL1        0.0317
     41 N         -25.1170    0.0643   29.1054 N.pl3   1  UNL1       -0.2850
     42 C         -26.5237    0.1131   28.6305 C.2     1  UNL1        0.0814
@<TRIPOS>BOND
     1     1    41    1
     2     2     7    1
     3     2     1    1
     4     3     2    2
     5     4     3    1
     6     4     5    2
     7     5     6    1
     8     6     7    2
     9     8     1    1
    10     8     9    1
    11     8    12    1
    12     9    10    1
    13    10    11    1
    14    12    11    1
    15    13    35    1
    16    14    13    1
    17    14    15    1
    18    15    18    2
    19    16    17    1
    20    16    15    1
    21    19    14    2
    22    20    21    2
    23    20    19    1
    24    21    26    1
    25    22    21    1
    26    23    22    1
    27    24    23    1
    28    24    25    1
    29    26    27    1
    30    26    13    1
    31    30    32    1
    32    30    39    1
    33    31    38    1
    34    32    34    1
    35    34    29    1
    36    34    38    1
    37    35    33    1
    38    35    37    1
    39    37    36    2
    40    37    41    1
    41    39    28    1
    42    39    31    1
    43    40    36    1
    44    42    28    2
    45    42    41    1
