@<TRIPOS>MOLECULE
No_958-gen_results/8p0m/2024-11-27-11-27-31/
 24 26 0 0 0
SMALL
GASTEIGER

@<TRIPOS>ATOM
      1 C         -28.0162   -0.8135   28.8779 C.ar    1  UNL1        0.0042
      2 C         -28.4690   -0.7850   29.8287 C.ar    1  UNL1        0.0536
      3 C         -26.5042   -0.7777   28.8766 C.ar    1  UNL1       -0.0041
      4 C         -25.8103   -0.8531   30.1028 C.ar    1  UNL1       -0.0223
      5 C         -27.9906   -0.8916   31.2257 C.ar    1  UNL1        0.0042
      6 C         -26.6042   -0.8676   31.2652 C.ar    1  UNL1       -0.0041
      7 C         -24.3894   -0.8049   30.1638 C.3     1  UNL1        0.0291
      8 C         -23.8172    0.4762   29.9118 C.3     1  UNL1        0.1071
      9 C         -22.5010    0.5449   29.4097 C.3     1  UNL1        0.0116
     10 C         -21.7696   -0.6524   29.2129 C.3     1  UNL1        0.0006
     11 C         -23.6939   -1.8206   29.2518 C.3     1  UNL1        0.0046
     12 C         -22.3030   -1.7892   29.1620 C.3     1  UNL1        0.0004
     13 C         -23.8494   -1.2378   31.6696 C.3     1  UNL1        0.0049
     14 C         -24.4424    1.7398   30.3523 C.2     1  UNL1        0.3646
     15 O         -24.9066    2.4865   29.4366 O.co2   1  UNL1       -0.2457
     16 O         -24.7867    1.8824   31.6856 O.co2   1  UNL1       -0.2457
     17 C         -30.0769   -0.8418   29.8013 C.2     1  UNL1        0.2490
     18 O         -30.4995   -0.3992   28.8414 O.2     1  UNL1       -0.2699
     19 N         -30.7730   -1.3231   30.8334 N.am    1  UNL1       -0.2761
     20 C         -32.2106   -1.3880   30.7660 C.3     1  UNL1        0.0937
     21 C         -32.8412   -2.0532   31.4352 C.3     1  UNL1        0.0216
     22 C         -32.2290   -2.7747   32.5777 C.3     1  UNL1        0.0035
     23 C         -30.8172   -2.8054   32.6978 C.3     1  UNL1        0.0216
     24 C         -30.1094   -2.1862   31.7854 C.3     1  UNL1        0.0937
@<TRIPOS>BOND
     1     4     7    1
     2     7     8    1
     3     9    10    1
     4     7    11    1
     5    10    12    1
     6    11    12    1
     7     7    13    1
     8     8    14    1
     9    14    15   ar
    10    14    16   ar
    11     2    17    1
    12    17    18    2
    13    17    19   am
    14    19    20    1
    15    21    22    1
    16    19    24    1
    17    23    24    1
    18    20    21    1
    19    22    23    1
    20     8     9    1
    21     1     2   ar
    22     2     5   ar
    23     5     6   ar
    24     6     4   ar
    25     4     3   ar
    26     3     1   ar
