@<TRIPOS>MOLECULE
outputs/IAG933/test6/raw/output_9587_IAG933_linker_design_.xyz
 42 45 0 0 0
SMALL
GASTEIGER

@<TRIPOS>ATOM
      1 C         -24.8550   -1.0120   30.1430 C.3     1  UNL1        0.0680
      2 C         -24.9730   -2.5050   29.7880 C.2     1  UNL1       -0.0190
      3 C         -23.9060   -3.1730   29.1460 C.2     1  UNL1       -0.0042
      4 C         -23.9890   -4.5490   28.8530 C.2     1  UNL1       -0.0003
      5 C         -25.1370   -5.2800   29.2050 C.2     1  UNL1       -0.0000
      6 C         -26.2320   -4.6110   29.7840 C.2     1  UNL1       -0.0003
      7 C         -26.1550   -3.2320   30.0650 C.2     1  UNL1       -0.0042
      8 C         -25.3870   -0.6790   31.5710 C.3     1  UNL1        0.0790
      9 C         -25.1890    0.7730   32.0280 C.3     1  UNL1        0.0193
     10 C         -25.3360    0.6840   33.5440 C.3     1  UNL1        0.0202
     11 C         -24.8290   -0.7150   33.9050 C.3     1  UNL1        0.0887
     12 N         -24.7580   -1.4810   32.6460 N.3     1  UNL1       -0.2191
     13 C         -25.6880    1.6140   26.4610 C.2     1  UNL1        0.0251
     14 C         -26.2500    2.9200   26.3950 C.2     1  UNL1        0.0731
     15 C         -25.6420    4.0930   27.1230 C.2     1  UNL1        0.2661
     16 N         -25.6140    5.2520   26.4490 N.am    1  UNL1       -0.1997
     17 C         -25.0260    6.4790   26.9630 C.3     1  UNL1        0.1388
     18 O         -25.1430    3.9660   28.2430 O.2     1  UNL1       -0.2683
     19 C         -27.4380    3.0910   25.6450 C.2     1  UNL1        0.1064
     20 N         -28.0750    2.0890   25.0030 N.2     1  UNL1       -0.2081
     21 C         -27.5430    0.8490   25.0790 C.2     1  UNL1        0.2530
     22 O         -28.1930   -0.2080   24.4770 O.2     1  UNL1       -0.4558
     23 C         -29.4600    0.0050   23.8660 C.3     1  UNL1        0.2426
     24 C         -30.0650   -1.3770   23.5730 C.3     1  UNL1        0.2292
     25 O         -30.7290   -1.8780   24.7210 O.3     1  UNL1       -0.2162
     26 C         -26.3540    0.5760   25.7770 C.2     1  UNL1        0.1896
     27 F         -25.8600   -0.6810   25.7950 F       1  UNL1       -0.1996
     28 C         -27.5849    0.1322   29.1116 C.2     1  UNL1        0.4633
     29 O         -22.4599   -0.2330   29.1430 O.co2   1  UNL1       -0.2438
     30 O         -28.5092    0.3939   29.9534 O.co2   1  UNL1       -0.2207
     31 N         -26.3249    0.7316   29.2092 N.am    1  UNL1       -0.1570
     32 C         -22.0162    1.5998   27.0453 C.2     1  UNL1        0.3166
     33 C         -23.3973    1.4568   26.7784 C.2     1  UNL1        0.1889
     34 F         -21.1903    1.3045   28.0037 F       1  UNL1       -0.1602
     35 C         -24.6340    1.1867   27.3287 C.3     1  UNL1        0.1165
     36 C         -23.4885    0.6439   29.2231 C.2     1  UNL1        0.3833
     37 C         -22.2537    2.1814   24.8993 C.3     1  UNL1        0.4307
     38 O         -23.2944    1.6413   29.6647 O.co2   1  UNL1       -0.2438
     39 O         -23.4409    1.7498   25.5285 O.2     1  UNL1       -0.4362
     40 O         -21.3546    2.0758   25.8921 O.2     1  UNL1       -0.4115
     41 C         -24.9664    0.1755   28.8021 C.3     1  UNL1        0.1902
     42 O         -27.7421   -0.6502   28.1313 O.co2   1  UNL1       -0.2207
@<TRIPOS>BOND
     1     1    41    1
     2     2     7    1
     3     2     1    1
     4     3     2    2
     5     4     3    1
     6     4     5    2
     7     5     6    1
     8     6     7    2
     9     8     1    1
    10     8     9    1
    11     8    12    1
    12     9    10    1
    13    10    11    1
    14    12    11    1
    15    13    35    1
    16    14    13    1
    17    14    15    1
    18    15    18    2
    19    16    17    1
    20    16    15    1
    21    19    14    2
    22    20    21    2
    23    20    19    1
    24    21    26    1
    25    22    21    1
    26    23    22    1
    27    24    23    1
    28    24    25    1
    29    26    27    1
    30    26    13    2
    31    28    31    1
    32    28    30   ar
    33    29    36   ar
    34    32    34    1
    35    33    32    2
    36    33    35    1
    37    35    41    1
    38    36    38   ar
    39    37    39    1
    40    37    40    1
    41    39    33    1
    42    40    32    1
    43    41    31    1
    44    41    36    1
    45    42    28   ar
