@<TRIPOS>MOLECULE
No_959-gen_results/8p0m/2024-11-27-11-27-31/
 19 20 0 0 0
SMALL
GASTEIGER

@<TRIPOS>ATOM
      1 C         -28.0162   -0.8135   28.8779 C.2     1  UNL1        0.2490
      2 C         -27.0636   -0.1189   28.6079 C.ar    1  UNL1        0.0536
      3 C         -26.9287    1.1713   29.0083 C.ar    1  UNL1        0.0046
      4 C         -25.7702    2.0341   28.6884 C.ar    1  UNL1        0.0014
      5 C         -24.7141    1.4431   27.9188 C.ar    1  UNL1        0.0153
      6 C         -24.8590    0.0783   27.5836 C.ar    1  UNL1        0.0014
      7 C         -25.9647   -0.6606   27.9164 C.ar    1  UNL1        0.0046
      8 N         -27.9821   -1.6367   30.0748 N.am    1  UNL1       -0.2756
      9 O         -29.0318   -0.7819   28.3705 O.2     1  UNL1       -0.2699
     10 C         -29.0339   -2.5382   30.5034 C.3     1  UNL1        0.0937
     11 C         -26.7209   -1.7414   30.8926 C.3     1  UNL1        0.1014
     12 C         -23.5122    2.1530   27.5436 C.2     1  UNL1        0.0809
     13 N         -22.3533    2.2536   27.8163 N.2     1  UNL1       -0.1527
     14 C         -23.8201    2.9922   26.2575 C.3     1  UNL1        0.0540
     15 C         -29.4776   -2.2865   31.8159 C.3     1  UNL1        0.0220
     16 C         -28.8664   -1.1713   32.3975 C.3     1  UNL1        0.0113
     17 C         -27.3617   -1.2021   32.4297 C.3     1  UNL1        0.0847
     18 C         -26.4613   -0.5851   33.2388 C.2     1  UNL1        0.2087
     19 O         -26.6014   -0.7232   34.3349 O.2     1  UNL1       -0.2882
@<TRIPOS>BOND
     1     1     2    1
     2     1     8   am
     3     1     9    2
     4     8    10    1
     5     8    11    1
     6     5    12    1
     7    12    13    2
     8    12    14    1
     9    10    15    1
    10    15    16    1
    11    11    17    1
    12    16    17    1
    13    17    18    1
    14    18    19    2
    15     2     3   ar
    16     3     4   ar
    17     4     5   ar
    18     5     6   ar
    19     6     7   ar
    20     7     2   ar
