@<TRIPOS>MOLECULE
outputs/IAG933/test6/raw/output_9591_IAG933_linker_design_.xyz
 43 47 0 0 0
SMALL
GASTEIGER

@<TRIPOS>ATOM
      1 C         -24.8550   -1.0120   30.1430 C.3     1  UNL1        0.0586
      2 C         -24.9730   -2.5050   29.7880 C.2     1  UNL1       -0.0195
      3 C         -23.9060   -3.1730   29.1460 C.2     1  UNL1       -0.0042
      4 C         -23.9890   -4.5490   28.8530 C.2     1  UNL1       -0.0003
      5 C         -25.1370   -5.2800   29.2050 C.2     1  UNL1       -0.0000
      6 C         -26.2320   -4.6110   29.7840 C.2     1  UNL1       -0.0003
      7 C         -26.1550   -3.2320   30.0650 C.2     1  UNL1       -0.0042
      8 C         -25.3870   -0.6790   31.5710 C.3     1  UNL1        0.0785
      9 C         -25.1890    0.7730   32.0280 C.3     1  UNL1        0.0192
     10 C         -25.3360    0.6840   33.5440 C.3     1  UNL1        0.0202
     11 C         -24.8290   -0.7150   33.9050 C.3     1  UNL1        0.0887
     12 N         -24.7580   -1.4810   32.6460 N.3     1  UNL1       -0.2191
     13 C         -25.6880    1.6140   26.4610 C.2     1  UNL1        0.0387
     14 C         -26.2500    2.9200   26.3950 C.2     1  UNL1        0.0766
     15 C         -25.6420    4.0930   27.1230 C.2     1  UNL1        0.2664
     16 N         -25.6140    5.2520   26.4490 N.am    1  UNL1       -0.1997
     17 C         -25.0260    6.4790   26.9630 C.3     1  UNL1        0.1388
     18 O         -25.1430    3.9660   28.2430 O.2     1  UNL1       -0.2683
     19 C         -27.4380    3.0910   25.6450 C.2     1  UNL1        0.1067
     20 N         -28.0750    2.0890   25.0030 N.2     1  UNL1       -0.2081
     21 C         -27.5430    0.8490   25.0790 C.2     1  UNL1        0.2533
     22 O         -28.1930   -0.2080   24.4770 O.2     1  UNL1       -0.4558
     23 C         -29.4600    0.0050   23.8660 C.3     1  UNL1        0.2426
     24 C         -30.0650   -1.3770   23.5730 C.3     1  UNL1        0.2292
     25 O         -30.7290   -1.8780   24.7210 O.3     1  UNL1       -0.2162
     26 C         -26.3540    0.5760   25.7770 C.2     1  UNL1        0.1931
     27 F         -25.8600   -0.6810   25.7950 F       1  UNL1       -0.1992
     28 C         -22.8121    0.3242   28.8474 C.2     1  UNL1        0.1931
     29 N         -26.4226    0.9959   28.8544 N.3     1  UNL1       -0.2125
     30 C         -28.3943    1.4081   30.3579 C.3     1  UNL1        0.0776
     31 O         -29.5471   -0.7199   27.8384 O.3     1  UNL1       -0.2207
     32 C         -29.6800    1.6693   28.1396 C.3     1  UNL1        0.0919
     33 C         -28.7808    0.5059   27.9241 C.3     1  UNL1        0.1794
     34 C         -25.3357    0.0082   29.0043 C.3     1  UNL1        0.1034
     35 C         -23.0484    1.7243   26.3504 C.2     1  UNL1        0.0577
     36 O         -22.5391   -0.3398   29.9874 O.2     1  UNL1       -0.2869
     37 CL        -23.0298    2.3400   24.7635 Cl      1  UNL1       -0.0823
     38 C         -27.8041    0.6275   29.1635 C.3     1  UNL1        0.1150
     39 S         -30.0197    1.7169   29.7417 S.3     1  UNL1       -0.1360
     40 C         -24.1328    0.5448   28.2958 C.2     1  UNL1        0.0337
     41 C         -21.6450    0.8586   28.2213 C.2     1  UNL1        0.0426
     42 C         -21.7970    1.5883   26.9909 C.2     1  UNL1        0.0147
     43 C         -24.2991    1.3370   27.0475 C.2     1  UNL1        0.0135
@<TRIPOS>BOND
     1     1    34    1
     2     2     7    1
     3     2     1    1
     4     3     2    2
     5     4     3    1
     6     4     5    2
     7     5     6    1
     8     6     7    2
     9     8     1    1
    10     8     9    1
    11     8    12    1
    12     9    10    1
    13    10    11    1
    14    12    11    1
    15    13    43    1
    16    14    13    1
    17    14    15    1
    18    15    18    2
    19    16    17    1
    20    16    15    1
    21    19    14    2
    22    20    21    2
    23    20    19    1
    24    21    26    1
    25    22    21    1
    26    23    22    1
    27    24    23    1
    28    24    25    1
    29    26    27    1
    30    26    13    2
    31    28    36    1
    32    32    39    1
    33    33    31    1
    34    33    32    1
    35    33    38    1
    36    34    29    1
    37    35    42    2
    38    35    43    1
    39    37    35    1
    40    38    29    1
    41    38    30    1
    42    39    30    1
    43    40    28    1
    44    40    34    1
    45    41    28    2
    46    42    41    1
    47    43    40    2
