@<TRIPOS>MOLECULE
outputs/IAG933/test6/raw/output_9597_IAG933_linker_design_.xyz
 48 53 0 0 0
SMALL
GASTEIGER

@<TRIPOS>ATOM
      1 C         -24.8550   -1.0120   30.1430 C.3     1  UNL1        0.0826
      2 C         -24.9730   -2.5050   29.7880 C.2     1  UNL1       -0.0173
      3 C         -23.9060   -3.1730   29.1460 C.2     1  UNL1       -0.0041
      4 C         -23.9890   -4.5490   28.8530 C.2     1  UNL1       -0.0003
      5 C         -25.1370   -5.2800   29.2050 C.2     1  UNL1       -0.0000
      6 C         -26.2320   -4.6110   29.7840 C.2     1  UNL1       -0.0003
      7 C         -26.1550   -3.2320   30.0650 C.2     1  UNL1       -0.0041
      8 C         -25.3870   -0.6790   31.5710 C.3     1  UNL1        0.0806
      9 C         -25.1890    0.7730   32.0280 C.3     1  UNL1        0.0193
     10 C         -25.3360    0.6840   33.5440 C.3     1  UNL1        0.0202
     11 C         -24.8290   -0.7150   33.9050 C.3     1  UNL1        0.0887
     12 N         -24.7580   -1.4810   32.6460 N.3     1  UNL1       -0.2190
     13 C         -25.6880    1.6140   26.4610 C.2     1  UNL1        0.0380
     14 C         -26.2500    2.9200   26.3950 C.2     1  UNL1        0.0765
     15 C         -25.6420    4.0930   27.1230 C.2     1  UNL1        0.2664
     16 N         -25.6140    5.2520   26.4490 N.am    1  UNL1       -0.1997
     17 C         -25.0260    6.4790   26.9630 C.3     1  UNL1        0.1388
     18 O         -25.1430    3.9660   28.2430 O.2     1  UNL1       -0.2683
     19 C         -27.4380    3.0910   25.6450 C.2     1  UNL1        0.1067
     20 N         -28.0750    2.0890   25.0030 N.2     1  UNL1       -0.2081
     21 C         -27.5430    0.8490   25.0790 C.2     1  UNL1        0.2533
     22 O         -28.1930   -0.2080   24.4770 O.2     1  UNL1       -0.4558
     23 C         -29.4600    0.0050   23.8660 C.3     1  UNL1        0.2426
     24 C         -30.0650   -1.3770   23.5730 C.3     1  UNL1        0.2292
     25 O         -30.7290   -1.8780   24.7210 O.3     1  UNL1       -0.2162
     26 C         -26.3540    0.5760   25.7770 C.2     1  UNL1        0.1930
     27 F         -25.8600   -0.6810   25.7950 F       1  UNL1       -0.1992
     28 N         -30.0862    3.9250   29.1137 N.am    1  UNL1       -0.2586
     29 C         -30.9278    5.9728   29.9637 C.3     1  UNL1        0.0315
     30 C         -30.2825    6.2192   28.6062 C.3     1  UNL1        0.0874
     31 C         -23.1460    0.7595   28.8726 C.2     1  UNL1        0.0015
     32 C         -27.6612    0.6723   29.0119 C.2     1  UNL1        0.1390
     33 C         -29.4777    2.7147   29.2041 C.2     1  UNL1        0.0540
     34 C         -23.5376    1.7133   26.2673 C.2     1  UNL1        0.0295
     35 O         -28.8196    4.5767   27.4581 O.2     1  UNL1       -0.2745
     36 C         -28.8416    0.5901   28.2710 C.2     1  UNL1        0.0382
     37 C         -29.6602    4.9000   28.2557 C.2     1  UNL1        0.2294
     38 F         -21.3029    2.2033   26.0943 F       1  UNL1       -0.2042
     39 C         -22.0671    1.2218   28.1182 C.2     1  UNL1        0.0294
     40 C         -24.4138    0.6697   28.3147 C.2     1  UNL1        0.0178
     41 C         -22.3075    1.6674   26.8400 C.2     1  UNL1        0.1401
     42 C         -25.3464   -0.1240   29.0984 C.3     1  UNL1        0.1934
     43 C         -29.7735    1.6210   28.4001 C.2     1  UNL1        0.0180
     44 O         -26.7011   -0.1991   28.7973 O.2     1  UNL1       -0.4744
     45 C         -27.4076    1.7034   29.8403 C.2     1  UNL1        0.0382
     46 C         -24.5987    1.2875   27.0457 C.2     1  UNL1        0.0041
     47 C         -28.3827    2.6664   30.0263 C.2     1  UNL1        0.0180
     48 C         -31.0294    4.4544   30.1001 C.3     1  UNL1        0.0987
@<TRIPOS>BOND
     1     1    42    1
     2     2     7    1
     3     2     1    1
     4     3     2    2
     5     4     3    1
     6     4     5    2
     7     5     6    1
     8     6     7    2
     9     8     1    1
    10     8     9    1
    11     8    12    1
    12     9    10    1
    13    10    11    1
    14    12    11    1
    15    13    46    1
    16    14    13    1
    17    14    15    1
    18    15    18    2
    19    16    17    1
    20    16    15    1
    21    19    14    2
    22    20    21    2
    23    20    19    1
    24    21    26    1
    25    22    21    1
    26    23    22    1
    27    24    23    1
    28    24    25    1
    29    26    27    1
    30    26    13    2
    31    28    33    1
    32    28    48    1
    33    29    48    1
    34    30    29    1
    35    32    45    1
    36    33    47    1
    37    34    41    2
    38    34    46    1
    39    35    37    2
    40    36    43    1
    41    36    32    2
    42    37    30    1
    43    37    28   am
    44    38    41    1
    45    39    31    2
    46    40    31    1
    47    40    42    1
    48    41    39    1
    49    42    44    1
    50    43    33    2
    51    44    32    1
    52    45    47    2
    53    46    40    2
