@<TRIPOS>MOLECULE
outputs/IAG933/test6/raw/output_9599_IAG933_linker_design_.xyz
 46 51 0 0 0
SMALL
GASTEIGER

@<TRIPOS>ATOM
      1 C         -24.8550   -1.0120   30.1430 C.3     1  UNL1        0.0384
      2 C         -24.9730   -2.5050   29.7880 C.2     1  UNL1       -0.0212
      3 C         -23.9060   -3.1730   29.1460 C.2     1  UNL1       -0.0042
      4 C         -23.9890   -4.5490   28.8530 C.2     1  UNL1       -0.0003
      5 C         -25.1370   -5.2800   29.2050 C.2     1  UNL1       -0.0000
      6 C         -26.2320   -4.6110   29.7840 C.2     1  UNL1       -0.0003
      7 C         -26.1550   -3.2320   30.0650 C.2     1  UNL1       -0.0042
      8 C         -25.3870   -0.6790   31.5710 C.3     1  UNL1        0.0768
      9 C         -25.1890    0.7730   32.0280 C.3     1  UNL1        0.0192
     10 C         -25.3360    0.6840   33.5440 C.3     1  UNL1        0.0202
     11 C         -24.8290   -0.7150   33.9050 C.3     1  UNL1        0.0887
     12 N         -24.7580   -1.4810   32.6460 N.3     1  UNL1       -0.2191
     13 C         -25.6880    1.6140   26.4610 C.2     1  UNL1        0.0156
     14 C         -26.2500    2.9200   26.3950 C.2     1  UNL1        0.0726
     15 C         -25.6420    4.0930   27.1230 C.2     1  UNL1        0.2661
     16 N         -25.6140    5.2520   26.4490 N.am    1  UNL1       -0.1997
     17 C         -25.0260    6.4790   26.9630 C.3     1  UNL1        0.1388
     18 O         -25.1430    3.9660   28.2430 O.2     1  UNL1       -0.2683
     19 C         -27.4380    3.0910   25.6450 C.2     1  UNL1        0.1064
     20 N         -28.0750    2.0890   25.0030 N.2     1  UNL1       -0.2081
     21 C         -27.5430    0.8490   25.0790 C.2     1  UNL1        0.2530
     22 O         -28.1930   -0.2080   24.4770 O.2     1  UNL1       -0.4558
     23 C         -29.4600    0.0050   23.8660 C.3     1  UNL1        0.2426
     24 C         -30.0650   -1.3770   23.5730 C.3     1  UNL1        0.2292
     25 O         -30.7290   -1.8780   24.7210 O.3     1  UNL1       -0.2162
     26 C         -26.3540    0.5760   25.7770 C.2     1  UNL1        0.1891
     27 F         -25.8600   -0.6810   25.7950 F       1  UNL1       -0.1996
     28 C         -27.8219    2.8728   30.7545 C.2     1  UNL1        0.0646
     29 O         -27.9679    4.7846   32.5068 O.2     1  UNL1       -0.4714
     30 C         -22.3772    0.2832   28.2612 C.3     1  UNL1        0.1523
     31 C         -29.7892    3.2382   33.1473 C.3     1  UNL1        0.0687
     32 C         -21.9631    1.4763   27.5464 C.3     1  UNL1        0.0332
     33 C         -27.2941    1.7577   29.7559 C.3     1  UNL1        0.0711
     34 C         -29.6687    1.8589   29.6702 C.3     1  UNL1        0.1240
     35 C         -29.6944    2.1535   32.1735 C.3     1  UNL1        0.0945
     36 N         -29.0971    2.4706   30.8912 N.pl3   1  UNL1       -0.3058
     37 C         -26.1278    1.4011   29.3424 C.3     1  UNL1        0.0088
     38 C         -24.3205    1.1793   26.9456 C.3     1  UNL1        0.0274
     39 C         -28.5496    4.0896   33.6329 C.3     1  UNL1        0.2074
     40 C         -28.5622    0.8534   29.7453 C.3     1  UNL1        0.1769
     41 C         -27.3322    3.8002   31.5569 C.2     1  UNL1        0.1822
     42 O         -22.1421   -0.1170   29.6123 O.3     1  UNL1       -0.2231
     43 C         -23.9959    0.6950   28.3661 C.3     1  UNL1        0.0349
     44 C         -23.1233    1.8487   26.4320 C.3     1  UNL1        0.0071
     45 C         -25.2626    0.1955   29.0883 C.3     1  UNL1        0.0086
     46 O         -28.1771   -0.2655   30.3792 O.3     1  UNL1       -0.2209
@<TRIPOS>BOND
     1     1    45    1
     2     2     7    1
     3     2     1    1
     4     3     2    2
     5     4     3    1
     6     4     5    2
     7     5     6    1
     8     6     7    2
     9     8     1    1
    10     8     9    1
    11     8    12    1
    12     9    10    1
    13    10    11    1
    14    12    11    1
    15    14    13    1
    16    14    15    1
    17    15    18    2
    18    16    17    1
    19    16    15    1
    20    19    14    2
    21    20    21    2
    22    20    19    1
    23    21    26    1
    24    22    21    1
    25    23    22    1
    26    24    23    1
    27    24    25    1
    28    26    27    1
    29    26    13    2
    30    28    36    1
    31    28    41    2
    32    29    39    1
    33    30    43    1
    34    30    42    1
    35    31    39    1
    36    32    30    1
    37    33    37    1
    38    33    28    1
    39    34    40    1
    40    34    36    1
    41    35    31    1
    42    36    35    1
    43    38    13    1
    44    38    43    1
    45    40    33    1
    46    40    46    1
    47    41    29    1
    48    43    45    1
    49    44    38    1
    50    44    32    1
    51    45    37    1
