@<TRIPOS>MOLECULE
No_960-gen_results/8p0m/2024-11-27-11-27-31/
 11 11 0 0 0
SMALL
GASTEIGER

@<TRIPOS>ATOM
      1 C         -28.0162   -0.8135   28.8779 C.3     1  UNL1        0.0044
      2 C         -28.4690   -0.7850   29.8287 C.3     1  UNL1        0.0007
      3 C         -27.0871    0.2903   28.6377 C.3     1  UNL1        0.0220
      4 C         -26.0238    0.3644   29.2526 C.2     1  UNL1       -0.0442
      5 C         -24.9536    1.2658   28.9526 C.2     1  UNL1       -0.0085
      6 C         -27.5327   -0.7046   31.0831 C.3     1  UNL1        0.0044
      7 C         -26.3981    0.1684   30.7584 C.3     1  UNL1        0.0220
      8 C         -23.9909    1.4113   29.4294 C.2     1  UNL1       -0.0006
      9 C         -22.7851    1.6447   28.9048 C.2     1  UNL1       -0.0000
     10 C         -22.6704    1.9443   27.5227 C.2     1  UNL1       -0.0000
     11 C         -23.8339    1.8944   26.7824 C.2     1  UNL1       -0.0000
@<TRIPOS>BOND
     1     1     2    1
     2     1     3    1
     3     3     4    1
     4     4     5    2
     5     2     6    1
     6     4     7    1
     7     6     7    1
     8     5     8    1
     9     8     9    2
    10     9    10    1
    11    10    11    2
