@<TRIPOS>MOLECULE
outputs/IAG933/test6/raw/output_9600_IAG933_linker_design_.xyz
 42 46 0 0 0
SMALL
GASTEIGER

@<TRIPOS>ATOM
      1 C         -24.8550   -1.0120   30.1430 C.3     1  UNL1        0.0403
      2 C         -24.9730   -2.5050   29.7880 C.2     1  UNL1       -0.0211
      3 C         -23.9060   -3.1730   29.1460 C.2     1  UNL1       -0.0042
      4 C         -23.9890   -4.5490   28.8530 C.2     1  UNL1       -0.0003
      5 C         -25.1370   -5.2800   29.2050 C.2     1  UNL1       -0.0000
      6 C         -26.2320   -4.6110   29.7840 C.2     1  UNL1       -0.0003
      7 C         -26.1550   -3.2320   30.0650 C.2     1  UNL1       -0.0042
      8 C         -25.3870   -0.6790   31.5710 C.3     1  UNL1        0.0769
      9 C         -25.1890    0.7730   32.0280 C.3     1  UNL1        0.0192
     10 C         -25.3360    0.6840   33.5440 C.3     1  UNL1        0.0202
     11 C         -24.8290   -0.7150   33.9050 C.3     1  UNL1        0.0887
     12 N         -24.7580   -1.4810   32.6460 N.3     1  UNL1       -0.2191
     13 C         -25.6880    1.6140   26.4610 C.3     1  UNL1        0.0918
     14 C         -26.2500    2.9200   26.3950 C.2     1  UNL1        0.0589
     15 C         -25.6420    4.0930   27.1230 C.2     1  UNL1        0.2628
     16 N         -25.6140    5.2520   26.4490 N.am    1  UNL1       -0.2000
     17 C         -25.0260    6.4790   26.9630 C.3     1  UNL1        0.1388
     18 O         -25.1430    3.9660   28.2430 O.2     1  UNL1       -0.2686
     19 C         -27.4380    3.0910   25.6450 C.2     1  UNL1        0.1025
     20 N         -28.0750    2.0890   25.0030 N.2     1  UNL1       -0.2118
     21 C         -27.5430    0.8490   25.0790 C.2     1  UNL1        0.2344
     22 O         -28.1930   -0.2080   24.4770 O.2     1  UNL1       -0.4585
     23 C         -29.4600    0.0050   23.8660 C.3     1  UNL1        0.2423
     24 C         -30.0650   -1.3770   23.5730 C.3     1  UNL1        0.2292
     25 O         -30.7290   -1.8780   24.7210 O.3     1  UNL1       -0.2162
     26 C         -26.3540    0.5760   25.7770 C.3     1  UNL1        0.2440
     27 F         -25.8600   -0.6810   25.7950 F       1  UNL1       -0.2265
     28 C         -21.3212    1.7065   27.5474 C.2     1  UNL1       -0.0217
     29 C         -23.7658    1.4326   27.8811 C.2     1  UNL1       -0.0256
     30 C         -28.5981   -0.1145   28.2863 C.3     1  UNL1        0.0311
     31 C         -23.5222    1.9767   25.4852 C.2     1  UNL1       -0.0044
     32 C         -22.2038    2.1605   25.3106 C.2     1  UNL1       -0.0007
     33 C         -24.8065    1.1064   28.9491 C.3     1  UNL1        0.0943
     34 C         -27.1436   -0.5342   28.5358 C.3     1  UNL1        0.0941
     35 C         -21.1933    1.9891   26.2240 C.2     1  UNL1       -0.0043
     36 C         -27.3040    1.6040   29.2783 C.2     1  UNL1        0.2259
     37 O         -27.0515    2.3039   30.2091 O.2     1  UNL1       -0.2749
     38 C         -28.7191    1.3069   28.8367 C.3     1  UNL1        0.0870
     39 C         -22.4635    1.5032   28.2500 C.3     1  UNL1        0.0493
     40 N         -26.2963    0.7574   28.6790 N.am    1  UNL1       -0.2777
     41 C         -23.9923   -0.0433   29.5330 C.3     1  UNL1        0.0298
     42 C         -24.2670    1.6610   26.6306 C.2     1  UNL1       -0.0211
@<TRIPOS>BOND
     1     1    41    1
     2     2     7    1
     3     2     1    1
     4     3     2    2
     5     4     3    1
     6     4     5    2
     7     5     6    1
     8     6     7    2
     9     8     1    1
    10     8     9    1
    11     8    12    1
    12     9    10    1
    13    10    11    1
    14    12    11    1
    15    13    42    1
    16    14    13    1
    17    14    15    1
    18    15    18    2
    19    16    17    1
    20    16    15    1
    21    19    14    2
    22    20    21    2
    23    20    19    1
    24    21    26    1
    25    22    21    1
    26    23    22    1
    27    24    23    1
    28    24    25    1
    29    26    27    1
    30    26    13    1
    31    28    39    1
    32    29    39    1
    33    29    33    1
    34    30    34    1
    35    30    38    1
    36    31    42    1
    37    32    31    2
    38    32    35    1
    39    33    41    1
    40    34    40    1
    41    35    28    2
    42    36    37    2
    43    38    36    1
    44    40    33    1
    45    40    36   am
    46    42    29    2
