@<TRIPOS>MOLECULE
outputs/IAG933/test6/raw/output_9603_IAG933_linker_design_.xyz
 51 57 0 0 0
SMALL
GASTEIGER

@<TRIPOS>ATOM
      1 C         -24.8550   -1.0120   30.1430 C.3     1  UNL1        0.0530
      2 C         -24.9730   -2.5050   29.7880 C.2     1  UNL1       -0.0198
      3 C         -23.9060   -3.1730   29.1460 C.2     1  UNL1       -0.0042
      4 C         -23.9890   -4.5490   28.8530 C.2     1  UNL1       -0.0003
      5 C         -25.1370   -5.2800   29.2050 C.2     1  UNL1       -0.0000
      6 C         -26.2320   -4.6110   29.7840 C.2     1  UNL1       -0.0003
      7 C         -26.1550   -3.2320   30.0650 C.2     1  UNL1       -0.0042
      8 C         -25.3870   -0.6790   31.5710 C.3     1  UNL1        0.0781
      9 C         -25.1890    0.7730   32.0280 C.3     1  UNL1        0.0192
     10 C         -25.3360    0.6840   33.5440 C.3     1  UNL1        0.0202
     11 C         -24.8290   -0.7150   33.9050 C.3     1  UNL1        0.0887
     12 N         -24.7580   -1.4810   32.6460 N.3     1  UNL1       -0.2191
     13 C         -25.6880    1.6140   26.4610 C.2     1  UNL1        0.0303
     14 C         -26.2500    2.9200   26.3950 C.2     1  UNL1        0.0738
     15 C         -25.6420    4.0930   27.1230 C.2     1  UNL1        0.2662
     16 N         -25.6140    5.2520   26.4490 N.am    1  UNL1       -0.1997
     17 C         -25.0260    6.4790   26.9630 C.3     1  UNL1        0.1388
     18 O         -25.1430    3.9660   28.2430 O.2     1  UNL1       -0.2683
     19 C         -27.4380    3.0910   25.6450 C.2     1  UNL1        0.1065
     20 N         -28.0750    2.0890   25.0030 N.2     1  UNL1       -0.2081
     21 C         -27.5430    0.8490   25.0790 C.2     1  UNL1        0.2530
     22 O         -28.1930   -0.2080   24.4770 O.2     1  UNL1       -0.4558
     23 C         -29.4600    0.0050   23.8660 C.3     1  UNL1        0.2426
     24 C         -30.0650   -1.3770   23.5730 C.3     1  UNL1        0.2292
     25 O         -30.7290   -1.8780   24.7210 O.3     1  UNL1       -0.2162
     26 C         -26.3540    0.5760   25.7770 C.2     1  UNL1        0.1904
     27 F         -25.8600   -0.6810   25.7950 F       1  UNL1       -0.1995
     28 C         -29.4251    2.3840   29.2205 C.3     1  UNL1        0.0855
     29 O         -34.0848    2.4599   28.6154 O.3     1  UNL1       -0.1143
     30 C         -24.4344    1.5828   27.3960 C.3     1  UNL1        0.0827
     31 C         -34.1031    0.8538   25.8121 C.3     1  UNL1        0.2308
     32 N         -33.0022    1.8283   27.9385 N.3     1  UNL1       -0.0875
     33 C         -29.6922    0.2014   28.1495 C.3     1  UNL1        0.0340
     34 C         -29.1561    1.1830   29.2467 C.3     1  UNL1        0.0195
     35 O         -33.6289    0.1954   24.6498 O.3     1  UNL1       -0.2160
     36 C         -23.0924    1.8612   26.6914 C.3     1  UNL1        0.0220
     37 O         -31.7516    4.4001   30.2597 O.3     1  UNL1       -0.1567
     38 C         -22.0686    1.2173   27.6365 C.3     1  UNL1        0.0191
     39 C         -26.7317    0.3339   28.4764 C.3     1  UNL1        0.0164
     40 C         -27.5218    1.3714   29.3353 C.3     1  UNL1        0.0029
     41 S         -31.0231    4.3337   28.9415 S.3     1  UNL1       -0.0190
     42 C         -31.7422    5.3603   27.8413 C.3     1  UNL1        0.0958
     43 C         -30.2238    5.3102   27.7568 C.3     1  UNL1        0.0958
     44 C         -33.1056    0.9979   26.9244 C.3     1  UNL1        0.2367
     45 C         -22.7284    0.2072   28.5309 C.3     1  UNL1        0.0723
     46 C         -31.7355    1.8476   28.2624 C.3     1  UNL1        0.1854
     47 O         -31.8449    0.1721   26.7907 O.3     1  UNL1       -0.3363
     48 N         -30.9056    2.7273   28.7236 N.3     1  UNL1       -0.2051
     49 C         -30.9213    0.8721   27.4608 C.3     1  UNL1        0.1500
     50 C         -25.2970   -0.0492   29.0587 C.3     1  UNL1        0.0631
     51 N         -24.2009    0.5916   28.3567 N.3     1  UNL1       -0.2712
@<TRIPOS>BOND
     1     1    50    1
     2     2     7    1
     3     2     1    1
     4     3     2    2
     5     4     3    1
     6     4     5    2
     7     5     6    1
     8     6     7    2
     9     8     1    1
    10     8     9    1
    11     8    12    1
    12     9    10    1
    13    10    11    1
    14    12    11    1
    15    14    13    1
    16    14    15    1
    17    15    18    2
    18    16    17    1
    19    16    15    1
    20    19    14    2
    21    20    21    2
    22    20    19    1
    23    21    26    1
    24    22    21    1
    25    23    22    1
    26    24    23    1
    27    24    25    1
    28    26    27    1
    29    26    13    2
    30    28    34    1
    31    30    13    1
    32    30    51    1
    33    32    29    1
    34    33    34    1
    35    34    40    1
    36    35    31    1
    37    36    30    1
    38    36    38    1
    39    38    45    1
    40    39    40    1
    41    41    37    1
    42    42    41    1
    43    43    42    1
    44    43    41    1
    45    44    31    1
    46    44    32    1
    47    46    32    1
    48    46    48    1
    49    47    44    1
    50    47    49    1
    51    48    41    1
    52    48    28    1
    53    49    33    1
    54    49    46    1
    55    50    39    1
    56    51    45    1
    57    51    50    1
