@<TRIPOS>MOLECULE
outputs/IAG933/test6/raw/output_9604_IAG933_linker_design_.xyz
 46 50 0 0 0
SMALL
GASTEIGER

@<TRIPOS>ATOM
      1 C         -24.8550   -1.0120   30.1430 C.3     1  UNL1        0.0807
      2 C         -24.9730   -2.5050   29.7880 C.2     1  UNL1       -0.0153
      3 C         -23.9060   -3.1730   29.1460 C.2     1  UNL1       -0.0039
      4 C         -23.9890   -4.5490   28.8530 C.2     1  UNL1       -0.0003
      5 C         -25.1370   -5.2800   29.2050 C.2     1  UNL1       -0.0000
      6 C         -26.2320   -4.6110   29.7840 C.2     1  UNL1       -0.0003
      7 C         -26.1550   -3.2320   30.0650 C.2     1  UNL1       -0.0039
      8 C         -25.3870   -0.6790   31.5710 C.3     1  UNL1        0.0826
      9 C         -25.1890    0.7730   32.0280 C.3     1  UNL1        0.0196
     10 C         -25.3360    0.6840   33.5440 C.3     1  UNL1        0.0203
     11 C         -24.8290   -0.7150   33.9050 C.3     1  UNL1        0.0887
     12 N         -24.7580   -1.4810   32.6460 N.3     1  UNL1       -0.2187
     13 C         -25.6880    1.6140   26.4610 C.2     1  UNL1        0.0514
     14 C         -26.2500    2.9200   26.3950 C.2     1  UNL1        0.0777
     15 C         -25.6420    4.0930   27.1230 C.2     1  UNL1        0.2665
     16 N         -25.6140    5.2520   26.4490 N.am    1  UNL1       -0.1997
     17 C         -25.0260    6.4790   26.9630 C.3     1  UNL1        0.1388
     18 O         -25.1430    3.9660   28.2430 O.2     1  UNL1       -0.2683
     19 C         -27.4380    3.0910   25.6450 C.2     1  UNL1        0.1068
     20 N         -28.0750    2.0890   25.0030 N.2     1  UNL1       -0.2081
     21 C         -27.5430    0.8490   25.0790 C.2     1  UNL1        0.2533
     22 O         -28.1930   -0.2080   24.4770 O.2     1  UNL1       -0.4558
     23 C         -29.4600    0.0050   23.8660 C.3     1  UNL1        0.2426
     24 C         -30.0650   -1.3770   23.5730 C.3     1  UNL1        0.2292
     25 O         -30.7290   -1.8780   24.7210 O.3     1  UNL1       -0.2162
     26 C         -26.3540    0.5760   25.7770 C.2     1  UNL1        0.1942
     27 F         -25.8600   -0.6810   25.7950 F       1  UNL1       -0.1992
     28 C         -23.5919    0.1350   28.5275 C.3     1  UNL1        0.1217
     29 N         -24.5274    0.3826   28.2863 N.am    1  UNL1       -0.2808
     30 C         -32.0179   -2.1556   28.0397 C.3     1  UNL1        0.1753
     31 O         -30.4523   -0.6820   27.0821 O.3     1  UNL1       -0.2200
     32 C         -31.1220   -3.4850   29.8535 C.3     1  UNL1        0.1427
     33 C         -25.7460   -0.0854   29.2293 C.2     1  UNL1        0.0668
     34 C         -30.7182   -2.1550   30.5035 C.3     1  UNL1        0.0400
     35 C         -21.5330    1.1143   27.9746 C.2     1  UNL1       -0.0242
     36 C         -30.0388   -1.3669   29.3884 C.3     1  UNL1        0.1037
     37 O         -32.1524   -3.3419   28.8705 O.3     1  UNL1       -0.3511
     38 C         -32.0908   -1.5229   31.1170 C.3     1  UNL1        0.0031
     39 S         -27.4506    0.5497   28.7847 S.3     1  UNL1       -0.0392
     40 C         -22.0154    1.9414   26.9342 C.3     1  UNL1        0.0530
     41 C         -31.1297   -0.9371   28.3397 C.3     1  UNL1        0.1892
     42 C         -24.4419    1.2192   27.2452 C.2     1  UNL1        0.0505
     43 C         -23.3888    1.9157   26.5899 C.2     1  UNL1       -0.0065
     44 C         -22.2402    0.1486   28.6837 C.2     1  UNL1       -0.0087
     45 C         -29.0243   -0.1776   29.3908 C.2     1  UNL1        0.2058
     46 O         -29.0003    0.4709   30.6577 O.2     1  UNL1       -0.2841
@<TRIPOS>BOND
     1     1    33    1
     2     2     7    1
     3     2     1    1
     4     3     2    2
     5     4     3    1
     6     4     5    2
     7     5     6    1
     8     6     7    2
     9     8     1    1
    10     8     9    1
    11     8    12    1
    12     9    10    1
    13    10    11    1
    14    12    11    1
    15    13    42    1
    16    14    13    1
    17    14    15    1
    18    15    18    2
    19    16    17    1
    20    16    15    1
    21    19    14    2
    22    20    21    2
    23    20    19    1
    24    21    26    1
    25    22    21    1
    26    23    22    1
    27    24    23    1
    28    24    25    1
    29    26    27    1
    30    26    13    2
    31    28    44    1
    32    29    28    1
    33    29    33    1
    34    30    41    1
    35    30    37    1
    36    32    34    1
    37    34    38    1
    38    35    44    2
    39    36    45    1
    40    36    34    1
    41    37    32    1
    42    39    33    2
    43    39    45    1
    44    40    35    1
    45    41    31    1
    46    41    36    1
    47    42    29    1
    48    43    40    1
    49    43    42    2
    50    45    46    2
