@<TRIPOS>MOLECULE
outputs/IAG933/test6/raw/output_9607_IAG933_linker_design_.xyz
 42 45 0 0 0
SMALL
GASTEIGER

@<TRIPOS>ATOM
      1 C         -24.8550   -1.0120   30.1430 C.3     1  UNL1        0.0438
      2 C         -24.9730   -2.5050   29.7880 C.2     1  UNL1       -0.0208
      3 C         -23.9060   -3.1730   29.1460 C.2     1  UNL1       -0.0042
      4 C         -23.9890   -4.5490   28.8530 C.2     1  UNL1       -0.0003
      5 C         -25.1370   -5.2800   29.2050 C.2     1  UNL1       -0.0000
      6 C         -26.2320   -4.6110   29.7840 C.2     1  UNL1       -0.0003
      7 C         -26.1550   -3.2320   30.0650 C.2     1  UNL1       -0.0042
      8 C         -25.3870   -0.6790   31.5710 C.3     1  UNL1        0.0807
      9 C         -25.1890    0.7730   32.0280 C.3     1  UNL1        0.0610
     10 C         -25.3360    0.6840   33.5440 C.3     1  UNL1        0.0239
     11 C         -24.8290   -0.7150   33.9050 C.3     1  UNL1        0.0888
     12 N         -24.7580   -1.4810   32.6460 N.3     1  UNL1       -0.2190
     13 C         -25.6880    1.6140   26.4610 C.2     1  UNL1        0.0432
     14 C         -26.2500    2.9200   26.3950 C.2     1  UNL1        0.0767
     15 C         -25.6420    4.0930   27.1230 C.2     1  UNL1        0.2664
     16 N         -25.6140    5.2520   26.4490 N.am    1  UNL1       -0.1997
     17 C         -25.0260    6.4790   26.9630 C.3     1  UNL1        0.1388
     18 O         -25.1430    3.9660   28.2430 O.2     1  UNL1       -0.2683
     19 C         -27.4380    3.0910   25.6450 C.2     1  UNL1        0.1067
     20 N         -28.0750    2.0890   25.0030 N.2     1  UNL1       -0.2081
     21 C         -27.5430    0.8490   25.0790 C.2     1  UNL1        0.2533
     22 O         -28.1930   -0.2080   24.4770 O.2     1  UNL1       -0.4558
     23 C         -29.4600    0.0050   23.8660 C.3     1  UNL1        0.2426
     24 C         -30.0650   -1.3770   23.5730 C.3     1  UNL1        0.2292
     25 O         -30.7290   -1.8780   24.7210 O.3     1  UNL1       -0.2162
     26 C         -26.3540    0.5760   25.7770 C.2     1  UNL1        0.1932
     27 F         -25.8600   -0.6810   25.7950 F       1  UNL1       -0.1992
     28 C         -22.0140    1.5844   26.9406 C.2     1  UNL1        0.0298
     29 O         -25.4889    5.1717   30.0828 O.2     1  UNL1       -0.2842
     30 C         -24.2402    1.5012   28.6583 C.2     1  UNL1        0.1407
     31 C         -25.4712    1.8593   30.9592 C.3     1  UNL1        0.2069
     32 F         -23.2743    1.8957   25.0580 F       1  UNL1       -0.2041
     33 P         -26.3096    4.2679   31.1052 P.3     1  UNL1        0.2866
     34 O         -25.2499    1.8186   29.5067 O.2     1  UNL1       -0.4758
     35 O         -27.5214    2.1992   31.8557 O.3     1  UNL1       -0.2086
     36 C         -23.2528    1.6722   26.3709 C.2     1  UNL1        0.1431
     37 O         -25.3814    4.4934   32.3316 O.3     1  UNL1       -0.1652
     38 C         -24.3539    1.5388   27.0888 C.2     1  UNL1        0.0639
     39 C         -23.0387    1.2344   29.1180 C.2     1  UNL1        0.0370
     40 C         -26.4861    2.6386   31.2071 C.3     1  UNL1        0.2700
     41 C         -21.8802    1.3067   28.2650 C.2     1  UNL1        0.0054
     42 C         -28.0452    4.5521   30.7217 C.3     1  UNL1        0.1023
@<TRIPOS>BOND
     1     2     7    1
     2     2     1    1
     3     3     2    2
     4     4     3    1
     5     4     5    2
     6     5     6    1
     7     6     7    2
     8     8     1    1
     9     8     9    1
    10     8    12    1
    11     9    31    1
    12     9    10    1
    13    10    11    1
    14    12    11    1
    15    13    38    1
    16    14    13    1
    17    14    15    1
    18    15    18    2
    19    16    17    1
    20    16    15    1
    21    19    14    2
    22    20    21    2
    23    20    19    1
    24    21    26    1
    25    22    21    1
    26    23    22    1
    27    24    23    1
    28    24    25    1
    29    26    27    1
    30    26    13    2
    31    28    41    1
    32    29    33    2
    33    30    39    1
    34    30    34    1
    35    31    34    1
    36    31    40    1
    37    32    36    1
    38    33    42    1
    39    33    40    1
    40    33    37    1
    41    36    28    2
    42    36    38    1
    43    38    30    2
    44    40    35    1
    45    41    39    2
