@<TRIPOS>MOLECULE
No_961-gen_results/8p0m/2024-11-27-11-27-31/
 10 10 0 0 0
SMALL
GASTEIGER

@<TRIPOS>ATOM
      1 F         -28.0727   -1.2542   28.5316 F       1  UNL1       -0.2042
      2 C         -27.0607   -0.6291   28.8721 C.ar    1  UNL1        0.1401
      3 C         -27.1759    0.6153   29.3693 C.ar    1  UNL1        0.0298
      4 C         -25.7305   -1.2692   28.7241 C.ar    1  UNL1        0.0298
      5 C         -24.5526   -0.5078   29.0132 C.ar    1  UNL1        0.0089
      6 C         -25.9545    1.3798   29.6888 C.ar    1  UNL1        0.0089
      7 C         -24.6583    0.8010   29.5182 C.ar    1  UNL1        0.0799
      8 C         -23.4564    1.5405   29.7975 C.2     1  UNL1        0.3878
      9 O         -23.5457    2.4966   30.4084 O.co2   1  UNL1       -0.2406
     10 O         -22.2847    0.9369   29.6757 O.co2   1  UNL1       -0.2406
@<TRIPOS>BOND
     1     1     2    1
     2     7     8    1
     3     8     9   ar
     4     8    10   ar
     5     2     3   ar
     6     3     6   ar
     7     6     7   ar
     8     7     5   ar
     9     5     4   ar
    10     4     2   ar
