@<TRIPOS>MOLECULE
outputs/IAG933/test6/raw/output_9616_IAG933_linker_design_.xyz
 45 48 0 0 0
SMALL
GASTEIGER

@<TRIPOS>ATOM
      1 C         -24.8550   -1.0120   30.1430 C.3     1  UNL1        0.1142
      2 C         -24.9730   -2.5050   29.7880 C.2     1  UNL1       -0.0029
      3 C         -23.9060   -3.1730   29.1460 C.2     1  UNL1       -0.0026
      4 C         -23.9890   -4.5490   28.8530 C.2     1  UNL1       -0.0003
      5 C         -25.1370   -5.2800   29.2050 C.2     1  UNL1       -0.0000
      6 C         -26.2320   -4.6110   29.7840 C.2     1  UNL1       -0.0003
      7 C         -26.1550   -3.2320   30.0650 C.2     1  UNL1       -0.0026
      8 C         -25.3870   -0.6790   31.5710 C.3     1  UNL1        0.0951
      9 C         -25.1890    0.7730   32.0280 C.3     1  UNL1        0.0209
     10 C         -25.3360    0.6840   33.5440 C.3     1  UNL1        0.0203
     11 C         -24.8290   -0.7150   33.9050 C.3     1  UNL1        0.0888
     12 N         -24.7580   -1.4810   32.6460 N.3     1  UNL1       -0.2174
     13 C         -25.6880    1.6140   26.4610 C.3     1  UNL1        0.0750
     14 C         -26.2500    2.9200   26.3950 C.2     1  UNL1        0.0550
     15 C         -25.6420    4.0930   27.1230 C.2     1  UNL1        0.2624
     16 N         -25.6140    5.2520   26.4490 N.am    1  UNL1       -0.2000
     17 C         -25.0260    6.4790   26.9630 C.3     1  UNL1        0.1388
     18 O         -25.1430    3.9660   28.2430 O.2     1  UNL1       -0.2687
     19 C         -27.4380    3.0910   25.6450 C.2     1  UNL1        0.1021
     20 N         -28.0750    2.0890   25.0030 N.2     1  UNL1       -0.2119
     21 C         -27.5430    0.8490   25.0790 C.2     1  UNL1        0.2341
     22 O         -28.1930   -0.2080   24.4770 O.2     1  UNL1       -0.4585
     23 C         -29.4600    0.0050   23.8660 C.3     1  UNL1        0.2423
     24 C         -30.0650   -1.3770   23.5730 C.3     1  UNL1        0.2292
     25 O         -30.7290   -1.8780   24.7210 O.3     1  UNL1       -0.2162
     26 C         -26.3540    0.5760   25.7770 C.3     1  UNL1        0.2401
     27 F         -25.8600   -0.6810   25.7950 F       1  UNL1       -0.2269
     28 N         -24.5232    0.1306   29.3541 N.am    1  UNL1       -0.2688
     29 C         -28.3373    1.0771   29.8325 C.3     1  UNL1        0.2079
     30 C         -23.5432    1.1831   27.8007 C.3     1  UNL1        0.1934
     31 C         -32.5993    1.9302   26.9113 C.3     1  UNL1        0.1742
     32 C         -25.3774    0.9213   28.9104 C.3     1  UNL1        0.1389
     33 O         -28.9444    0.9201   28.5949 O.3     1  UNL1       -0.3431
     34 C         -30.3544    1.0917   27.0351 C.3     1  UNL1        0.1743
     35 C         -23.2971    0.4927   29.0525 C.2     1  UNL1        0.2534
     36 C         -21.0257    1.7540   27.4986 C.3     1  UNL1        0.1747
     37 C         -24.9963    1.1948   27.7158 C.3     1  UNL1        0.0690
     38 O         -26.5338    2.4963   30.2414 O.2     1  UNL1       -0.2917
     39 C         -30.3833    0.7061   28.4772 C.3     1  UNL1        0.1781
     40 O         -22.4128    1.9014   27.1621 O.3     1  UNL1       -0.3443
     41 O         -30.0196   -1.4998   29.3102 O.3     1  UNL1       -0.2176
     42 C         -31.0256   -0.6502   28.7750 C.3     1  UNL1        0.2140
     43 C         -26.7531    1.5585   29.6558 C.2     1  UNL1        0.1983
     44 O         -22.2347    0.3577   29.7501 O.2     1  UNL1       -0.2722
     45 O         -31.7165    0.7975   26.6007 O.3     1  UNL1       -0.3484
@<TRIPOS>BOND
     1     1     2    1
     2     2     7    1
     3     3     2    2
     4     4     3    1
     5     4     5    2
     6     5     6    1
     7     6     7    2
     8     8     1    1
     9     8     9    1
    10     8    12    1
    11     9    10    1
    12    10    11    1
    13    12    11    1
    14    13    14    1
    15    14    15    1
    16    15    18    2
    17    16    17    1
    18    16    15    1
    19    19    14    2
    20    20    21    2
    21    20    19    1
    22    21    26    1
    23    22    21    1
    24    23    22    1
    25    24    23    1
    26    24    25    1
    27    26    27    1
    28    26    13    1
    29    28     1    1
    30    30    40    1
    31    30    35    1
    32    32    28    1
    33    32    43    1
    34    33    29    1
    35    35    28   am
    36    35    44    2
    37    37    13    1
    38    37    30    1
    39    37    32    1
    40    39    34    1
    41    39    33    1
    42    39    42    1
    43    40    36    1
    44    42    41    1
    45    43    29    1
    46    43    38    2
    47    45    31    1
    48    45    34    1
