@<TRIPOS>MOLECULE
outputs/IAG933/test6/raw/output_9617_IAG933_linker_design_.xyz
 42 45 0 0 0
SMALL
GASTEIGER

@<TRIPOS>ATOM
      1 C         -24.8550   -1.0120   30.1430 C.3     1  UNL1        0.0439
      2 C         -24.9730   -2.5050   29.7880 C.2     1  UNL1       -0.0208
      3 C         -23.9060   -3.1730   29.1460 C.2     1  UNL1       -0.0042
      4 C         -23.9890   -4.5490   28.8530 C.2     1  UNL1       -0.0003
      5 C         -25.1370   -5.2800   29.2050 C.2     1  UNL1       -0.0000
      6 C         -26.2320   -4.6110   29.7840 C.2     1  UNL1       -0.0003
      7 C         -26.1550   -3.2320   30.0650 C.2     1  UNL1       -0.0042
      8 C         -25.3870   -0.6790   31.5710 C.3     1  UNL1        0.0815
      9 C         -25.1890    0.7730   32.0280 C.3     1  UNL1        0.0689
     10 C         -25.3360    0.6840   33.5440 C.3     1  UNL1        0.0247
     11 C         -24.8290   -0.7150   33.9050 C.3     1  UNL1        0.0889
     12 N         -24.7580   -1.4810   32.6460 N.3     1  UNL1       -0.2190
     13 C         -25.6880    1.6140   26.4610 C.2     1  UNL1        0.0418
     14 C         -26.2500    2.9200   26.3950 C.2     1  UNL1        0.0746
     15 C         -25.6420    4.0930   27.1230 C.2     1  UNL1        0.2662
     16 N         -25.6140    5.2520   26.4490 N.am    1  UNL1       -0.1997
     17 C         -25.0260    6.4790   26.9630 C.3     1  UNL1        0.1388
     18 O         -25.1430    3.9660   28.2430 O.2     1  UNL1       -0.2683
     19 C         -27.4380    3.0910   25.6450 C.2     1  UNL1        0.1065
     20 N         -28.0750    2.0890   25.0030 N.2     1  UNL1       -0.2081
     21 C         -27.5430    0.8490   25.0790 C.2     1  UNL1        0.2530
     22 O         -28.1930   -0.2080   24.4770 O.2     1  UNL1       -0.4558
     23 C         -29.4600    0.0050   23.8660 C.3     1  UNL1        0.2426
     24 C         -30.0650   -1.3770   23.5730 C.3     1  UNL1        0.2292
     25 O         -30.7290   -1.8780   24.7210 O.3     1  UNL1       -0.2162
     26 C         -26.3540    0.5760   25.7770 C.2     1  UNL1        0.1911
     27 F         -25.8600   -0.6810   25.7950 F       1  UNL1       -0.1995
     28 C         -24.8051    1.3197   29.3899 C.2     1  UNL1        0.1621
     29 C         -25.1387    2.2855   31.7207 C.3     1  UNL1        0.2241
     30 N         -23.9126    1.3727   28.2693 N.pl3   1  UNL1       -0.2721
     31 C         -27.9334    3.1826   34.6954 C.3     1  UNL1        0.1770
     32 S         -21.8194    1.7230   27.1200 S.3     1  UNL1       -0.0531
     33 C         -22.5864    1.3529   28.4456 C.3     1  UNL1        0.1590
     34 O         -25.6196    5.0143   33.3215 O.3     1  UNL1       -0.2980
     35 C         -24.4876    4.5724   32.5184 C.3     1  UNL1        0.2975
     36 C         -23.0904    1.9088   26.2698 C.2     1  UNL1        0.2225
     37 C         -26.9570    4.6185   33.0045 C.3     1  UNL1        0.2960
     38 O         -27.2296    3.3452   33.4840 O.3     1  UNL1       -0.3240
     39 C         -24.3618    1.5549   27.0149 C.3     1  UNL1        0.1685
     40 O         -23.0191    2.4945   25.1680 O.2     1  UNL1       -0.2823
     41 O         -24.3333    3.1251   32.5499 O.3     1  UNL1       -0.3061
     42 N         -24.5652    2.3065   30.4102 N.2     1  UNL1       -0.2261
@<TRIPOS>BOND
     1     2     7    1
     2     2     1    1
     3     3     2    2
     4     4     3    1
     5     4     5    2
     6     5     6    1
     7     6     7    2
     8     8     1    1
     9     8     9    1
    10     8    12    1
    11     9    29    1
    12     9    10    1
    13    10    11    1
    14    12    11    1
    15    14    13    1
    16    14    15    1
    17    15    18    2
    18    16    17    1
    19    16    15    1
    20    19    14    2
    21    20    21    2
    22    20    19    1
    23    21    26    1
    24    22    21    1
    25    23    22    1
    26    24    23    1
    27    24    25    1
    28    26    27    1
    29    26    13    2
    30    28    42    2
    31    29    42    1
    32    29    41    1
    33    30    33    1
    34    30    28    1
    35    32    33    1
    36    35    41    1
    37    35    34    1
    38    36    39    1
    39    36    32    1
    40    37    34    1
    41    37    38    1
    42    38    31    1
    43    39    13    1
    44    39    30    1
    45    40    36    2
