@<TRIPOS>MOLECULE
outputs/IAG933/test6/raw/output_962_IAG933_linker_design_.xyz
 48 52 0 0 0
SMALL
GASTEIGER

@<TRIPOS>ATOM
      1 C         -24.8550   -1.0120   30.1430 C.3     1  UNL1        0.2034
      2 C         -24.9730   -2.5050   29.7880 C.2     1  UNL1        0.0186
      3 C         -23.9060   -3.1730   29.1460 C.2     1  UNL1       -0.0008
      4 C         -23.9890   -4.5490   28.8530 C.2     1  UNL1       -0.0002
      5 C         -25.1370   -5.2800   29.2050 C.2     1  UNL1       -0.0000
      6 C         -26.2320   -4.6110   29.7840 C.2     1  UNL1       -0.0002
      7 C         -26.1550   -3.2320   30.0650 C.2     1  UNL1       -0.0008
      8 C         -25.3870   -0.6790   31.5710 C.3     1  UNL1        0.1170
      9 C         -25.1890    0.7730   32.0280 C.3     1  UNL1        0.0229
     10 C         -25.3360    0.6840   33.5440 C.3     1  UNL1        0.0204
     11 C         -24.8290   -0.7150   33.9050 C.3     1  UNL1        0.0888
     12 N         -24.7580   -1.4810   32.6460 N.3     1  UNL1       -0.2154
     13 C         -25.6880    1.6140   26.4610 C.3     1  UNL1        0.0979
     14 C         -26.2500    2.9200   26.3950 C.2     1  UNL1        0.0591
     15 C         -25.6420    4.0930   27.1230 C.2     1  UNL1        0.2628
     16 N         -25.6140    5.2520   26.4490 N.am    1  UNL1       -0.2000
     17 C         -25.0260    6.4790   26.9630 C.3     1  UNL1        0.1388
     18 O         -25.1430    3.9660   28.2430 O.2     1  UNL1       -0.2686
     19 C         -27.4380    3.0910   25.6450 C.2     1  UNL1        0.1025
     20 N         -28.0750    2.0890   25.0030 N.2     1  UNL1       -0.2118
     21 C         -27.5430    0.8490   25.0790 C.2     1  UNL1        0.2344
     22 O         -28.1930   -0.2080   24.4770 O.2     1  UNL1       -0.4585
     23 C         -29.4600    0.0050   23.8660 C.3     1  UNL1        0.2423
     24 C         -30.0650   -1.3770   23.5730 C.3     1  UNL1        0.2292
     25 O         -30.7290   -1.8780   24.7210 O.3     1  UNL1       -0.2162
     26 C         -26.3540    0.5760   25.7770 C.3     1  UNL1        0.2442
     27 F         -25.8600   -0.6810   25.7950 F       1  UNL1       -0.2265
     28 O         -24.5351    0.0175   29.2568 O.2     1  UNL1       -0.4778
     29 C         -28.8685    1.2395   29.4350 C.3     1  UNL1        0.0699
     30 C         -21.0654    1.3320   27.4721 C.3     1  UNL1        0.0340
     31 O         -30.6099   -0.1352   31.6773 O.3     1  UNL1       -0.1229
     32 C         -24.8173    1.0657   27.4365 C.2     1  UNL1        0.0483
     33 C         -29.1848   -0.0624   28.8310 C.3     1  UNL1        0.1239
     34 C         -27.8972   -0.6257   28.3228 C.3     1  UNL1        0.0375
     35 C         -26.8970    0.3619   28.7699 C.3     1  UNL1        0.0596
     36 O         -31.9140   -0.3853   29.7224 O.3     1  UNL1       -0.2456
     37 O         -30.2201   -0.1007   27.9220 O.3     1  UNL1       -0.3282
     38 C         -31.5920   -0.1825   28.3275 C.3     1  UNL1        0.3073
     39 O         -23.4685    1.3067   25.5718 O.2     1  UNL1       -0.4720
     40 C         -23.5655    1.1327   26.9769 C.2     1  UNL1        0.1334
     41 C         -22.6588    2.4214   25.1201 C.3     1  UNL1        0.2524
     42 C         -29.7806    2.3145   29.9257 C.2     1  UNL1        0.0853
     43 N         -31.0003    2.0245   30.5359 N.2     1  UNL1       -0.1878
     44 C         -27.4885    1.3181   29.5319 C.3     1  UNL1        0.0160
     45 C         -25.5996    0.5102   28.5334 C.2     1  UNL1        0.1153
     46 C         -22.4540    1.0551   27.9450 C.2     1  UNL1        0.0108
     47 C         -32.9071    0.8816   31.7362 C.3     1  UNL1        0.1331
     48 S         -31.5120    0.5547   30.8730 S.3     1  UNL1        0.1245
@<TRIPOS>BOND
     1     1    28    1
     2     2     7    1
     3     2     1    1
     4     3     2    2
     5     4     3    1
     6     4     5    2
     7     5     6    1
     8     6     7    2
     9     8     1    1
    10     8     9    1
    11     8    12    1
    12     9    10    1
    13    10    11    1
    14    12    11    1
    15    13    32    1
    16    14    13    1
    17    14    15    1
    18    15    18    2
    19    16    17    1
    20    16    15    1
    21    19    14    2
    22    20    21    2
    23    20    19    1
    24    21    26    1
    25    22    21    1
    26    23    22    1
    27    24    23    1
    28    24    25    1
    29    26    27    1
    30    26    13    1
    31    29    44    1
    32    29    42    1
    33    30    46    1
    34    32    45    2
    35    33    34    1
    36    33    29    1
    37    34    35    1
    38    35    45    1
    39    35    44    1
    40    36    48    1
    41    37    38    1
    42    37    33    1
    43    38    36    1
    44    39    40    1
    45    40    32    1
    46    40    46    2
    47    41    39    1
    48    42    43    2
    49    43    48    1
    50    45    28    1
    51    48    31    1
    52    48    47    1
