@<TRIPOS>MOLECULE
outputs/IAG933/test6/raw/output_9620_IAG933_linker_design_.xyz
 41 43 0 0 0
SMALL
GASTEIGER

@<TRIPOS>ATOM
      1 C         -24.8550   -1.0120   30.1430 C.3     1  UNL1        0.0473
      2 C         -24.9730   -2.5050   29.7880 C.2     1  UNL1       -0.0207
      3 C         -23.9060   -3.1730   29.1460 C.2     1  UNL1       -0.0042
      4 C         -23.9890   -4.5490   28.8530 C.2     1  UNL1       -0.0003
      5 C         -25.1370   -5.2800   29.2050 C.2     1  UNL1       -0.0000
      6 C         -26.2320   -4.6110   29.7840 C.2     1  UNL1       -0.0003
      7 C         -26.1550   -3.2320   30.0650 C.2     1  UNL1       -0.0042
      8 C         -25.3870   -0.6790   31.5710 C.3     1  UNL1        0.0773
      9 C         -25.1890    0.7730   32.0280 C.3     1  UNL1        0.0192
     10 C         -25.3360    0.6840   33.5440 C.3     1  UNL1        0.0202
     11 C         -24.8290   -0.7150   33.9050 C.3     1  UNL1        0.0887
     12 N         -24.7580   -1.4810   32.6460 N.3     1  UNL1       -0.2191
     13 C         -25.6880    1.6140   26.4610 C.3     1  UNL1        0.0747
     14 C         -26.2500    2.9200   26.3950 C.2     1  UNL1        0.0551
     15 C         -25.6420    4.0930   27.1230 C.2     1  UNL1        0.2624
     16 N         -25.6140    5.2520   26.4490 N.am    1  UNL1       -0.2000
     17 C         -25.0260    6.4790   26.9630 C.3     1  UNL1        0.1388
     18 O         -25.1430    3.9660   28.2430 O.2     1  UNL1       -0.2687
     19 C         -27.4380    3.0910   25.6450 C.2     1  UNL1        0.1021
     20 N         -28.0750    2.0890   25.0030 N.2     1  UNL1       -0.2119
     21 C         -27.5430    0.8490   25.0790 C.2     1  UNL1        0.2341
     22 O         -28.1930   -0.2080   24.4770 O.2     1  UNL1       -0.4585
     23 C         -29.4600    0.0050   23.8660 C.3     1  UNL1        0.2423
     24 C         -30.0650   -1.3770   23.5730 C.3     1  UNL1        0.2292
     25 O         -30.7290   -1.8780   24.7210 O.3     1  UNL1       -0.2162
     26 C         -26.3540    0.5760   25.7770 C.3     1  UNL1        0.2403
     27 F         -25.8600   -0.6810   25.7950 F       1  UNL1       -0.2269
     28 C         -27.0155    4.1104   31.0551 C.3     1  UNL1        0.0339
     29 C         -20.8590    1.6391   27.3474 C.3     1  UNL1        0.0769
     30 C         -25.0655    0.0120   28.8272 C.3     1  UNL1        0.0881
     31 C         -28.3070    3.7694   30.2766 C.3     1  UNL1        0.1370
     32 N         -26.8909    1.9101   29.4936 N.am    1  UNL1       -0.2028
     33 O         -22.1450    0.1164   28.7662 O.2     1  UNL1       -0.2917
     34 O         -29.4156    3.7210   31.2280 O.3     1  UNL1       -0.3518
     35 C         -23.3830    1.4581   27.1735 C.2     1  UNL1        0.0119
     36 C         -24.7089    1.0651   27.5280 C.3     1  UNL1        0.0413
     37 C         -29.2623    3.9857   32.6102 C.3     1  UNL1        0.1741
     38 C         -22.0910    1.0875   27.8136 C.2     1  UNL1        0.1694
     39 O         -27.4036   -0.2446   28.8472 O.2     1  UNL1       -0.2733
     40 C         -26.5749    0.5302   29.1300 C.2     1  UNL1        0.2417
     41 C         -28.2708    2.3682   29.6208 C.3     1  UNL1        0.1445
@<TRIPOS>BOND
     1     1    30    1
     2     2     7    1
     3     2     1    1
     4     3     2    2
     5     4     3    1
     6     4     5    2
     7     5     6    1
     8     6     7    2
     9     8     1    1
    10     8     9    1
    11     8    12    1
    12     9    10    1
    13    10    11    1
    14    12    11    1
    15    13    36    1
    16    14    13    1
    17    14    15    1
    18    15    18    2
    19    16    17    1
    20    16    15    1
    21    19    14    2
    22    20    21    2
    23    20    19    1
    24    21    26    1
    25    22    21    1
    26    23    22    1
    27    24    23    1
    28    24    25    1
    29    26    27    1
    30    26    13    1
    31    29    38    1
    32    30    40    1
    33    31    28    1
    34    31    34    1
    35    32    41    1
    36    34    37    1
    37    35    38    2
    38    36    35    1
    39    36    30    1
    40    38    33    1
    41    39    40    2
    42    40    32    1
    43    41    31    1
