@<TRIPOS>MOLECULE
outputs/IAG933/test6/raw/output_9622_IAG933_linker_design_.xyz
 48 52 0 0 0
SMALL
GASTEIGER

@<TRIPOS>ATOM
      1 C         -24.8550   -1.0120   30.1430 C.3     1  UNL1        0.0388
      2 C         -24.9730   -2.5050   29.7880 C.2     1  UNL1       -0.0211
      3 C         -23.9060   -3.1730   29.1460 C.2     1  UNL1       -0.0042
      4 C         -23.9890   -4.5490   28.8530 C.2     1  UNL1       -0.0003
      5 C         -25.1370   -5.2800   29.2050 C.2     1  UNL1       -0.0000
      6 C         -26.2320   -4.6110   29.7840 C.2     1  UNL1       -0.0003
      7 C         -26.1550   -3.2320   30.0650 C.2     1  UNL1       -0.0042
      8 C         -25.3870   -0.6790   31.5710 C.3     1  UNL1        0.0768
      9 C         -25.1890    0.7730   32.0280 C.3     1  UNL1        0.0192
     10 C         -25.3360    0.6840   33.5440 C.3     1  UNL1        0.0202
     11 C         -24.8290   -0.7150   33.9050 C.3     1  UNL1        0.0887
     12 N         -24.7580   -1.4810   32.6460 N.3     1  UNL1       -0.2191
     13 C         -25.6880    1.6140   26.4610 C.2     1  UNL1        0.0156
     14 C         -26.2500    2.9200   26.3950 C.2     1  UNL1        0.0726
     15 C         -25.6420    4.0930   27.1230 C.2     1  UNL1        0.2661
     16 N         -25.6140    5.2520   26.4490 N.am    1  UNL1       -0.1997
     17 C         -25.0260    6.4790   26.9630 C.3     1  UNL1        0.1388
     18 O         -25.1430    3.9660   28.2430 O.2     1  UNL1       -0.2683
     19 C         -27.4380    3.0910   25.6450 C.2     1  UNL1        0.1064
     20 N         -28.0750    2.0890   25.0030 N.2     1  UNL1       -0.2081
     21 C         -27.5430    0.8490   25.0790 C.2     1  UNL1        0.2530
     22 O         -28.1930   -0.2080   24.4770 O.2     1  UNL1       -0.4558
     23 C         -29.4600    0.0050   23.8660 C.3     1  UNL1        0.2426
     24 C         -30.0650   -1.3770   23.5730 C.3     1  UNL1        0.2292
     25 O         -30.7290   -1.8780   24.7210 O.3     1  UNL1       -0.2162
     26 C         -26.3540    0.5760   25.7770 C.2     1  UNL1        0.1891
     27 F         -25.8600   -0.6810   25.7950 F       1  UNL1       -0.1996
     28 C         -29.9607    2.5258   31.4814 C.3     1  UNL1        0.0262
     29 N         -33.5787    3.9079   30.7375 N.pl3   1  UNL1       -0.1284
     30 C         -31.5832    3.0583   29.6459 C.2     1  UNL1       -0.0077
     31 C         -26.5468    0.9792   29.1820 C.3     1  UNL1        0.0857
     32 C         -28.8906    2.2866   30.6817 C.3     1  UNL1        0.0941
     33 O         -28.2746   -0.8177   28.9259 O.2     1  UNL1       -0.2749
     34 C         -25.5109   -0.1828   29.0094 C.3     1  UNL1        0.0148
     35 C         -27.9826    0.3865   29.0327 C.2     1  UNL1        0.2259
     36 C         -30.7591    3.9339   27.5807 C.2     1  UNL1       -0.0028
     37 C         -32.6117    4.9951   28.7493 C.2     1  UNL1        0.0177
     38 N         -28.9612    1.4041   29.4740 N.am    1  UNL1       -0.2754
     39 C         -21.7910    1.5935   26.3274 C.3     1  UNL1        0.0003
     40 C         -31.2050    2.4751   30.8555 C.3     1  UNL1        0.0292
     41 C         -30.7449    2.8850   28.4985 C.2     1  UNL1       -0.0050
     42 C         -22.6252    0.1081   28.6965 C.3     1  UNL1        0.0004
     43 C         -24.3013    1.0617   27.1290 C.3     1  UNL1        0.0249
     44 C         -23.2690    1.3338   25.9321 C.3     1  UNL1        0.0044
     45 C         -31.7325    4.9430   27.6477 C.2     1  UNL1        0.0011
     46 C         -32.5963    3.9916   29.7139 C.2     1  UNL1        0.0849
     47 C         -24.1673    0.2366   28.2213 C.3     1  UNL1        0.0050
     48 C         -29.8825    1.6395   28.3176 C.3     1  UNL1        0.1198
@<TRIPOS>BOND
     1     1    34    1
     2     2     7    1
     3     2     1    1
     4     3     2    2
     5     4     3    1
     6     4     5    2
     7     5     6    1
     8     6     7    2
     9     8     1    1
    10     8     9    1
    11     8    12    1
    12     9    10    1
    13    10    11    1
    14    12    11    1
    15    13    43    1
    16    14    13    1
    17    14    15    1
    18    15    18    2
    19    16    17    1
    20    16    15    1
    21    19    14    2
    22    20    21    2
    23    20    19    1
    24    21    26    1
    25    22    21    1
    26    23    22    1
    27    24    23    1
    28    24    25    1
    29    26    27    1
    30    26    13    2
    31    30    46    1
    32    30    40    1
    33    32    28    1
    34    33    35    2
    35    34    31    1
    36    35    31    1
    37    35    38   am
    38    36    45    2
    39    36    41    1
    40    37    46    2
    41    38    32    1
    42    40    28    1
    43    41    30    2
    44    43    44    1
    45    43    47    1
    46    44    39    1
    47    45    37    1
    48    46    29    1
    49    47    42    1
    50    47    34    1
    51    48    41    1
    52    48    38    1
