@<TRIPOS>MOLECULE
outputs/IAG933/test6/raw/output_9625_IAG933_linker_design_.xyz
 65 73 0 0 0
SMALL
GASTEIGER

@<TRIPOS>ATOM
      1 C         -24.8550   -1.0120   30.1430 C.3     1  UNL1        0.2052
      2 C         -24.9730   -2.5050   29.7880 C.2     1  UNL1        0.0186
      3 C         -23.9060   -3.1730   29.1460 C.2     1  UNL1       -0.0008
      4 C         -23.9890   -4.5490   28.8530 C.2     1  UNL1       -0.0002
      5 C         -25.1370   -5.2800   29.2050 C.2     1  UNL1       -0.0000
      6 C         -26.2320   -4.6110   29.7840 C.2     1  UNL1       -0.0002
      7 C         -26.1550   -3.2320   30.0650 C.2     1  UNL1       -0.0008
      8 C         -25.3870   -0.6790   31.5710 C.3     1  UNL1        0.1170
      9 C         -25.1890    0.7730   32.0280 C.3     1  UNL1        0.0229
     10 C         -25.3360    0.6840   33.5440 C.3     1  UNL1        0.0204
     11 C         -24.8290   -0.7150   33.9050 C.3     1  UNL1        0.0888
     12 N         -24.7580   -1.4810   32.6460 N.3     1  UNL1       -0.2154
     13 C         -25.6880    1.6140   26.4610 C.3     1  UNL1        0.0789
     14 C         -26.2500    2.9200   26.3950 C.2     1  UNL1        0.0553
     15 C         -25.6420    4.0930   27.1230 C.2     1  UNL1        0.2625
     16 N         -25.6140    5.2520   26.4490 N.am    1  UNL1       -0.2000
     17 C         -25.0260    6.4790   26.9630 C.3     1  UNL1        0.1388
     18 O         -25.1430    3.9660   28.2430 O.2     1  UNL1       -0.2687
     19 C         -27.4380    3.0910   25.6450 C.2     1  UNL1        0.1022
     20 N         -28.0750    2.0890   25.0030 N.2     1  UNL1       -0.2119
     21 C         -27.5430    0.8490   25.0790 C.2     1  UNL1        0.2341
     22 O         -28.1930   -0.2080   24.4770 O.2     1  UNL1       -0.4586
     23 C         -29.4600    0.0050   23.8660 C.3     1  UNL1        0.2388
     24 C         -30.0650   -1.3770   23.5730 C.3     1  UNL1        0.1910
     25 O         -30.7290   -1.8780   24.7210 O.3     1  UNL1       -0.3355
     26 C         -26.3540    0.5760   25.7770 C.3     1  UNL1        0.2405
     27 F         -25.8600   -0.6810   25.7950 F       1  UNL1       -0.2269
     28 C         -31.9697   -1.3369   29.4261 C.3     1  UNL1        0.0177
     29 O         -29.2009   -0.8469   29.1097 O.2     1  UNL1       -0.4742
     30 C         -31.5848   -1.3227   30.8736 C.3     1  UNL1        0.0055
     31 C         -30.8842   -0.3064   31.4012 C.3     1  UNL1        0.0295
     32 C         -29.5707    0.5722   31.0148 C.2     1  UNL1        0.0133
     33 C         -30.4372   -3.0769   31.7559 C.3     1  UNL1        0.0264
     34 C         -22.2053    1.0934   28.1014 C.3     1  UNL1        0.0005
     35 C         -28.7495   -5.1050   31.5961 C.2     1  UNL1       -0.0049
     36 C         -32.5829   -0.4011   25.4122 C.3     1  UNL1        0.1213
     37 C         -23.3784    0.9822   27.1111 C.3     1  UNL1        0.0092
     38 C         -31.3824   -0.0200   28.6171 C.3     1  UNL1        0.0604
     39 C         -27.7526    2.3213   29.6997 C.2     1  UNL1        0.0223
     40 C         -32.0534    0.3485   27.7392 C.3     1  UNL1        0.0781
     41 C         -25.3895    0.6513   28.6675 C.2     1  UNL1        0.2003
     42 C         -34.1428   -0.1109   29.5780 C.2     1  UNL1        0.3913
     43 N         -34.2481    1.2228   29.8059 N.2     1  UNL1        0.1582
     44 C         -28.9450   -4.2545   30.5146 C.2     1  UNL1       -0.0258
     45 N         -35.3697    1.3774   30.3443 N.2     1  UNL1        0.1763
     46 C         -31.4768   -1.3068   25.8470 C.3     1  UNL1        0.1926
     47 C         -24.7670    1.5243   27.5598 C.3     1  UNL1        0.0835
     48 C         -29.2378    1.8205   31.5646 C.2     1  UNL1       -0.0012
     49 C         -28.3753    2.6774   30.8652 C.2     1  UNL1        0.0014
     50 C         -27.8422    1.0085   29.3351 C.2     1  UNL1        0.1176
     51 C         -29.7478   -3.1762   30.5762 C.3     1  UNL1        0.0304
     52 C         -30.0557   -0.4908   28.1263 C.3     1  UNL1        0.2067
     53 C         -29.9289   -3.5662   32.9091 C.2     1  UNL1       -0.0261
     54 N         -26.8634    0.5762   28.4062 N.2     1  UNL1       -0.2124
     55 N         -37.4393   -0.6961   29.8739 N.pl3   1  UNL1        0.1606
     56 C         -23.1100    1.7606   25.8154 C.3     1  UNL1        0.0005
     57 C         -33.2346   -0.7670   29.2180 C.3     1  UNL1        0.1259
     58 N         -35.2881   -0.8940   29.6448 N.pl3   1  UNL1        0.0689
     59 C         -21.6916    2.2446   25.7600 C.3     1  UNL1        0.0000
     60 O         -24.2611   -0.0374   29.2793 O.2     1  UNL1       -0.4610
     61 C         -36.1134   -0.2832   29.9018 C.cat   1  UNL1        0.5653
     62 C         -31.8331   -2.6118   31.6287 C.3     1  UNL1        0.0050
     63 N         -32.5318   -0.7982   26.7460 N.3     1  UNL1       -0.2460
     64 C         -29.1798   -4.7081   32.8514 C.2     1  UNL1       -0.0049
     65 C         -28.8217    0.2194   29.8572 C.2     1  UNL1        0.1520
@<TRIPOS>BOND
     1     1    60    1
     2     2     7    1
     3     2     1    1
     4     3     2    2
     5     4     3    1
     6     4     5    2
     7     5     6    1
     8     6     7    2
     9     8     1    1
    10     8     9    1
    11     8    12    1
    12     9    10    1
    13    10    11    1
    14    12    11    1
    15    13    14    1
    16    13    47    1
    17    14    15    1
    18    15    18    2
    19    16    17    1
    20    16    15    1
    21    19    14    2
    22    20    21    2
    23    20    19    1
    24    21    26    1
    25    22    21    1
    26    23    22    1
    27    24    23    1
    28    24    25    1
    29    25    46    1
    30    26    27    1
    31    26    13    1
    32    28    57    1
    33    28    30    1
    34    29    65    1
    35    30    31    1
    36    30    62    1
    37    32    31    1
    38    32    48    1
    39    33    62    1
    40    33    53    1
    41    35    64    1
    42    37    34    1
    43    38    40    1
    44    38    28    1
    45    39    49    1
    46    41    60    1
    47    42    58    1
    48    42    43    2
    49    43    45    1
    50    44    51    1
    51    44    35    2
    52    46    36    1
    53    46    63    1
    54    47    37    1
    55    47    41    1
    56    49    48    2
    57    50    39    2
    58    50    65    1
    59    51    33    1
    60    52    38    1
    61    52    29    1
    62    54    41    2
    63    54    50    1
    64    55    61    1
    65    56    37    1
    66    57    42    1
    67    58    61    1
    68    59    56    1
    69    61    45    2
    70    63    36    1
    71    63    40    1
    72    64    53    2
    73    65    32    2
