@<TRIPOS>MOLECULE
outputs/IAG933/test6/raw/output_9632_IAG933_linker_design_.xyz
 59 63 0 0 0
SMALL
GASTEIGER

@<TRIPOS>ATOM
      1 C         -24.8550   -1.0120   30.1430 C.3     1  UNL1        0.0969
      2 C         -24.9730   -2.5050   29.7880 C.2     1  UNL1       -0.0064
      3 C         -23.9060   -3.1730   29.1460 C.2     1  UNL1       -0.0029
      4 C         -23.9890   -4.5490   28.8530 C.2     1  UNL1       -0.0003
      5 C         -25.1370   -5.2800   29.2050 C.2     1  UNL1       -0.0000
      6 C         -26.2320   -4.6110   29.7840 C.2     1  UNL1       -0.0003
      7 C         -26.1550   -3.2320   30.0650 C.2     1  UNL1       -0.0029
      8 C         -25.3870   -0.6790   31.5710 C.3     1  UNL1        0.0916
      9 C         -25.1890    0.7730   32.0280 C.3     1  UNL1        0.0206
     10 C         -25.3360    0.6840   33.5440 C.3     1  UNL1        0.0203
     11 C         -24.8290   -0.7150   33.9050 C.3     1  UNL1        0.0888
     12 N         -24.7580   -1.4810   32.6460 N.3     1  UNL1       -0.2178
     13 C         -25.6880    1.6140   26.4610 C.3     1  UNL1        0.0721
     14 C         -26.2500    2.9200   26.3950 C.2     1  UNL1        0.0549
     15 C         -25.6420    4.0930   27.1230 C.2     1  UNL1        0.2624
     16 N         -25.6140    5.2520   26.4490 N.am    1  UNL1       -0.2000
     17 C         -25.0260    6.4790   26.9630 C.3     1  UNL1        0.1388
     18 O         -25.1430    3.9660   28.2430 O.2     1  UNL1       -0.2687
     19 C         -27.4380    3.0910   25.6450 C.2     1  UNL1        0.1021
     20 N         -28.0750    2.0890   25.0030 N.2     1  UNL1       -0.2119
     21 C         -27.5430    0.8490   25.0790 C.2     1  UNL1        0.2341
     22 O         -28.1930   -0.2080   24.4770 O.2     1  UNL1       -0.4585
     23 C         -29.4600    0.0050   23.8660 C.3     1  UNL1        0.2423
     24 C         -30.0650   -1.3770   23.5730 C.3     1  UNL1        0.2292
     25 O         -30.7290   -1.8780   24.7210 O.3     1  UNL1       -0.2162
     26 C         -26.3540    0.5760   25.7770 C.3     1  UNL1        0.2400
     27 F         -25.8600   -0.6810   25.7950 F       1  UNL1       -0.2269
     28 C         -23.1815   -0.0736   28.7299 C.3     1  UNL1        0.0995
     29 N         -30.5581    2.7646   28.0708 N.am    1  UNL1       -0.2475
     30 C         -31.0434    3.4755   25.8054 C.2     1  UNL1        0.1090
     31 N         -30.7707    4.5606   26.4771 N.2     1  UNL1       -0.2478
     32 N         -24.6887    0.0092   29.2338 N.3     1  UNL1       -0.2575
     33 C         -29.3610    0.9156   28.7722 C.3     1  UNL1        0.2335
     34 O         -27.6771   -0.8158   28.8977 O.2     1  UNL1       -0.2486
     35 C         -32.3716    1.7829   32.8005 C.3     1  UNL1        0.0001
     36 C         -27.9283    3.7369   32.6725 C.3     1  UNL1        0.1821
     37 C         -27.1970    0.2971   28.8385 C.2     1  UNL1        0.3317
     38 C         -30.9203    2.3767   26.8574 C.2     1  UNL1        0.2640
     39 C         -30.5436    4.3137   27.8424 C.3     1  UNL1        0.2223
     40 C         -31.9321    2.5496   22.0980 C.3     1  UNL1        0.0004
     41 C         -25.7322    0.5857   28.4178 C.3     1  UNL1        0.1585
     42 O         -31.2837    1.1873   26.6182 O.2     1  UNL1       -0.2686
     43 C         -31.7088    1.6540   31.5502 C.3     1  UNL1        0.0021
     44 C         -21.1708    1.2953   27.8843 C.2     1  UNL1       -0.0035
     45 C         -30.4343    1.8079   29.2534 C.3     1  UNL1        0.1536
     46 C         -24.9021    1.4150   27.4199 C.3     1  UNL1        0.0352
     47 C         -31.5206    1.2855   30.1589 C.3     1  UNL1        0.0292
     48 C         -30.8463    2.6453   23.1864 C.3     1  UNL1        0.0064
     49 O         -28.0445    1.3440   28.9910 O.3     1  UNL1       -0.4454
     50 C         -30.3720    3.3566   33.3642 C.3     1  UNL1        0.0026
     51 O         -26.7993    3.0924   32.1373 O.3     1  UNL1       -0.2204
     52 C         -31.3287    2.8818   32.2516 C.3     1  UNL1        0.0002
     53 O         -29.5174    2.6156   30.8612 O.2     1  UNL1       -0.2943
     54 C         -31.0756    3.6642   24.2318 C.3     1  UNL1        0.0502
     55 C         -29.2163    2.8658   32.5205 C.3     1  UNL1        0.0355
     56 C         -29.8074    2.7717   30.1885 C.2     1  UNL1        0.1706
     57 C         -22.2685    0.9417   28.4270 C.2     1  UNL1       -0.0088
     58 C         -29.5090    3.4123   30.0734 C.3     1  UNL1        0.0741
     59 C         -30.1741    2.3529   34.7326 C.3     1  UNL1        0.0001
@<TRIPOS>BOND
     1     1    32    1
     2     2     7    1
     3     2     1    1
     4     3     2    2
     5     4     3    1
     6     4     5    2
     7     5     6    1
     8     6     7    2
     9     8     1    1
    10     8     9    1
    11     8    12    1
    12     9    10    1
    13    10    11    1
    14    12    11    1
    15    13    46    1
    16    14    13    1
    17    14    15    1
    18    15    18    2
    19    16    17    1
    20    16    15    1
    21    19    14    2
    22    20    21    2
    23    20    19    1
    24    21    26    1
    25    22    21    1
    26    23    22    1
    27    24    23    1
    28    24    25    1
    29    26    27    1
    30    26    13    1
    31    28    32    1
    32    29    45    1
    33    30    31    2
    34    30    38    1
    35    31    39    1
    36    33    49    1
    37    37    34    2
    38    37    49    1
    39    38    29   am
    40    39    29    1
    41    40    48    1
    42    41    46    1
    43    41    37    1
    44    41    32    1
    45    42    38    2
    46    43    47    1
    47    43    52    1
    48    43    35    1
    49    44    57    2
    50    45    33    1
    51    45    47    1
    52    45    56    1
    53    48    54    1
    54    50    59    1
    55    51    36    1
    56    52    35    1
    57    52    50    1
    58    54    30    1
    59    55    36    1
    60    55    50    1
    61    56    53    2
    62    57    28    1
    63    58    56    1
