@<TRIPOS>MOLECULE
outputs/IAG933/test6/raw/output_9633_IAG933_linker_design_.xyz
 43 46 0 0 0
SMALL
GASTEIGER

@<TRIPOS>ATOM
      1 C         -24.8550   -1.0120   30.1430 C.3     1  UNL1        0.0695
      2 C         -24.9730   -2.5050   29.7880 C.2     1  UNL1       -0.0185
      3 C         -23.9060   -3.1730   29.1460 C.2     1  UNL1       -0.0041
      4 C         -23.9890   -4.5490   28.8530 C.2     1  UNL1       -0.0003
      5 C         -25.1370   -5.2800   29.2050 C.2     1  UNL1       -0.0000
      6 C         -26.2320   -4.6110   29.7840 C.2     1  UNL1       -0.0003
      7 C         -26.1550   -3.2320   30.0650 C.2     1  UNL1       -0.0041
      8 C         -25.3870   -0.6790   31.5710 C.3     1  UNL1        0.0795
      9 C         -25.1890    0.7730   32.0280 C.3     1  UNL1        0.0193
     10 C         -25.3360    0.6840   33.5440 C.3     1  UNL1        0.0202
     11 C         -24.8290   -0.7150   33.9050 C.3     1  UNL1        0.0887
     12 N         -24.7580   -1.4810   32.6460 N.3     1  UNL1       -0.2190
     13 C         -25.6880    1.6140   26.4610 C.2     1  UNL1        0.0385
     14 C         -26.2500    2.9200   26.3950 C.2     1  UNL1        0.0766
     15 C         -25.6420    4.0930   27.1230 C.2     1  UNL1        0.2664
     16 N         -25.6140    5.2520   26.4490 N.am    1  UNL1       -0.1997
     17 C         -25.0260    6.4790   26.9630 C.3     1  UNL1        0.1388
     18 O         -25.1430    3.9660   28.2430 O.2     1  UNL1       -0.2683
     19 C         -27.4380    3.0910   25.6450 C.2     1  UNL1        0.1067
     20 N         -28.0750    2.0890   25.0030 N.2     1  UNL1       -0.2081
     21 C         -27.5430    0.8490   25.0790 C.2     1  UNL1        0.2533
     22 O         -28.1930   -0.2080   24.4770 O.2     1  UNL1       -0.4558
     23 C         -29.4600    0.0050   23.8660 C.3     1  UNL1        0.2426
     24 C         -30.0650   -1.3770   23.5730 C.3     1  UNL1        0.2292
     25 O         -30.7290   -1.8780   24.7210 O.3     1  UNL1       -0.2162
     26 C         -26.3540    0.5760   25.7770 C.2     1  UNL1        0.1931
     27 F         -25.8600   -0.6810   25.7950 F       1  UNL1       -0.1992
     28 C         -29.0285   -0.0859   28.4466 C.3     1  UNL1        0.0321
     29 C         -27.8838   -0.4521   29.4117 C.3     1  UNL1        0.1425
     30 C         -24.2689    0.5144   28.2696 C.2     1  UNL1        0.0222
     31 C         -25.2789   -0.3375   28.9783 C.3     1  UNL1        0.1417
     32 C         -24.3743    1.3459   27.0743 C.2     1  UNL1        0.0123
     33 C         -23.0932    1.7273   26.6974 C.2     1  UNL1        0.0835
     34 C         -29.6080    1.3122   28.5207 C.3     1  UNL1        0.0025
     35 C         -29.7004    3.0667   30.3543 C.3     1  UNL1        0.0000
     36 O         -26.6316   -0.4744   28.6416 O.3     1  UNL1       -0.3517
     37 C         -22.9117    0.6418   28.5878 C.3     1  UNL1        0.2318
     38 CL        -22.6284    2.4784   25.2350 Cl      1  UNL1       -0.0802
     39 C         -28.8201    2.2428   29.4175 C.3     1  UNL1        0.0001
     40 F         -22.3010    0.1449   29.6727 F       1  UNL1       -0.2253
     41 F         -20.8727    1.5356   27.6438 F       1  UNL1       -0.2048
     42 C         -22.1764    1.3518   27.6211 C.2     1  UNL1        0.1645
     43 C         -31.0386    1.4615   28.6538 C.3     1  UNL1        0.0001
@<TRIPOS>BOND
     1     1    31    1
     2     2     7    1
     3     2     1    1
     4     3     2    2
     5     4     3    1
     6     4     5    2
     7     5     6    1
     8     6     7    2
     9     8     1    1
    10     8     9    1
    11     8    12    1
    12     9    10    1
    13    10    11    1
    14    12    11    1
    15    13    32    1
    16    14    13    1
    17    14    15    1
    18    15    18    2
    19    16    17    1
    20    16    15    1
    21    19    14    2
    22    20    21    2
    23    20    19    1
    24    21    26    1
    25    22    21    1
    26    23    22    1
    27    24    23    1
    28    24    25    1
    29    26    27    1
    30    26    13    2
    31    28    34    1
    32    28    29    1
    33    30    37    1
    34    30    31    1
    35    31    36    1
    36    32    30    2
    37    33    32    1
    38    33    42    2
    39    34    43    1
    40    34    39    1
    41    36    29    1
    42    37    40    1
    43    38    33    1
    44    39    35    1
    45    42    41    1
    46    42    37    1
