@<TRIPOS>MOLECULE
outputs/IAG933/test6/raw/output_9636_IAG933_linker_design_.xyz
 46 49 0 0 0
SMALL
GASTEIGER

@<TRIPOS>ATOM
      1 C         -24.8550   -1.0120   30.1430 C.3     1  UNL1        0.0388
      2 C         -24.9730   -2.5050   29.7880 C.2     1  UNL1       -0.0211
      3 C         -23.9060   -3.1730   29.1460 C.2     1  UNL1       -0.0042
      4 C         -23.9890   -4.5490   28.8530 C.2     1  UNL1       -0.0003
      5 C         -25.1370   -5.2800   29.2050 C.2     1  UNL1       -0.0000
      6 C         -26.2320   -4.6110   29.7840 C.2     1  UNL1       -0.0003
      7 C         -26.1550   -3.2320   30.0650 C.2     1  UNL1       -0.0042
      8 C         -25.3870   -0.6790   31.5710 C.3     1  UNL1        0.0768
      9 C         -25.1890    0.7730   32.0280 C.3     1  UNL1        0.0192
     10 C         -25.3360    0.6840   33.5440 C.3     1  UNL1        0.0202
     11 C         -24.8290   -0.7150   33.9050 C.3     1  UNL1        0.0887
     12 N         -24.7580   -1.4810   32.6460 N.3     1  UNL1       -0.2191
     13 C         -25.6880    1.6140   26.4610 C.2     1  UNL1        0.0162
     14 C         -26.2500    2.9200   26.3950 C.2     1  UNL1        0.0726
     15 C         -25.6420    4.0930   27.1230 C.2     1  UNL1        0.2661
     16 N         -25.6140    5.2520   26.4490 N.am    1  UNL1       -0.1997
     17 C         -25.0260    6.4790   26.9630 C.3     1  UNL1        0.1388
     18 O         -25.1430    3.9660   28.2430 O.2     1  UNL1       -0.2683
     19 C         -27.4380    3.0910   25.6450 C.2     1  UNL1        0.1064
     20 N         -28.0750    2.0890   25.0030 N.2     1  UNL1       -0.2081
     21 C         -27.5430    0.8490   25.0790 C.2     1  UNL1        0.2530
     22 O         -28.1930   -0.2080   24.4770 O.2     1  UNL1       -0.4558
     23 C         -29.4600    0.0050   23.8660 C.3     1  UNL1        0.2426
     24 C         -30.0650   -1.3770   23.5730 C.3     1  UNL1        0.2292
     25 O         -30.7290   -1.8780   24.7210 O.3     1  UNL1       -0.2162
     26 C         -26.3540    0.5760   25.7770 C.2     1  UNL1        0.1891
     27 F         -25.8600   -0.6810   25.7950 F       1  UNL1       -0.1996
     28 C         -30.0284   -2.2106   30.2961 C.2     1  UNL1        0.1515
     29 C         -29.5639   -1.0749   31.2500 C.3     1  UNL1        0.0719
     30 C         -29.3817    2.5087   30.4474 C.3     1  UNL1        0.0325
     31 O         -29.3067   -0.1519   27.9823 O.2     1  UNL1       -0.2935
     32 C         -29.2173    0.0902   30.5195 C.3     1  UNL1        0.0675
     33 C         -26.5952   -0.4625   28.5594 C.3     1  UNL1        0.0379
     34 C         -28.2119    2.6011   29.3632 C.3     1  UNL1        0.1426
     35 C         -24.3399    1.3041   27.0439 C.3     1  UNL1        0.0346
     36 C         -25.2027   -0.0965   29.0143 C.3     1  UNL1        0.0139
     37 C         -21.5974    1.4087   27.7673 C.3     1  UNL1        0.0492
     38 C         -28.8041    0.1146   29.0928 C.2     1  UNL1        0.1774
     39 N         -22.2090   -0.2453   29.3907 N.2     1  UNL1       -0.1573
     40 C         -22.6881    0.6865   28.5703 C.2     1  UNL1        0.0586
     41 O         -29.4703   -3.3130   30.2373 O.2     1  UNL1       -0.2960
     42 C         -29.1670    1.2883   31.2919 C.3     1  UNL1        0.0104
     43 C         -31.1118   -1.7246   29.3742 C.3     1  UNL1        0.0723
     44 C         -24.1488    0.6851   28.3063 C.3     1  UNL1        0.0428
     45 C         -27.5077    0.6568   29.0128 C.3     1  UNL1        0.1720
     46 O         -27.0411    1.7897   29.4830 O.3     1  UNL1       -0.3489
@<TRIPOS>BOND
     1     1    36    1
     2     2     7    1
     3     2     1    1
     4     3     2    2
     5     4     3    1
     6     4     5    2
     7     5     6    1
     8     6     7    2
     9     8     1    1
    10     8     9    1
    11     8    12    1
    12     9    10    1
    13    10    11    1
    14    12    11    1
    15    13    35    1
    16    14    13    1
    17    14    15    1
    18    15    18    2
    19    16    17    1
    20    16    15    1
    21    19    14    2
    22    20    21    2
    23    20    19    1
    24    21    26    1
    25    22    21    1
    26    23    22    1
    27    24    23    1
    28    24    25    1
    29    26    27    1
    30    26    13    2
    31    28    29    1
    32    30    42    1
    33    31    38    2
    34    32    29    1
    35    32    42    1
    36    34    46    1
    37    34    30    1
    38    36    33    1
    39    37    40    1
    40    38    32    1
    41    40    39    2
    42    41    28    2
    43    43    28    1
    44    44    35    1
    45    44    40    1
    46    44    36    1
    47    45    33    1
    48    45    38    1
    49    45    46    1
