@<TRIPOS>MOLECULE
outputs/IAG933/test6/raw/output_9637_IAG933_linker_design_.xyz
 44 47 0 0 0
SMALL
GASTEIGER

@<TRIPOS>ATOM
      1 C         -24.8550   -1.0120   30.1430 C.3     1  UNL1        0.0584
      2 C         -24.9730   -2.5050   29.7880 C.2     1  UNL1       -0.0195
      3 C         -23.9060   -3.1730   29.1460 C.2     1  UNL1       -0.0042
      4 C         -23.9890   -4.5490   28.8530 C.2     1  UNL1       -0.0003
      5 C         -25.1370   -5.2800   29.2050 C.2     1  UNL1       -0.0000
      6 C         -26.2320   -4.6110   29.7840 C.2     1  UNL1       -0.0003
      7 C         -26.1550   -3.2320   30.0650 C.2     1  UNL1       -0.0042
      8 C         -25.3870   -0.6790   31.5710 C.3     1  UNL1        0.0785
      9 C         -25.1890    0.7730   32.0280 C.3     1  UNL1        0.0192
     10 C         -25.3360    0.6840   33.5440 C.3     1  UNL1        0.0202
     11 C         -24.8290   -0.7150   33.9050 C.3     1  UNL1        0.0887
     12 N         -24.7580   -1.4810   32.6460 N.3     1  UNL1       -0.2191
     13 C         -25.6880    1.6140   26.4610 C.2     1  UNL1        0.0159
     14 C         -26.2500    2.9200   26.3950 C.2     1  UNL1        0.0726
     15 C         -25.6420    4.0930   27.1230 C.2     1  UNL1        0.2661
     16 N         -25.6140    5.2520   26.4490 N.am    1  UNL1       -0.1997
     17 C         -25.0260    6.4790   26.9630 C.3     1  UNL1        0.1388
     18 O         -25.1430    3.9660   28.2430 O.2     1  UNL1       -0.2683
     19 C         -27.4380    3.0910   25.6450 C.2     1  UNL1        0.1064
     20 N         -28.0750    2.0890   25.0030 N.2     1  UNL1       -0.2081
     21 C         -27.5430    0.8490   25.0790 C.2     1  UNL1        0.2530
     22 O         -28.1930   -0.2080   24.4770 O.2     1  UNL1       -0.4558
     23 C         -29.4600    0.0050   23.8660 C.3     1  UNL1        0.2426
     24 C         -30.0650   -1.3770   23.5730 C.3     1  UNL1        0.2292
     25 O         -30.7290   -1.8780   24.7210 O.3     1  UNL1       -0.2162
     26 C         -26.3540    0.5760   25.7770 C.2     1  UNL1        0.1891
     27 F         -25.8600   -0.6810   25.7950 F       1  UNL1       -0.1996
     28 C         -30.0803    2.5964   28.7253 C.2     1  UNL1       -0.0003
     29 C         -22.4519    0.1907   28.6156 C.3     1  UNL1        0.0021
     30 N         -26.1078   -0.0101   28.3990 N.am    1  UNL1       -0.1701
     31 C         -28.9287    2.2292   29.5469 C.3     1  UNL1        0.0892
     32 C         -27.4041    0.0503   28.8151 C.2     1  UNL1        0.4211
     33 C         -24.7977    0.0415   29.1368 C.3     1  UNL1        0.1043
     34 C         -21.6976    1.4933   28.2222 C.3     1  UNL1        0.0001
     35 C         -28.1555    3.4372   29.5801 C.2     1  UNL1       -0.0169
     36 C         -24.2960    1.1562   26.9245 C.3     1  UNL1        0.0307
     37 O         -28.2298   -0.6160   28.2638 O.2     1  UNL1       -0.2246
     38 C         -23.7848    0.0053   27.8835 C.3     1  UNL1        0.0249
     39 C         -28.6142    1.1898   30.1445 C.3     1  UNL1        0.2188
     40 C         -28.7586    4.4442   28.8224 C.2     1  UNL1        0.0136
     41 O         -27.7523    1.1367   29.5779 O.3     1  UNL1       -0.4328
     42 N         -30.6125    4.4281   27.3806 N.pl3   1  UNL1       -0.1284
     43 C         -21.5017    1.9244   26.7566 C.3     1  UNL1        0.0000
     44 C         -29.8467    3.8665   28.2752 C.2     1  UNL1        0.0850
@<TRIPOS>BOND
     1     1    33    1
     2     2     7    1
     3     2     1    1
     4     3     2    2
     5     4     3    1
     6     4     5    2
     7     5     6    1
     8     6     7    2
     9     8     1    1
    10     8     9    1
    11     8    12    1
    12     9    10    1
    13    10    11    1
    14    12    11    1
    15    13    36    1
    16    14    13    1
    17    14    15    1
    18    15    18    2
    19    16    17    1
    20    16    15    1
    21    19    14    2
    22    20    21    2
    23    20    19    1
    24    21    26    1
    25    22    21    1
    26    23    22    1
    27    24    23    1
    28    24    25    1
    29    26    27    1
    30    26    13    2
    31    28    31    1
    32    30    32    1
    33    31    35    1
    34    31    39    1
    35    32    41    1
    36    33    30    1
    37    34    29    1
    38    37    32    2
    39    38    36    1
    40    38    29    1
    41    38    33    1
    42    40    35    2
    43    41    39    1
    44    42    44    1
    45    43    34    1
    46    44    28    2
    47    44    40    1
