@<TRIPOS>MOLECULE
outputs/IAG933/test6/raw/output_9640_IAG933_linker_design_.xyz
 41 44 0 0 0
SMALL
GASTEIGER

@<TRIPOS>ATOM
      1 C         -24.8550   -1.0120   30.1430 C.3     1  UNL1        0.0598
      2 C         -24.9730   -2.5050   29.7880 C.2     1  UNL1       -0.0197
      3 C         -23.9060   -3.1730   29.1460 C.2     1  UNL1       -0.0042
      4 C         -23.9890   -4.5490   28.8530 C.2     1  UNL1       -0.0003
      5 C         -25.1370   -5.2800   29.2050 C.2     1  UNL1       -0.0000
      6 C         -26.2320   -4.6110   29.7840 C.2     1  UNL1       -0.0003
      7 C         -26.1550   -3.2320   30.0650 C.2     1  UNL1       -0.0042
      8 C         -25.3870   -0.6790   31.5710 C.3     1  UNL1        0.0783
      9 C         -25.1890    0.7730   32.0280 C.3     1  UNL1        0.0192
     10 C         -25.3360    0.6840   33.5440 C.3     1  UNL1        0.0202
     11 C         -24.8290   -0.7150   33.9050 C.3     1  UNL1        0.0887
     12 N         -24.7580   -1.4810   32.6460 N.3     1  UNL1       -0.2191
     13 C         -25.6880    1.6140   26.4610 C.3     1  UNL1        0.0924
     14 C         -26.2500    2.9200   26.3950 C.2     1  UNL1        0.0589
     15 C         -25.6420    4.0930   27.1230 C.2     1  UNL1        0.2628
     16 N         -25.6140    5.2520   26.4490 N.am    1  UNL1       -0.2000
     17 C         -25.0260    6.4790   26.9630 C.3     1  UNL1        0.1388
     18 O         -25.1430    3.9660   28.2430 O.2     1  UNL1       -0.2686
     19 C         -27.4380    3.0910   25.6450 C.2     1  UNL1        0.1025
     20 N         -28.0750    2.0890   25.0030 N.2     1  UNL1       -0.2118
     21 C         -27.5430    0.8490   25.0790 C.2     1  UNL1        0.2344
     22 O         -28.1930   -0.2080   24.4770 O.2     1  UNL1       -0.4585
     23 C         -29.4600    0.0050   23.8660 C.3     1  UNL1        0.2423
     24 C         -30.0650   -1.3770   23.5730 C.3     1  UNL1        0.2292
     25 O         -30.7290   -1.8780   24.7210 O.3     1  UNL1       -0.2162
     26 C         -26.3540    0.5760   25.7770 C.3     1  UNL1        0.2440
     27 F         -25.8600   -0.6810   25.7950 F       1  UNL1       -0.2265
     28 C         -22.3886    1.0282   27.7053 C.2     1  UNL1        0.0405
     29 N         -27.8650   -0.7777   28.5173 N.1     1  UNL1       -0.1954
     30 C         -22.2035    2.2385   25.5978 C.2     1  UNL1        0.0291
     31 C         -24.3366    1.6096   26.5593 C.2     1  UNL1       -0.0123
     32 C         -23.7557    1.2019   27.7172 C.2     1  UNL1        0.0328
     33 C         -24.7320    1.1095   28.8191 C.2     1  UNL1        0.1867
     34 C         -21.8187    0.0803   28.6320 C.3     1  UNL1        0.2109
     35 C         -25.4431   -0.0328   29.1717 C.3     1  UNL1        0.1580
     36 O         -22.2753   -0.5168   29.6806 O.3     1  UNL1       -0.2151
     37 O         -24.8693    2.1537   29.5428 O.2     1  UNL1       -0.2903
     38 C         -26.7556   -0.3551   28.7651 C.1     1  UNL1        0.0803
     39 C         -21.6068    1.7967   26.7877 C.2     1  UNL1        0.1387
     40 C         -23.5779    2.1147   25.4790 C.2     1  UNL1       -0.0015
     41 F         -20.3489    2.1302   27.1087 F       1  UNL1       -0.2044
@<TRIPOS>BOND
     1     1    35    1
     2     2     7    1
     3     2     1    1
     4     3     2    2
     5     4     3    1
     6     4     5    2
     7     5     6    1
     8     6     7    2
     9     8     1    1
    10     8     9    1
    11     8    12    1
    12     9    10    1
    13    10    11    1
    14    12    11    1
    15    13    31    1
    16    14    13    1
    17    14    15    1
    18    15    18    2
    19    16    17    1
    20    16    15    1
    21    19    14    2
    22    20    21    2
    23    20    19    1
    24    21    26    1
    25    22    21    1
    26    23    22    1
    27    24    23    1
    28    24    25    1
    29    26    27    1
    30    26    13    1
    31    28    32    1
    32    28    34    1
    33    29    38    3
    34    30    39    1
    35    31    32    2
    36    32    33    1
    37    33    35    1
    38    33    37    2
    39    34    36    1
    40    35    38    1
    41    39    41    1
    42    39    28    2
    43    40    30    2
    44    40    31    1
