@<TRIPOS>MOLECULE
outputs/IAG933/test6/raw/output_9641_IAG933_linker_design_.xyz
 45 49 0 0 0
SMALL
GASTEIGER

@<TRIPOS>ATOM
      1 C         -24.8550   -1.0120   30.1430 C.3     1  UNL1        0.0521
      2 C         -24.9730   -2.5050   29.7880 C.2     1  UNL1       -0.0200
      3 C         -23.9060   -3.1730   29.1460 C.2     1  UNL1       -0.0042
      4 C         -23.9890   -4.5490   28.8530 C.2     1  UNL1       -0.0003
      5 C         -25.1370   -5.2800   29.2050 C.2     1  UNL1       -0.0000
      6 C         -26.2320   -4.6110   29.7840 C.2     1  UNL1       -0.0003
      7 C         -26.1550   -3.2320   30.0650 C.2     1  UNL1       -0.0042
      8 C         -25.3870   -0.6790   31.5710 C.3     1  UNL1        0.0779
      9 C         -25.1890    0.7730   32.0280 C.3     1  UNL1        0.0192
     10 C         -25.3360    0.6840   33.5440 C.3     1  UNL1        0.0202
     11 C         -24.8290   -0.7150   33.9050 C.3     1  UNL1        0.0887
     12 N         -24.7580   -1.4810   32.6460 N.3     1  UNL1       -0.2191
     13 C         -25.6880    1.6140   26.4610 C.2     1  UNL1        0.0257
     14 C         -26.2500    2.9200   26.3950 C.2     1  UNL1        0.0733
     15 C         -25.6420    4.0930   27.1230 C.2     1  UNL1        0.2661
     16 N         -25.6140    5.2520   26.4490 N.am    1  UNL1       -0.1997
     17 C         -25.0260    6.4790   26.9630 C.3     1  UNL1        0.1388
     18 O         -25.1430    3.9660   28.2430 O.2     1  UNL1       -0.2683
     19 C         -27.4380    3.0910   25.6450 C.2     1  UNL1        0.1064
     20 N         -28.0750    2.0890   25.0030 N.2     1  UNL1       -0.2081
     21 C         -27.5430    0.8490   25.0790 C.2     1  UNL1        0.2530
     22 O         -28.1930   -0.2080   24.4770 O.2     1  UNL1       -0.4558
     23 C         -29.4600    0.0050   23.8660 C.3     1  UNL1        0.2426
     24 C         -30.0650   -1.3770   23.5730 C.3     1  UNL1        0.2292
     25 O         -30.7290   -1.8780   24.7210 O.3     1  UNL1       -0.2162
     26 C         -26.3540    0.5760   25.7770 C.2     1  UNL1        0.1898
     27 F         -25.8600   -0.6810   25.7950 F       1  UNL1       -0.1996
     28 C         -23.2744    1.8002   26.3105 C.2     1  UNL1        0.1252
     29 C         -29.1239    2.4976   29.9786 C.3     1  UNL1        0.0728
     30 N         -28.8933    1.1155   30.4994 N.3     1  UNL1       -0.2654
     31 C         -30.0272    0.4639   31.2612 C.3     1  UNL1        0.0728
     32 C         -21.3622    1.5673   27.9189 C.2     1  UNL1        0.0020
     33 C         -24.3759    0.5368   28.2543 C.2     1  UNL1       -0.0241
     34 C         -21.9735    0.8019   28.8881 C.2     1  UNL1       -0.0005
     35 C         -25.5299   -0.2225   29.0286 C.3     1  UNL1        0.0731
     36 C         -30.3798    2.9108   30.7042 C.3     1  UNL1        0.0174
     37 F         -23.4438    2.1884   25.0390 F       1  UNL1       -0.2082
     38 C         -23.2477    0.3344   29.0168 C.2     1  UNL1       -0.0070
     39 C         -31.4997    1.8797   30.4811 C.3     1  UNL1        0.0029
     40 C         -24.4089    1.2884   27.0645 C.3     1  UNL1        0.0940
     41 C         -31.1299    0.4778   30.5523 C.3     1  UNL1        0.0174
     42 S         -26.8367    1.0278   29.2113 S.3     1  UNL1       -0.1211
     43 C         -28.4355   -1.1804   29.1870 C.3     1  UNL1        0.0295
     44 C         -21.9494    1.9800   26.7291 C.2     1  UNL1        0.0258
     45 C         -28.5831    0.3450   29.3558 C.3     1  UNL1        0.1063
@<TRIPOS>BOND
     1     1    35    1
     2     2     7    1
     3     2     1    1
     4     3     2    2
     5     4     3    1
     6     4     5    2
     7     5     6    1
     8     6     7    2
     9     8     1    1
    10     8     9    1
    11     8    12    1
    12     9    10    1
    13    10    11    1
    14    12    11    1
    15    14    13    1
    16    14    15    1
    17    15    18    2
    18    16    17    1
    19    16    15    1
    20    19    14    2
    21    20    21    2
    22    20    19    1
    23    21    26    1
    24    22    21    1
    25    23    22    1
    26    24    23    1
    27    24    25    1
    28    26    27    1
    29    26    13    2
    30    28    44    2
    31    28    40    1
    32    29    30    1
    33    29    36    1
    34    30    31    1
    35    32    34    2
    36    33    38    2
    37    33    35    1
    38    34    38    1
    39    35    42    1
    40    37    28    1
    41    39    41    1
    42    39    36    1
    43    40    13    1
    44    40    33    1
    45    41    31    1
    46    42    45    1
    47    44    32    1
    48    45    43    1
    49    45    30    1
