@<TRIPOS>MOLECULE
outputs/IAG933/test6/raw/output_9642_IAG933_linker_design_.xyz
 48 53 0 0 0
SMALL
GASTEIGER

@<TRIPOS>ATOM
      1 C         -24.8550   -1.0120   30.1430 C.3     1  UNL1        0.0445
      2 C         -24.9730   -2.5050   29.7880 C.2     1  UNL1       -0.0208
      3 C         -23.9060   -3.1730   29.1460 C.2     1  UNL1       -0.0042
      4 C         -23.9890   -4.5490   28.8530 C.2     1  UNL1       -0.0003
      5 C         -25.1370   -5.2800   29.2050 C.2     1  UNL1       -0.0000
      6 C         -26.2320   -4.6110   29.7840 C.2     1  UNL1       -0.0003
      7 C         -26.1550   -3.2320   30.0650 C.2     1  UNL1       -0.0042
      8 C         -25.3870   -0.6790   31.5710 C.3     1  UNL1        0.0772
      9 C         -25.1890    0.7730   32.0280 C.3     1  UNL1        0.0192
     10 C         -25.3360    0.6840   33.5440 C.3     1  UNL1        0.0202
     11 C         -24.8290   -0.7150   33.9050 C.3     1  UNL1        0.0887
     12 N         -24.7580   -1.4810   32.6460 N.3     1  UNL1       -0.2191
     13 C         -25.6880    1.6140   26.4610 C.2     1  UNL1        0.0368
     14 C         -26.2500    2.9200   26.3950 C.2     1  UNL1        0.0763
     15 C         -25.6420    4.0930   27.1230 C.2     1  UNL1        0.2664
     16 N         -25.6140    5.2520   26.4490 N.am    1  UNL1       -0.1997
     17 C         -25.0260    6.4790   26.9630 C.3     1  UNL1        0.1388
     18 O         -25.1430    3.9660   28.2430 O.2     1  UNL1       -0.2683
     19 C         -27.4380    3.0910   25.6450 C.2     1  UNL1        0.1067
     20 N         -28.0750    2.0890   25.0030 N.2     1  UNL1       -0.2081
     21 C         -27.5430    0.8490   25.0790 C.2     1  UNL1        0.2533
     22 O         -28.1930   -0.2080   24.4770 O.2     1  UNL1       -0.4558
     23 C         -29.4600    0.0050   23.8660 C.3     1  UNL1        0.2426
     24 C         -30.0650   -1.3770   23.5730 C.3     1  UNL1        0.2292
     25 O         -30.7290   -1.8780   24.7210 O.3     1  UNL1       -0.2162
     26 C         -26.3540    0.5760   25.7770 C.2     1  UNL1        0.1928
     27 F         -25.8600   -0.6810   25.7950 F       1  UNL1       -0.1992
     28 N         -24.6184    7.2014   31.9514 N.2     1  UNL1       -0.1575
     29 N         -27.5429    4.6817   29.2016 N.3     1  UNL1       -0.2191
     30 C         -25.3624   -0.1176   29.0506 C.3     1  UNL1        0.0537
     31 C         -28.2604    2.8673   30.5259 C.3     1  UNL1        0.0221
     32 N         -23.1510    0.9044   28.8543 N.2     1  UNL1       -0.2652
     33 C         -22.4275    1.5162   27.8216 C.2     1  UNL1        0.1045
     34 C         -24.6113    5.2664   32.8331 C.2     1  UNL1        0.1056
     35 C         -28.6835    4.0836   28.4419 C.3     1  UNL1        0.0887
     36 N         -24.0232    6.4442   32.8740 N.pl3   1  UNL1       -0.1160
     37 C         -26.2893    4.0367   31.4203 C.3     1  UNL1        0.0468
     38 C         -25.4951    6.5582   31.2235 C.2     1  UNL1        0.1167
     39 C         -23.3569    1.6867   26.9190 C.2     1  UNL1        0.0742
     40 C         -25.5022    5.2776   31.7991 C.2     1  UNL1        0.0182
     41 C         -27.9645    0.4593   29.4005 C.2     1  UNL1       -0.0306
     42 C         -27.0610    3.7667   30.2226 C.3     1  UNL1        0.0775
     43 C         -26.8018   -0.1650   28.8272 C.2     1  UNL1       -0.0284
     44 C         -27.8332    1.3828   30.6300 C.3     1  UNL1        0.0271
     45 CL        -23.0180    2.5148   25.3157 Cl      1  UNL1       -0.0809
     46 C         -24.5140    1.2880   27.2512 C.2     1  UNL1        0.0147
     47 C         -24.4173    0.7359   28.4506 C.3     1  UNL1        0.1307
     48 C         -29.1958    2.9532   29.2917 C.3     1  UNL1        0.0205
@<TRIPOS>BOND
     1     1    30    1
     2     2     7    1
     3     2     1    1
     4     3     2    2
     5     4     3    1
     6     4     5    2
     7     5     6    1
     8     6     7    2
     9     8     1    1
    10     8     9    1
    11     8    12    1
    12     9    10    1
    13    10    11    1
    14    12    11    1
    15    13    46    1
    16    14    13    1
    17    14    15    1
    18    15    18    2
    19    16    17    1
    20    16    15    1
    21    19    14    2
    22    20    21    2
    23    20    19    1
    24    21    26    1
    25    22    21    1
    26    23    22    1
    27    24    23    1
    28    24    25    1
    29    26    27    1
    30    26    13    2
    31    28    36    1
    32    29    42    1
    33    30    43    1
    34    31    44    1
    35    33    32    2
    36    34    36    1
    37    35    29    1
    38    35    48    1
    39    37    40    1
    40    38    40    1
    41    38    28    2
    42    39    46    2
    43    39    33    1
    44    40    34    2
    45    41    44    1
    46    42    31    1
    47    42    37    1
    48    43    41    2
    49    45    39    1
    50    46    47    1
    51    47    32    1
    52    47    30    1
    53    48    31    1
