@<TRIPOS>MOLECULE
outputs/IAG933/test6/raw/output_9643_IAG933_linker_design_.xyz
 43 46 0 0 0
SMALL
GASTEIGER

@<TRIPOS>ATOM
      1 C         -24.8550   -1.0120   30.1430 C.3     0  UNK0        0.1142
      2 C         -24.9730   -2.5050   29.7880 C.2     0  UNK0       -0.0050
      3 C         -23.9060   -3.1730   29.1460 C.2     0  UNK0       -0.0029
      4 C         -23.9890   -4.5490   28.8530 C.2     0  UNK0       -0.0003
      5 C         -25.1370   -5.2800   29.2050 C.2     0  UNK0       -0.0000
      6 C         -26.2320   -4.6110   29.7840 C.2     0  UNK0       -0.0003
      7 C         -26.1550   -3.2320   30.0650 C.2     0  UNK0       -0.0029
      8 C         -25.3870   -0.6790   31.5710 C.3     0  UNK0        0.0930
      9 C         -25.1890    0.7730   32.0280 C.3     0  UNK0        0.0206
     10 C         -25.3360    0.6840   33.5440 C.3     0  UNK0        0.0203
     11 C         -24.8290   -0.7150   33.9050 C.3     0  UNK0        0.0888
     12 N         -24.7580   -1.4810   32.6460 N.3     0  UNK0       -0.2177
     13 C         -25.6880    1.6140   26.4610 C.3     0  UNK0        0.1455
     14 C         -26.2500    2.9200   26.3950 C.2     0  UNK0        0.0731
     15 C         -25.6420    4.0930   27.1230 C.2     0  UNK0        0.2640
     16 N         -25.6140    5.2520   26.4490 N.am    0  UNK0       -0.1999
     17 C         -25.0260    6.4790   26.9630 C.3     0  UNK0        0.1388
     18 O         -25.1430    3.9660   28.2430 O.2     0  UNK0       -0.2686
     19 C         -27.4380    3.0910   25.6450 C.2     0  UNK0        0.1038
     20 N         -28.0750    2.0890   25.0030 N.2     0  UNK0       -0.2118
     21 C         -27.5430    0.8490   25.0790 C.2     0  UNK0        0.2358
     22 O         -28.1930   -0.2080   24.4770 O.2     0  UNK0       -0.4585
     23 C         -29.4600    0.0050   23.8660 C.3     0  UNK0        0.2423
     24 C         -30.0650   -1.3770   23.5730 C.3     0  UNK0        0.2292
     25 O         -30.7290   -1.8780   24.7210 O.3     0  UNK0       -0.2162
     26 C         -26.3540    0.5760   25.7770 C.3     0  UNK0        0.2581
     27 F         -25.8600   -0.6810   25.7950 F       0  UNK0       -0.2251
     28 O         -21.4228    1.2724   27.1348 O.2     0  UNK0       -0.4452
     29 N         -24.9133    1.1963   27.6884 N.pl3   0  UNK0       -0.2710
     30 C         -22.7850    1.3366   27.1998 C.3     0  UNK0        0.3266
     31 O         -23.4059    2.1316   26.3342 O.3     0  UNK0       -0.3135
     32 CB        -28.1119    2.3350   31.0536 C.3     1  ALA1        0.0609
     33 C         -21.4593    0.0222   29.1305 C.2     0  UNK0        0.0413
     34 C         -22.8182    0.0485   29.1297 C.2     0  UNK0        0.0196
     35 C         -25.5961    0.9554   28.8416 C.3     0  UNK0        0.2482
     36 CA        -27.4445    1.5161   30.0471 C.2     1  ALA1        0.1207
     37 O         -28.3208   -0.6845   28.7948 O.2     1  ALA1       -0.2301
     38 C         -23.2033    2.4838   25.2868 C.3     0  UNK0        0.1784
     39 N         -25.5733   -0.3540   29.0859 N.3     0  UNK0       -0.1763
     40 C         -23.5337    0.7789   28.0697 C.2     0  UNK0        0.0981
     41 C         -28.0527    0.4203   29.4365 C.1     1  ALA1        0.1452
     42 C         -20.7854    0.6425   28.1031 C.2     0  UNK0        0.1755
     43 N         -26.2159    1.8261   29.6151 N.pl3   1  ALA1       -0.1968
@<TRIPOS>BOND
     1     1    39    1
     2     2     7    1
     3     2     1    1
     4     3     2    2
     5     4     3    1
     6     4     5    2
     7     5     6    1
     8     6     7    2
     9     8     1    1
    10     8     9    1
    11     8    12    1
    12     9    10    1
    13    10    11    1
    14    12    11    1
    15    13    29    1
    16    14    13    1
    17    14    15    1
    18    15    18    2
    19    16    17    1
    20    16    15    1
    21    19    14    2
    22    20    21    2
    23    20    19    1
    24    21    26    1
    25    22    21    1
    26    23    22    1
    27    24    23    1
    28    24    25    1
    29    26    27    1
    30    26    13    1
    31    28    30    1
    32    28    42    1
    33    29    40    1
    34    29    35    1
    35    30    31    1
    36    30    40    1
    37    34    33    1
    38    35    39    1
    39    35    43    1
    40    36    32    1
    41    37    41    2
    42    38    31    1
    43    40    34    2
    44    41    36    2
    45    42    33    2
    46    43    36    1
