@<TRIPOS>MOLECULE
outputs/IAG933/test6/raw/output_9647_IAG933_linker_design_.xyz
 42 46 0 0 0
SMALL
GASTEIGER

@<TRIPOS>ATOM
      1 C         -24.8550   -1.0120   30.1430 C.3     1  UNL1        0.1152
      2 C         -24.9730   -2.5050   29.7880 C.2     1  UNL1       -0.0029
      3 C         -23.9060   -3.1730   29.1460 C.2     1  UNL1       -0.0026
      4 C         -23.9890   -4.5490   28.8530 C.2     1  UNL1       -0.0003
      5 C         -25.1370   -5.2800   29.2050 C.2     1  UNL1       -0.0000
      6 C         -26.2320   -4.6110   29.7840 C.2     1  UNL1       -0.0003
      7 C         -26.1550   -3.2320   30.0650 C.2     1  UNL1       -0.0026
      8 C         -25.3870   -0.6790   31.5710 C.3     1  UNL1        0.0952
      9 C         -25.1890    0.7730   32.0280 C.3     1  UNL1        0.0209
     10 C         -25.3360    0.6840   33.5440 C.3     1  UNL1        0.0203
     11 C         -24.8290   -0.7150   33.9050 C.3     1  UNL1        0.0888
     12 N         -24.7580   -1.4810   32.6460 N.3     1  UNL1       -0.2174
     13 C         -25.6880    1.6140   26.4610 C.2     1  UNL1        0.0878
     14 C         -26.2500    2.9200   26.3950 C.2     1  UNL1        0.0899
     15 C         -25.6420    4.0930   27.1230 C.2     1  UNL1        0.2676
     16 N         -25.6140    5.2520   26.4490 N.am    1  UNL1       -0.1997
     17 C         -25.0260    6.4790   26.9630 C.3     1  UNL1        0.1388
     18 O         -25.1430    3.9660   28.2430 O.2     1  UNL1       -0.2683
     19 C         -27.4380    3.0910   25.6450 C.2     1  UNL1        0.1080
     20 N         -28.0750    2.0890   25.0030 N.2     1  UNL1       -0.2080
     21 C         -27.5430    0.8490   25.0790 C.2     1  UNL1        0.2546
     22 O         -28.1930   -0.2080   24.4770 O.2     1  UNL1       -0.4558
     23 C         -29.4600    0.0050   23.8660 C.3     1  UNL1        0.2426
     24 C         -30.0650   -1.3770   23.5730 C.3     1  UNL1        0.2292
     25 O         -30.7290   -1.8780   24.7210 O.3     1  UNL1       -0.2162
     26 C         -26.3540    0.5760   25.7770 C.2     1  UNL1        0.2063
     27 F         -25.8600   -0.6810   25.7950 F       1  UNL1       -0.1979
     28 C         -29.2071    0.9123   28.6893 C.3     1  UNL1        0.1917
     29 C         -26.8126   -0.0509   28.9304 C.2     1  UNL1        0.2296
     30 O         -21.5178    1.5891   26.0481 O.3     1  UNL1       -0.4473
     31 C         -21.2367    1.4041   27.4149 C.3     1  UNL1        0.2107
     32 N         -25.4674   -0.0317   29.2132 N.am    1  UNL1       -0.2612
     33 C         -22.4883    1.0910   28.1054 C.3     1  UNL1        0.0763
     34 N         -24.7178    1.2353   27.3196 N.pl3   1  UNL1       -0.2832
     35 C         -24.5970    0.0896   28.3141 C.3     1  UNL1        0.1529
     36 C         -23.5744    1.4019   27.1099 C.3     1  UNL1        0.1775
     37 C         -23.0282    0.4108   29.1819 C.3     1  UNL1        0.0468
     38 O         -27.3892   -1.0204   28.4358 O.2     1  UNL1       -0.2747
     39 C         -27.7348    1.1947   29.1548 C.3     1  UNL1        0.1208
     40 O         -29.9196   -0.0467   29.4680 O.3     1  UNL1       -0.2199
     41 O         -23.3658    1.6579   24.6295 O.2     1  UNL1       -0.2483
     42 C         -22.9027    1.5783   25.8527 C.2     1  UNL1        0.3353
@<TRIPOS>BOND
     1     1    32    1
     2     2     7    1
     3     2     1    1
     4     3     2    2
     5     4     3    1
     6     4     5    2
     7     5     6    1
     8     6     7    2
     9     8     1    1
    10     8     9    1
    11     8    12    1
    12     9    10    1
    13    10    11    1
    14    12    11    1
    15    13    34    1
    16    14    13    1
    17    14    15    1
    18    15    18    2
    19    16    17    1
    20    16    15    1
    21    19    14    2
    22    20    21    2
    23    20    19    1
    24    21    26    1
    25    22    21    1
    26    23    22    1
    27    24    23    1
    28    24    25    1
    29    26    27    1
    30    26    13    2
    31    28    39    1
    32    28    40    1
    33    29    39    1
    34    29    32   am
    35    30    31    1
    36    33    31    1
    37    33    37    1
    38    34    35    1
    39    35    37    1
    40    35    32    1
    41    36    42    1
    42    36    34    1
    43    36    33    1
    44    38    29    2
    45    41    42    2
    46    42    30    1
