@<TRIPOS>MOLECULE
outputs/IAG933/test6/raw/output_9649_IAG933_linker_design_.xyz
 39 43 0 0 0
SMALL
GASTEIGER

@<TRIPOS>ATOM
      1 C         -24.8550   -1.0120   30.1430 C.3     1  UNL1        0.0997
      2 C         -24.9730   -2.5050   29.7880 C.2     1  UNL1       -0.0139
      3 C         -23.9060   -3.1730   29.1460 C.2     1  UNL1       -0.0038
      4 C         -23.9890   -4.5490   28.8530 C.2     1  UNL1       -0.0003
      5 C         -25.1370   -5.2800   29.2050 C.2     1  UNL1       -0.0000
      6 C         -26.2320   -4.6110   29.7840 C.2     1  UNL1       -0.0003
      7 C         -26.1550   -3.2320   30.0650 C.2     1  UNL1       -0.0038
      8 C         -25.3870   -0.6790   31.5710 C.3     1  UNL1        0.0841
      9 C         -25.1890    0.7730   32.0280 C.3     1  UNL1        0.0196
     10 C         -25.3360    0.6840   33.5440 C.3     1  UNL1        0.0203
     11 C         -24.8290   -0.7150   33.9050 C.3     1  UNL1        0.0887
     12 N         -24.7580   -1.4810   32.6460 N.3     1  UNL1       -0.2187
     13 C         -25.6880    1.6140   26.4610 C.2     1  UNL1        0.0379
     14 C         -26.2500    2.9200   26.3950 C.2     1  UNL1        0.0765
     15 C         -25.6420    4.0930   27.1230 C.2     1  UNL1        0.2664
     16 N         -25.6140    5.2520   26.4490 N.am    1  UNL1       -0.1997
     17 C         -25.0260    6.4790   26.9630 C.3     1  UNL1        0.1388
     18 O         -25.1430    3.9660   28.2430 O.2     1  UNL1       -0.2683
     19 C         -27.4380    3.0910   25.6450 C.2     1  UNL1        0.1067
     20 N         -28.0750    2.0890   25.0030 N.2     1  UNL1       -0.2081
     21 C         -27.5430    0.8490   25.0790 C.2     1  UNL1        0.2533
     22 O         -28.1930   -0.2080   24.4770 O.2     1  UNL1       -0.4558
     23 C         -29.4600    0.0050   23.8660 C.3     1  UNL1        0.2426
     24 C         -30.0650   -1.3770   23.5730 C.3     1  UNL1        0.2292
     25 O         -30.7290   -1.8780   24.7210 O.3     1  UNL1       -0.2162
     26 C         -26.3540    0.5760   25.7770 C.2     1  UNL1        0.1930
     27 F         -25.8600   -0.6810   25.7950 F       1  UNL1       -0.1992
     28 C         -22.4757    1.0392   27.7443 C.2     1  UNL1        0.0730
     29 C         -23.1282    2.2775   25.7999 C.2     1  UNL1        0.0504
     30 C         -21.8579    2.6983   25.6625 C.2     1  UNL1        0.2360
     31 N         -20.1550    1.2292   28.4088 N.pl3   1  UNL1        0.2160
     32 N         -20.9034    2.2930   26.5202 N.2     1  UNL1       -0.0290
     33 C         -21.1739    1.5121   27.5595 C.2     1  UNL1        0.4117
     34 C         -24.5289    0.3973   28.3034 C.2     1  UNL1        0.0176
     35 C         -25.4407   -0.2719   29.0261 C.2     1  UNL1        0.1744
     36 C         -24.6379    1.1474   27.3084 C.2     1  UNL1        0.0017
     37 O         -26.6439   -0.3341   28.7315 O.2     1  UNL1       -0.2913
     38 C         -23.4114    1.4845   26.8760 C.2     1  UNL1        0.0074
     39 C         -23.1695    0.2324   28.6903 C.3     1  UNL1        0.0633
@<TRIPOS>BOND
     1     1    35    1
     2     2     7    1
     3     2     1    1
     4     3     2    2
     5     4     3    1
     6     4     5    2
     7     5     6    1
     8     6     7    2
     9     8     1    1
    10     8     9    1
    11     8    12    1
    12     9    10    1
    13    10    11    1
    14    12    11    1
    15    13    36    1
    16    14    13    1
    17    14    15    1
    18    15    18    2
    19    16    17    1
    20    16    15    1
    21    19    14    2
    22    20    21    2
    23    20    19    1
    24    21    26    1
    25    22    21    1
    26    23    22    1
    27    24    23    1
    28    24    25    1
    29    26    27    1
    30    26    13    2
    31    28    39    1
    32    29    38    1
    33    30    29    2
    34    30    32    1
    35    32    33    2
    36    33    28    1
    37    33    31    1
    38    34    39    1
    39    34    35    1
    40    36    34    2
    41    37    35    2
    42    38    36    1
    43    38    28    2
