@<TRIPOS>MOLECULE
No_965-gen_results/8p0m/2024-11-27-11-27-31/
 21 22 0 0 0
SMALL
GASTEIGER

@<TRIPOS>ATOM
      1 C         -28.0162   -0.8135   28.8779 C.2     1  UNL1        0.0021
      2 C         -27.0636   -0.1189   28.6079 C.2     1  UNL1       -0.0457
      3 C         -26.9716    0.7139   27.5060 C.3     1  UNL1        0.0223
      4 C         -25.8205    1.4909   27.1160 C.3     1  UNL1        0.0156
      5 C         -24.8579    1.3421   27.6008 C.3     1  UNL1        0.1041
      6 C         -24.6224    0.5295   28.8144 C.3     1  UNL1        0.0156
      7 C         -25.7344   -0.1811   29.1908 C.3     1  UNL1        0.0223
      8 C         -29.1895   -0.0776   29.4325 C.3     1  UNL1        0.1952
      9 C         -29.3805   -0.0403   30.6562 C.2     1  UNL1        0.0064
     10 O         -30.3496   -0.6830   28.7029 O.3     1  UNL1       -0.2134
     11 C         -23.5445    2.1815   27.3054 C.2     1  UNL1        0.3643
     12 O         -23.4225    2.5271   26.0661 O.co2   1  UNL1       -0.2457
     13 O         -22.5370    2.2867   28.0874 O.co2   1  UNL1       -0.2457
     14 C         -28.8029   -0.8167   31.6306 C.2     1  UNL1       -0.0231
     15 C         -28.8042   -0.5040   32.9876 C.3     1  UNL1        0.0521
     16 C         -28.0002   -1.0538   33.8469 C.ar    1  UNL1       -0.0178
     17 C         -28.0941   -0.6734   35.2511 C.ar    1  UNL1       -0.0039
     18 C         -27.1560   -1.0178   36.1786 C.ar    1  UNL1       -0.0003
     19 C         -25.9124   -1.6205   35.7268 C.ar    1  UNL1       -0.0000
     20 C         -25.5665   -1.4552   34.4156 C.ar    1  UNL1       -0.0003
     21 C         -26.4663   -0.7837   33.6368 C.ar    1  UNL1       -0.0039
@<TRIPOS>BOND
     1     1     2    2
     2     2     3    1
     3     3     4    1
     4     4     5    1
     5     5     6    1
     6     2     7    1
     7     6     7    1
     8     1     8    1
     9     8     9    1
    10     8    10    1
    11     5    11    1
    12    11    12   ar
    13    11    13   ar
    14     9    14    2
    15    14    15    1
    16    15    16    1
    17    16    17   ar
    18    17    18   ar
    19    18    19   ar
    20    19    20   ar
    21    20    21   ar
    22    21    16   ar
