@<TRIPOS>MOLECULE
outputs/IAG933/test6/raw/output_9653_IAG933_linker_design_.xyz
 42 46 0 0 0
SMALL
GASTEIGER

@<TRIPOS>ATOM
      1 C         -24.8550   -1.0120   30.1430 C.3     1  UNL1        0.0509
      2 C         -24.9730   -2.5050   29.7880 C.2     1  UNL1       -0.0204
      3 C         -23.9060   -3.1730   29.1460 C.2     1  UNL1       -0.0042
      4 C         -23.9890   -4.5490   28.8530 C.2     1  UNL1       -0.0003
      5 C         -25.1370   -5.2800   29.2050 C.2     1  UNL1       -0.0000
      6 C         -26.2320   -4.6110   29.7840 C.2     1  UNL1       -0.0003
      7 C         -26.1550   -3.2320   30.0650 C.2     1  UNL1       -0.0042
      8 C         -25.3870   -0.6790   31.5710 C.3     1  UNL1        0.0776
      9 C         -25.1890    0.7730   32.0280 C.3     1  UNL1        0.0192
     10 C         -25.3360    0.6840   33.5440 C.3     1  UNL1        0.0202
     11 C         -24.8290   -0.7150   33.9050 C.3     1  UNL1        0.0887
     12 N         -24.7580   -1.4810   32.6460 N.3     1  UNL1       -0.2191
     13 C         -25.6880    1.6140   26.4610 C.2     1  UNL1        0.0418
     14 C         -26.2500    2.9200   26.3950 C.2     1  UNL1        0.0747
     15 C         -25.6420    4.0930   27.1230 C.2     1  UNL1        0.2662
     16 N         -25.6140    5.2520   26.4490 N.am    1  UNL1       -0.1997
     17 C         -25.0260    6.4790   26.9630 C.3     1  UNL1        0.1388
     18 O         -25.1430    3.9660   28.2430 O.2     1  UNL1       -0.2683
     19 C         -27.4380    3.0910   25.6450 C.2     1  UNL1        0.1065
     20 N         -28.0750    2.0890   25.0030 N.2     1  UNL1       -0.2081
     21 C         -27.5430    0.8490   25.0790 C.2     1  UNL1        0.2530
     22 O         -28.1930   -0.2080   24.4770 O.2     1  UNL1       -0.4558
     23 C         -29.4600    0.0050   23.8660 C.3     1  UNL1        0.2426
     24 C         -30.0650   -1.3770   23.5730 C.3     1  UNL1        0.2292
     25 O         -30.7290   -1.8780   24.7210 O.3     1  UNL1       -0.2162
     26 C         -26.3540    0.5760   25.7770 C.2     1  UNL1        0.1912
     27 F         -25.8600   -0.6810   25.7950 F       1  UNL1       -0.1995
     28 C         -18.6838    1.8204   27.5183 C.3     1  UNL1        0.0559
     29 C         -22.0981    0.9275   28.1211 C.2     1  UNL1        0.0905
     30 C         -24.3849    0.7257   28.3385 C.2     1  UNL1       -0.0090
     31 O         -27.7480   -0.4350   29.2850 O.2     1  UNL1       -0.2713
     32 C         -23.1372    0.5421   28.8742 C.2     1  UNL1        0.0018
     33 C         -25.4774    0.0408   29.1762 C.3     1  UNL1        0.1055
     34 C         -24.3894    1.4598   27.1149 C.3     1  UNL1        0.1498
     35 O         -20.3275   -0.1262   29.1106 O.2     1  UNL1       -0.2874
     36 C         -20.8009    0.7362   28.2583 C.2     1  UNL1        0.2172
     37 N         -23.3709    1.8347   26.3259 N.2     1  UNL1       -0.2309
     38 C         -26.8294    0.4567   29.2171 C.2     1  UNL1        0.2645
     39 C         -22.2172    1.5334   26.8752 C.2     1  UNL1        0.2240
     40 C         -20.0372    1.4091   27.3355 C.3     1  UNL1        0.2285
     41 N         -27.2299    1.7361   29.5211 N.am    1  UNL1       -0.0875
     42 O         -20.9617    1.8539   26.3646 O.2     1  UNL1       -0.4561
@<TRIPOS>BOND
     1     1    33    1
     2     2     7    1
     3     2     1    1
     4     3     2    2
     5     4     3    1
     6     4     5    2
     7     5     6    1
     8     6     7    2
     9     8     1    1
    10     8     9    1
    11     8    12    1
    12     9    10    1
    13    10    11    1
    14    12    11    1
    15    14    13    1
    16    14    15    1
    17    15    18    2
    18    16    17    1
    19    16    15    1
    20    19    14    2
    21    20    21    2
    22    20    19    1
    23    21    26    1
    24    22    21    1
    25    23    22    1
    26    24    23    1
    27    24    25    1
    28    26    27    1
    29    26    13    2
    30    29    36    2
    31    29    32    1
    32    30    32    2
    33    30    33    1
    34    33    38    1
    35    34    13    1
    36    34    30    1
    37    36    35    1
    38    37    39    2
    39    37    34    1
    40    38    31    2
    41    38    41    1
    42    39    29    1
    43    40    28    1
    44    40    36    1
    45    42    39    1
    46    42    40    1
