@<TRIPOS>MOLECULE
outputs/IAG933/test6/raw/output_9655_IAG933_linker_design_.xyz
 48 53 0 0 0
SMALL
GASTEIGER

@<TRIPOS>ATOM
      1 C         -24.8550   -1.0120   30.1430 C.3     1  UNL1        0.1156
      2 C         -24.9730   -2.5050   29.7880 C.2     1  UNL1       -0.0050
      3 C         -23.9060   -3.1730   29.1460 C.2     1  UNL1       -0.0029
      4 C         -23.9890   -4.5490   28.8530 C.2     1  UNL1       -0.0003
      5 C         -25.1370   -5.2800   29.2050 C.2     1  UNL1       -0.0000
      6 C         -26.2320   -4.6110   29.7840 C.2     1  UNL1       -0.0003
      7 C         -26.1550   -3.2320   30.0650 C.2     1  UNL1       -0.0029
      8 C         -25.3870   -0.6790   31.5710 C.3     1  UNL1        0.0931
      9 C         -25.1890    0.7730   32.0280 C.3     1  UNL1        0.0206
     10 C         -25.3360    0.6840   33.5440 C.3     1  UNL1        0.0203
     11 C         -24.8290   -0.7150   33.9050 C.3     1  UNL1        0.0888
     12 N         -24.7580   -1.4810   32.6460 N.3     1  UNL1       -0.2177
     13 C         -25.6880    1.6140   26.4610 C.2     1  UNL1        0.0295
     14 C         -26.2500    2.9200   26.3950 C.2     1  UNL1        0.0710
     15 C         -25.6420    4.0930   27.1230 C.2     1  UNL1        0.2228
     16 N         -25.6140    5.2520   26.4490 N.2     1  UNL1       -0.2356
     17 C         -25.0260    6.4790   26.9630 C.3     1  UNL1        0.1550
     18 O         -25.1430    3.9660   28.2430 O.2     1  UNL1       -0.4466
     19 C         -27.4380    3.0910   25.6450 C.2     1  UNL1        0.1065
     20 N         -28.0750    2.0890   25.0030 N.2     1  UNL1       -0.2081
     21 C         -27.5430    0.8490   25.0790 C.2     1  UNL1        0.2530
     22 O         -28.1930   -0.2080   24.4770 O.2     1  UNL1       -0.4558
     23 C         -29.4600    0.0050   23.8660 C.3     1  UNL1        0.2426
     24 C         -30.0650   -1.3770   23.5730 C.3     1  UNL1        0.2292
     25 O         -30.7290   -1.8780   24.7210 O.3     1  UNL1       -0.2162
     26 C         -26.3540    0.5760   25.7770 C.2     1  UNL1        0.1897
     27 F         -25.8600   -0.6810   25.7950 F       1  UNL1       -0.1996
     28 C         -28.2438    5.2117   34.1091 C.3     1  UNL1        0.0571
     29 C         -26.2210    6.2228   30.8825 C.3     1  UNL1        0.0079
     30 C         -24.8082    5.2385   32.7710 C.3     1  UNL1        0.0002
     31 C         -24.6800    3.9276   31.9604 C.3     1  UNL1        0.0056
     32 N         -29.4210    5.8356   32.1631 N.2     1  UNL1       -0.1497
     33 C         -25.4618    2.9732   29.2756 C.3     1  UNL1        0.2469
     34 C         -22.9434    1.6639   26.7205 C.2     1  UNL1        0.2459
     35 C         -25.1927    6.4107   31.9537 C.3     1  UNL1        0.0004
     36 C         -22.1345    1.0130   27.6017 C.2     1  UNL1        0.3209
     37 C         -26.6797    4.7006   30.7530 C.3     1  UNL1        0.0682
     38 C         -25.4063    3.8207   30.6420 C.3     1  UNL1        0.0651
     39 N         -24.4402    1.8756   29.1870 N.3     1  UNL1       -0.1292
     40 C         -24.3466    0.8944   28.3858 C.3     1  UNL1        0.2754
     41 F         -20.8475    1.2980   27.6510 F       1  UNL1       -0.1600
     42 O         -28.0401    2.9278   31.8311 O.2     1  UNL1       -0.2900
     43 O         -22.3560    2.5101   25.8266 O.2     1  UNL1       -0.2850
     44 C         -24.3742    1.3983   26.9769 C.3     1  UNL1        0.1620
     45 C         -27.7480    4.1504   31.7514 C.2     1  UNL1        0.1879
     46 O         -22.9637    0.4463   28.5738 O.2     1  UNL1       -0.4277
     47 C         -28.4921    5.1037   32.6139 C.2     1  UNL1        0.1153
     48 N         -25.3695   -0.1813   29.0404 N.3     1  UNL1       -0.1641
@<TRIPOS>BOND
     1     1    48    1
     2     2     7    1
     3     2     1    1
     4     3     2    2
     5     4     3    1
     6     4     5    2
     7     5     6    1
     8     6     7    2
     9     8     1    1
    10     8     9    1
    11     8    12    1
    12     9    10    1
    13    10    11    1
    14    12    11    1
    15    14    13    1
    16    14    15    1
    17    15    18    1
    18    16    17    1
    19    16    15    2
    20    19    14    2
    21    20    21    2
    22    20    19    1
    23    21    26    1
    24    22    21    1
    25    23    22    1
    26    24    23    1
    27    24    25    1
    28    26    27    1
    29    26    13    2
    30    29    35    1
    31    31    30    1
    32    32    47    2
    33    33    18    1
    34    33    38    1
    35    34    44    1
    36    34    36    2
    37    35    30    1
    38    36    41    1
    39    36    46    1
    40    37    29    1
    41    37    45    1
    42    38    37    1
    43    38    31    1
    44    39    33    1
    45    40    46    1
    46    40    48    1
    47    40    39    1
    48    43    34    1
    49    44    13    1
    50    44    40    1
    51    45    42    2
    52    45    47    1
    53    47    28    1
