@<TRIPOS>MOLECULE
outputs/IAG933/test6/raw/output_9656_IAG933_linker_design_.xyz
 42 46 0 0 0
SMALL
GASTEIGER

@<TRIPOS>ATOM
      1 C         -24.8550   -1.0120   30.1430 C.3     1  UNL1        0.0655
      2 C         -24.9730   -2.5050   29.7880 C.2     1  UNL1       -0.0188
      3 C         -23.9060   -3.1730   29.1460 C.2     1  UNL1       -0.0042
      4 C         -23.9890   -4.5490   28.8530 C.2     1  UNL1       -0.0003
      5 C         -25.1370   -5.2800   29.2050 C.2     1  UNL1       -0.0000
      6 C         -26.2320   -4.6110   29.7840 C.2     1  UNL1       -0.0003
      7 C         -26.1550   -3.2320   30.0650 C.2     1  UNL1       -0.0042
      8 C         -25.3870   -0.6790   31.5710 C.3     1  UNL1        0.0792
      9 C         -25.1890    0.7730   32.0280 C.3     1  UNL1        0.0203
     10 C         -25.3360    0.6840   33.5440 C.3     1  UNL1        0.0203
     11 C         -24.8290   -0.7150   33.9050 C.3     1  UNL1        0.0887
     12 N         -24.7580   -1.4810   32.6460 N.3     1  UNL1       -0.2190
     13 C         -25.6880    1.6140   26.4610 C.3     1  UNL1        0.0731
     14 C         -26.2500    2.9200   26.3950 C.2     1  UNL1        0.0549
     15 C         -25.6420    4.0930   27.1230 C.2     1  UNL1        0.2624
     16 N         -25.6140    5.2520   26.4490 N.am    1  UNL1       -0.2000
     17 C         -25.0260    6.4790   26.9630 C.3     1  UNL1        0.1388
     18 O         -25.1430    3.9660   28.2430 O.2     1  UNL1       -0.2687
     19 C         -27.4380    3.0910   25.6450 C.2     1  UNL1        0.1021
     20 N         -28.0750    2.0890   25.0030 N.2     1  UNL1       -0.2119
     21 C         -27.5430    0.8490   25.0790 C.2     1  UNL1        0.2341
     22 O         -28.1930   -0.2080   24.4770 O.2     1  UNL1       -0.4585
     23 C         -29.4600    0.0050   23.8660 C.3     1  UNL1        0.2423
     24 C         -30.0650   -1.3770   23.5730 C.3     1  UNL1        0.2292
     25 O         -30.7290   -1.8780   24.7210 O.3     1  UNL1       -0.2162
     26 C         -26.3540    0.5760   25.7770 C.3     1  UNL1        0.2401
     27 F         -25.8600   -0.6810   25.7950 F       1  UNL1       -0.2269
     28 C         -23.4925    1.3646   27.5450 C.3     1  UNL1        0.1231
     29 C         -27.2810   -0.4826   28.7370 C.3     1  UNL1        0.1740
     30 O         -24.2996    3.2622   32.3161 O.3     1  UNL1       -0.3511
     31 C         -25.1343   -0.1032   28.8347 C.3     1  UNL1        0.1215
     32 C         -22.7178    1.1806   28.7006 C.3     1  UNL1        0.1266
     33 C         -24.8178    1.1157   27.5592 C.3     1  UNL1        0.0471
     34 O         -21.5006    1.7893   26.8684 O.3     1  UNL1       -0.3477
     35 O         -26.1692   -1.0368   27.9428 O.3     1  UNL1       -0.3532
     36 C         -24.3568    1.4421   31.0074 C.3     1  UNL1        0.0326
     37 C         -22.7700    1.9274   26.3968 C.2     1  UNL1        0.3379
     38 C         -24.9557    2.7957   31.1523 C.3     1  UNL1        0.1423
     39 O         -23.1241    2.5426   25.3641 O.2     1  UNL1       -0.2483
     40 N         -21.4525    1.3171   28.2879 N.3     1  UNL1       -0.0252
     41 C         -23.2779    1.0623   30.0267 C.3     1  UNL1        0.0242
     42 C         -24.4902    4.6828   32.2856 C.3     1  UNL1        0.1741
@<TRIPOS>BOND
     1     1     2    1
     2     1     8    1
     3     2     7    1
     4     3     2    2
     5     4     3    1
     6     4     5    2
     7     5     6    1
     8     6     7    2
     9     8     9    1
    10     8    12    1
    11     9    10    1
    12    10    11    1
    13    12    11    1
    14    13    14    1
    15    14    15    1
    16    15    18    2
    17    16    17    1
    18    16    15    1
    19    19    14    2
    20    20    21    2
    21    20    19    1
    22    21    26    1
    23    22    21    1
    24    23    22    1
    25    24    23    1
    26    24    25    1
    27    26    27    1
    28    26    13    1
    29    28    37    1
    30    28    33    1
    31    28    32    1
    32    31    35    1
    33    31     1    1
    34    32    41    1
    35    33    13    1
    36    33    31    1
    37    34    40    1
    38    35    29    1
    39    36    38    1
    40    36     9    1
    41    37    34    1
    42    38    30    1
    43    39    37    2
    44    40    32    1
    45    41    36    1
    46    42    30    1
