@<TRIPOS>MOLECULE
outputs/IAG933/test6/raw/output_9657_IAG933_linker_design_.xyz
 44 47 0 0 0
SMALL
GASTEIGER

@<TRIPOS>ATOM
      1 C         -24.8550   -1.0120   30.1430 C.3     1  UNL1        0.0548
      2 C         -24.9730   -2.5050   29.7880 C.2     1  UNL1       -0.0198
      3 C         -23.9060   -3.1730   29.1460 C.2     1  UNL1       -0.0042
      4 C         -23.9890   -4.5490   28.8530 C.2     1  UNL1       -0.0003
      5 C         -25.1370   -5.2800   29.2050 C.2     1  UNL1       -0.0000
      6 C         -26.2320   -4.6110   29.7840 C.2     1  UNL1       -0.0003
      7 C         -26.1550   -3.2320   30.0650 C.2     1  UNL1       -0.0042
      8 C         -25.3870   -0.6790   31.5710 C.3     1  UNL1        0.0782
      9 C         -25.1890    0.7730   32.0280 C.3     1  UNL1        0.0192
     10 C         -25.3360    0.6840   33.5440 C.3     1  UNL1        0.0202
     11 C         -24.8290   -0.7150   33.9050 C.3     1  UNL1        0.0887
     12 N         -24.7580   -1.4810   32.6460 N.3     1  UNL1       -0.2191
     13 C         -25.6880    1.6140   26.4610 C.2     1  UNL1        0.0300
     14 C         -26.2500    2.9200   26.3950 C.2     1  UNL1        0.0738
     15 C         -25.6420    4.0930   27.1230 C.2     1  UNL1        0.2662
     16 N         -25.6140    5.2520   26.4490 N.am    1  UNL1       -0.1997
     17 C         -25.0260    6.4790   26.9630 C.3     1  UNL1        0.1388
     18 O         -25.1430    3.9660   28.2430 O.2     1  UNL1       -0.2683
     19 C         -27.4380    3.0910   25.6450 C.2     1  UNL1        0.1065
     20 N         -28.0750    2.0890   25.0030 N.2     1  UNL1       -0.2081
     21 C         -27.5430    0.8490   25.0790 C.2     1  UNL1        0.2530
     22 O         -28.1930   -0.2080   24.4770 O.2     1  UNL1       -0.4558
     23 C         -29.4600    0.0050   23.8660 C.3     1  UNL1        0.2426
     24 C         -30.0650   -1.3770   23.5730 C.3     1  UNL1        0.2292
     25 O         -30.7290   -1.8780   24.7210 O.3     1  UNL1       -0.2162
     26 C         -26.3540    0.5760   25.7770 C.2     1  UNL1        0.1904
     27 F         -25.8600   -0.6810   25.7950 F       1  UNL1       -0.1995
     28 C         -30.0389   -1.3133   30.3411 C.3     1  UNL1        0.1424
     29 N         -31.6999   -0.9461   32.6077 N.pl3   1  UNL1       -0.1044
     30 C         -30.8214   -2.6329   30.3399 C.3     1  UNL1        0.0295
     31 C         -23.2374    0.6202   28.0163 C.3     1  UNL1        0.0203
     32 C         -28.2161   -0.0036   28.9894 C.2     1  UNL1        0.1841
     33 O         -30.1453   -1.0163   27.7358 O.3     1  UNL1       -0.2130
     34 N         -25.5444    0.8829   28.5909 N.3     1  UNL1       -0.2172
     35 C         -21.3296    1.7515   26.8355 C.3     1  UNL1        0.0018
     36 C         -27.1608   -0.7949   28.6465 C.3     1  UNL1        0.0850
     37 N         -29.4705   -1.0124   31.4491 N.2     1  UNL1       -0.2501
     38 C         -24.5293    1.2230   27.4157 C.3     1  UNL1        0.0805
     39 C         -29.7049   -0.4813   29.0178 C.3     1  UNL1        0.2308
     40 C         -22.5852    0.3299   29.3850 C.3     1  UNL1        0.0018
     41 C         -23.0027    1.8334   27.0396 C.3     1  UNL1        0.0203
     42 C         -30.2637   -0.9000   32.5907 C.2     1  UNL1        0.2001
     43 O         -27.9317    1.1891   29.3031 O.2     1  UNL1       -0.2933
     44 C         -25.8360   -0.3818   29.1432 C.3     1  UNL1        0.0858
@<TRIPOS>BOND
     1     1    44    1
     2     2     7    1
     3     2     1    1
     4     3     2    2
     5     4     3    1
     6     4     5    2
     7     5     6    1
     8     6     7    2
     9     8     1    1
    10     8     9    1
    11     8    12    1
    12     9    10    1
    13    10    11    1
    14    12    11    1
    15    13    38    1
    16    14    13    1
    17    14    15    1
    18    15    18    2
    19    16    17    1
    20    16    15    1
    21    19    14    2
    22    20    21    2
    23    20    19    1
    24    21    26    1
    25    22    21    1
    26    23    22    1
    27    24    23    1
    28    24    25    1
    29    26    27    1
    30    26    13    2
    31    28    30    1
    32    28    37    1
    33    31    40    1
    34    32    39    1
    35    32    43    2
    36    34    44    1
    37    36    32    1
    38    37    42    2
    39    38    31    1
    40    38    34    1
    41    39    33    1
    42    39    28    1
    43    41    35    1
    44    41    38    1
    45    41    31    1
    46    42    29    1
    47    44    36    1
