@<TRIPOS>MOLECULE
outputs/IAG933/test6/raw/output_9658_IAG933_linker_design_.xyz
 42 45 0 0 0
SMALL
GASTEIGER

@<TRIPOS>ATOM
      1 C         -24.8550   -1.0120   30.1430 C.3     1  UNL1        0.0399
      2 C         -24.9730   -2.5050   29.7880 C.2     1  UNL1       -0.0211
      3 C         -23.9060   -3.1730   29.1460 C.2     1  UNL1       -0.0042
      4 C         -23.9890   -4.5490   28.8530 C.2     1  UNL1       -0.0003
      5 C         -25.1370   -5.2800   29.2050 C.2     1  UNL1       -0.0000
      6 C         -26.2320   -4.6110   29.7840 C.2     1  UNL1       -0.0003
      7 C         -26.1550   -3.2320   30.0650 C.2     1  UNL1       -0.0042
      8 C         -25.3870   -0.6790   31.5710 C.3     1  UNL1        0.0769
      9 C         -25.1890    0.7730   32.0280 C.3     1  UNL1        0.0192
     10 C         -25.3360    0.6840   33.5440 C.3     1  UNL1        0.0202
     11 C         -24.8290   -0.7150   33.9050 C.3     1  UNL1        0.0887
     12 N         -24.7580   -1.4810   32.6460 N.3     1  UNL1       -0.2191
     13 C         -25.6880    1.6140   26.4610 C.2     1  UNL1        0.0863
     14 C         -26.2500    2.9200   26.3950 C.2     1  UNL1        0.0899
     15 C         -25.6420    4.0930   27.1230 C.2     1  UNL1        0.2676
     16 N         -25.6140    5.2520   26.4490 N.am    1  UNL1       -0.1997
     17 C         -25.0260    6.4790   26.9630 C.3     1  UNL1        0.1388
     18 O         -25.1430    3.9660   28.2430 O.2     1  UNL1       -0.2683
     19 C         -27.4380    3.0910   25.6450 C.2     1  UNL1        0.1080
     20 N         -28.0750    2.0890   25.0030 N.2     1  UNL1       -0.2080
     21 C         -27.5430    0.8490   25.0790 C.2     1  UNL1        0.2546
     22 O         -28.1930   -0.2080   24.4770 O.2     1  UNL1       -0.4558
     23 C         -29.4600    0.0050   23.8660 C.3     1  UNL1        0.2426
     24 C         -30.0650   -1.3770   23.5730 C.3     1  UNL1        0.2292
     25 O         -30.7290   -1.8780   24.7210 O.3     1  UNL1       -0.2162
     26 C         -26.3540    0.5760   25.7770 C.2     1  UNL1        0.2062
     27 F         -25.8600   -0.6810   25.7950 F       1  UNL1       -0.1979
     28 C         -28.0571   -0.4855   28.6291 C.3     1  UNL1        0.0018
     29 C         -23.1983    1.6597   26.3916 C.3     1  UNL1        0.0908
     30 O         -30.5188   -0.5937   27.4571 O.2     1  UNL1       -0.2649
     31 C         -21.9312    1.9350   27.2203 C.3     1  UNL1        0.0215
     32 C         -26.7445    0.1025   28.9085 C.3     1  UNL1        0.0021
     33 C         -22.7781   -0.0334   28.7673 C.3     1  UNL1        0.0198
     34 C         -30.9741   -0.2957   28.5935 C.2     1  UNL1        0.3030
     35 N         -24.4062    1.1879   26.9878 N.pl3   1  UNL1       -0.3071
     36 C         -29.7210   -1.4846   30.5484 C.3     1  UNL1        0.0939
     37 C         -21.6131    0.8264   28.2841 C.3     1  UNL1        0.0035
     38 C         -24.1590    0.5432   28.3362 C.3     1  UNL1        0.0732
     39 C         -32.0415   -1.1174   30.9108 C.3     1  UNL1        0.1153
     40 N         -30.9678   -1.0269   29.8669 N.am    1  UNL1       -0.2706
     41 C         -28.3782   -1.3563   29.7950 C.3     1  UNL1        0.0215
     42 C         -25.3307    0.0041   29.1236 C.3     1  UNL1        0.0235
@<TRIPOS>BOND
     1     1    42    1
     2     2     7    1
     3     2     1    1
     4     3     2    2
     5     4     3    1
     6     4     5    2
     7     5     6    1
     8     6     7    2
     9     8     1    1
    10     8     9    1
    11     8    12    1
    12     9    10    1
    13    10    11    1
    14    12    11    1
    15    13    35    1
    16    14    13    1
    17    14    15    1
    18    15    18    2
    19    16    17    1
    20    16    15    1
    21    19    14    2
    22    20    21    2
    23    20    19    1
    24    21    26    1
    25    22    21    1
    26    23    22    1
    27    24    23    1
    28    24    25    1
    29    26    27    1
    30    26    13    2
    31    28    32    1
    32    28    41    1
    33    29    35    1
    34    29    31    1
    35    30    34    2
    36    31    37    1
    37    34    40   am
    38    35    38    1
    39    37    33    1
    40    38    33    1
    41    38    42    1
    42    40    36    1
    43    40    39    1
    44    41    36    1
    45    42    32    1
