@<TRIPOS>MOLECULE
No_966-gen_results/8p0m/2024-11-27-11-27-31/
 25 27 0 0 0
SMALL
GASTEIGER

@<TRIPOS>ATOM
      1 C         -28.0162   -0.8135   28.8779 C.3     1  UNL1        0.1221
      2 C         -27.0636   -0.1190   28.6079 C.ar    1  UNL1       -0.0021
      3 C         -27.0010    0.6913   27.4910 C.ar    1  UNL1       -0.0022
      4 C         -25.8548    1.4825   27.0830 C.ar    1  UNL1        0.0036
      5 C         -24.6901    1.4526   27.8807 C.ar    1  UNL1        0.0714
      6 C         -24.7379    0.6010   29.0416 C.ar    1  UNL1        0.0036
      7 C         -25.8234   -0.1688   29.3887 C.ar    1  UNL1       -0.0027
      8 N         -28.7568   -0.5479   30.0191 N.pl3   1  UNL1       -0.2815
      9 C         -28.9317    0.3890   30.5031 C.2     1  UNL1        0.0659
     10 C         -29.0495    1.5382   29.9451 C.2     1  UNL1        0.0227
     11 C         -29.3672    1.6833   28.6426 C.2     1  UNL1        0.0810
     12 C         -28.4998    1.7453   27.5814 C.2     1  UNL1        0.0064
     13 C         -29.1705   -2.0088   30.6291 C.ar    1  UNL1        0.0519
     14 C         -28.6492   -3.0261   30.1636 C.ar    1  UNL1        0.0148
     15 C         -29.1997   -4.3548   30.5362 C.ar    1  UNL1        0.0013
     16 C         -30.2366   -4.4473   31.4021 C.ar    1  UNL1        0.0001
     17 C         -30.7824   -3.2624   31.8953 C.ar    1  UNL1        0.0013
     18 C         -30.3482   -1.9936   31.4752 C.ar    1  UNL1        0.0148
     19 C         -30.6936    1.7502   28.1274 C.2     1  UNL1        0.3878
     20 O         -31.1082    1.8105   27.1150 O.co2   1  UNL1       -0.2406
     21 O         -31.6330    2.0080   29.1276 O.co2   1  UNL1       -0.2406
     22 C         -23.4691    2.0867   27.4648 C.3     1  UNL1        0.4186
     23 F         -23.6708    3.1240   26.7746 F       1  UNL1       -0.1659
     24 F         -22.7863    2.6252   28.5653 F       1  UNL1       -0.1659
     25 F         -22.6264    1.2305   26.9070 F       1  UNL1       -0.1659
@<TRIPOS>BOND
     1     1     2    1
     2     1     8    1
     3     8     9    1
     4     9    10    2
     5    10    11    1
     6     3    12    1
     7    11    12    2
     8     8    13    1
     9    11    19    1
    10    19    20   ar
    11    19    21   ar
    12     5    22    1
    13    22    23    1
    14    22    24    1
    15    22    25    1
    16     2     3   ar
    17     3     4   ar
    18     4     5   ar
    19     5     6   ar
    20     6     7   ar
    21     7     2   ar
    22    13    14   ar
    23    14    15   ar
    24    15    16   ar
    25    16    17   ar
    26    17    18   ar
    27    18    13   ar
