@<TRIPOS>MOLECULE
outputs/IAG933/test6/raw/output_9661_IAG933_linker_design_.xyz
 49 52 0 0 0
SMALL
GASTEIGER

@<TRIPOS>ATOM
      1 C         -24.8550   -1.0120   30.1430 C.3     1  UNL1        0.1118
      2 C         -24.9730   -2.5050   29.7880 C.2     1  UNL1       -0.0030
      3 C         -23.9060   -3.1730   29.1460 C.2     1  UNL1       -0.0026
      4 C         -23.9890   -4.5490   28.8530 C.2     1  UNL1       -0.0003
      5 C         -25.1370   -5.2800   29.2050 C.2     1  UNL1       -0.0000
      6 C         -26.2320   -4.6110   29.7840 C.2     1  UNL1       -0.0003
      7 C         -26.1550   -3.2320   30.0650 C.2     1  UNL1       -0.0026
      8 C         -25.3870   -0.6790   31.5710 C.3     1  UNL1        0.0951
      9 C         -25.1890    0.7730   32.0280 C.3     1  UNL1        0.0209
     10 C         -25.3360    0.6840   33.5440 C.3     1  UNL1        0.0203
     11 C         -24.8290   -0.7150   33.9050 C.3     1  UNL1        0.0888
     12 N         -24.7580   -1.4810   32.6460 N.3     1  UNL1       -0.2174
     13 C         -25.6880    1.6140   26.4610 C.3     1  UNL1        0.0882
     14 C         -26.2500    2.9200   26.3950 C.2     1  UNL1        0.0564
     15 C         -25.6420    4.0930   27.1230 C.2     1  UNL1        0.2625
     16 N         -25.6140    5.2520   26.4490 N.am    1  UNL1       -0.2000
     17 C         -25.0260    6.4790   26.9630 C.3     1  UNL1        0.1388
     18 O         -25.1430    3.9660   28.2430 O.2     1  UNL1       -0.2687
     19 C         -27.4380    3.0910   25.6450 C.2     1  UNL1        0.1022
     20 N         -28.0750    2.0890   25.0030 N.2     1  UNL1       -0.2119
     21 C         -27.5430    0.8490   25.0790 C.2     1  UNL1        0.2341
     22 O         -28.1930   -0.2080   24.4770 O.2     1  UNL1       -0.4585
     23 C         -29.4600    0.0050   23.8660 C.3     1  UNL1        0.2423
     24 C         -30.0650   -1.3770   23.5730 C.3     1  UNL1        0.2292
     25 O         -30.7290   -1.8780   24.7210 O.3     1  UNL1       -0.2162
     26 C         -26.3540    0.5760   25.7770 C.3     1  UNL1        0.2416
     27 F         -25.8600   -0.6810   25.7950 F       1  UNL1       -0.2268
     28 C         -25.7946    4.2566   31.5664 C.3     1  UNL1        0.1110
     29 O         -22.7678    5.3220   32.9836 O.3     1  UNL1       -0.2173
     30 C         -27.1562    5.9265   32.1933 C.3     1  UNL1        0.0939
     31 C         -24.8934    6.0298   33.2594 C.3     1  UNL1        0.0418
     32 N         -26.9929    4.0154   31.1330 N.pl3   1  UNL1       -0.2423
     33 C         -23.1082    7.7202   32.7691 C.3     1  UNL1        0.2915
     34 F         -23.9376    8.7135   32.3711 F       1  UNL1       -0.2016
     35 C         -25.8916    5.3868   32.2809 C.3     1  UNL1        0.0417
     36 N         -27.8754    4.8130   31.7838 N.3     1  UNL1       -0.2027
     37 C         -24.9779    1.1420   27.8967 C.3     1  UNL1        0.0810
     38 C         -28.3997    4.0999   32.9589 C.3     1  UNL1        0.1111
     39 C         -22.5222    1.7364   27.1202 C.3     1  UNL1        0.0017
     40 N         -25.3676   -0.1696   28.9112 N.pl3   1  UNL1       -0.2980
     41 C         -26.9212    1.6773   29.9603 C.1     1  UNL1       -0.0676
     42 C         -27.4539    2.9003   30.2075 C.2     1  UNL1        0.1200
     43 C         -21.0670    1.5486   27.7553 C.3     1  UNL1        0.0001
     44 F         -22.8597    7.9021   34.1179 F       1  UNL1       -0.2016
     45 C         -23.6353    6.2920   32.4518 C.3     1  UNL1        0.2126
     46 C         -23.5017    0.7039   27.7300 C.3     1  UNL1        0.0202
     47 C         -22.9041    2.3046   25.6885 C.3     1  UNL1        0.0001
     48 C         -21.8938    7.8741   31.8618 C.3     1  UNL1        0.0749
     49 C         -26.7623    0.2574   29.2200 C.2     1  UNL1        0.1057
@<TRIPOS>BOND
     1     1    40    1
     2     2     7    1
     3     2     1    1
     4     3     2    2
     5     4     3    1
     6     4     5    2
     7     5     6    1
     8     6     7    2
     9     8     1    1
    10     8     9    1
    11     8    12    1
    12     9    10    1
    13    10    11    1
    14    12    11    1
    15    13    37    1
    16    14    13    1
    17    14    15    1
    18    15    18    2
    19    16    17    1
    20    16    15    1
    21    19    14    2
    22    20    21    2
    23    20    19    1
    24    21    26    1
    25    22    21    1
    26    23    22    1
    27    24    23    1
    28    24    25    1
    29    26    27    1
    30    26    13    1
    31    28    35    1
    32    30    35    1
    33    32    28    1
    34    32    36    1
    35    33    44    1
    36    34    33    1
    37    35    31    1
    38    36    30    1
    39    36    38    1
    40    37    46    1
    41    37    40    1
    42    39    46    1
    43    39    43    1
    44    40    49    1
    45    41    42    2
    46    42    32    1
    47    45    33    1
    48    45    29    1
    49    45    31    1
    50    47    39    1
    51    48    33    1
    52    49    41    2
