@<TRIPOS>MOLECULE
outputs/IAG933/test6/raw/output_9662_IAG933_linker_design_.xyz
 42 46 0 0 0
SMALL
GASTEIGER

@<TRIPOS>ATOM
      1 C         -24.8550   -1.0120   30.1430 C.3     1  UNL1        0.1144
      2 C         -24.9730   -2.5050   29.7880 C.2     1  UNL1       -0.0029
      3 C         -23.9060   -3.1730   29.1460 C.2     1  UNL1       -0.0026
      4 C         -23.9890   -4.5490   28.8530 C.2     1  UNL1       -0.0003
      5 C         -25.1370   -5.2800   29.2050 C.2     1  UNL1       -0.0000
      6 C         -26.2320   -4.6110   29.7840 C.2     1  UNL1       -0.0003
      7 C         -26.1550   -3.2320   30.0650 C.2     1  UNL1       -0.0026
      8 C         -25.3870   -0.6790   31.5710 C.3     1  UNL1        0.0951
      9 C         -25.1890    0.7730   32.0280 C.3     1  UNL1        0.0209
     10 C         -25.3360    0.6840   33.5440 C.3     1  UNL1        0.0203
     11 C         -24.8290   -0.7150   33.9050 C.3     1  UNL1        0.0888
     12 N         -24.7580   -1.4810   32.6460 N.3     1  UNL1       -0.2174
     13 C         -25.6880    1.6140   26.4610 C.3     1  UNL1        0.1331
     14 C         -26.2500    2.9200   26.3950 C.2     1  UNL1        0.0622
     15 C         -25.6420    4.0930   27.1230 C.2     1  UNL1        0.2629
     16 N         -25.6140    5.2520   26.4490 N.am    1  UNL1       -0.2000
     17 C         -25.0260    6.4790   26.9630 C.3     1  UNL1        0.1388
     18 O         -25.1430    3.9660   28.2430 O.2     1  UNL1       -0.2686
     19 C         -27.4380    3.0910   25.6450 C.2     1  UNL1        0.1026
     20 N         -28.0750    2.0890   25.0030 N.2     1  UNL1       -0.2118
     21 C         -27.5430    0.8490   25.0790 C.2     1  UNL1        0.2345
     22 O         -28.1930   -0.2080   24.4770 O.2     1  UNL1       -0.4585
     23 C         -29.4600    0.0050   23.8660 C.3     1  UNL1        0.2423
     24 C         -30.0650   -1.3770   23.5730 C.3     1  UNL1        0.2292
     25 O         -30.7290   -1.8780   24.7210 O.3     1  UNL1       -0.2162
     26 C         -26.3540    0.5760   25.7770 C.3     1  UNL1        0.2473
     27 F         -25.8600   -0.6810   25.7950 F       1  UNL1       -0.2264
     28 C         -27.2141    1.1401   29.7349 C.3     1  UNL1        0.0773
     29 O         -23.8397    1.9585   25.8955 O.2     1  UNL1       -0.2871
     30 C         -28.5168    0.8297   29.4379 C.3     1  UNL1        0.1152
     31 O         -29.3668   -0.2957   27.4213 O.2     1  UNL1       -0.2501
     32 C         -24.2078    0.7599   27.9673 C.2     1  UNL1        0.1085
     33 N         -25.0575    0.0321   29.0623 N.pl3   1  UNL1       -0.2685
     34 C         -22.1427    1.6965   27.2959 C.2     1  UNL1        0.3512
     35 C         -28.4042    0.0516   28.3564 C.2     1  UNL1        0.3184
     36 O         -27.0912   -0.5574   28.0244 O.3     1  UNL1       -0.4327
     37 C         -22.9341    1.0294   28.2925 C.2     1  UNL1        0.1726
     38 F         -20.8414    1.8231   27.4199 F       1  UNL1       -0.1570
     39 C         -26.4478    0.2776   28.9769 C.3     1  UNL1        0.2483
     40 O         -22.6521    2.2458   26.1859 O.2     1  UNL1       -0.2550
     41 C         -24.5487    1.4153   26.7322 C.2     1  UNL1        0.1950
     42 N         -22.4806    0.6810   29.4253 N.pl3   1  UNL1       -0.1208
@<TRIPOS>BOND
     1     1    33    1
     2     2     7    1
     3     2     1    1
     4     3     2    2
     5     4     3    1
     6     4     5    2
     7     5     6    1
     8     6     7    2
     9     8     1    1
    10     8     9    1
    11     8    12    1
    12     9    10    1
    13    10    11    1
    14    12    11    1
    15    13    41    1
    16    14    13    1
    17    14    15    1
    18    15    18    2
    19    16    17    1
    20    16    15    1
    21    19    14    2
    22    20    21    2
    23    20    19    1
    24    21    26    1
    25    22    21    1
    26    23    22    1
    27    24    23    1
    28    24    25    1
    29    26    27    1
    30    26    13    1
    31    29    40    1
    32    29    41    1
    33    30    28    1
    34    31    35    2
    35    32    37    1
    36    32    33    1
    37    34    38    1
    38    34    37    2
    39    35    30    1
    40    36    35    1
    41    36    39    1
    42    37    42    1
    43    39    33    1
    44    39    28    1
    45    40    34    1
    46    41    32    2
