@<TRIPOS>MOLECULE
outputs/IAG933/test6/raw/output_9665_IAG933_linker_design_.xyz
 43 48 0 0 0
SMALL
GASTEIGER

@<TRIPOS>ATOM
      1 C         -24.8550   -1.0120   30.1430 C.3     1  UNL1        0.1150
      2 C         -24.9730   -2.5050   29.7880 C.2     1  UNL1       -0.0125
      3 C         -23.9060   -3.1730   29.1460 C.2     1  UNL1       -0.0038
      4 C         -23.9890   -4.5490   28.8530 C.2     1  UNL1       -0.0003
      5 C         -25.1370   -5.2800   29.2050 C.2     1  UNL1       -0.0000
      6 C         -26.2320   -4.6110   29.7840 C.2     1  UNL1       -0.0003
      7 C         -26.1550   -3.2320   30.0650 C.2     1  UNL1       -0.0038
      8 C         -25.3870   -0.6790   31.5710 C.3     1  UNL1        0.0855
      9 C         -25.1890    0.7730   32.0280 C.3     1  UNL1        0.0197
     10 C         -25.3360    0.6840   33.5440 C.3     1  UNL1        0.0203
     11 C         -24.8290   -0.7150   33.9050 C.3     1  UNL1        0.0887
     12 N         -24.7580   -1.4810   32.6460 N.3     1  UNL1       -0.2186
     13 C         -25.6880    1.6140   26.4610 C.3     1  UNL1        0.1289
     14 C         -26.2500    2.9200   26.3950 C.2     1  UNL1        0.0600
     15 C         -25.6420    4.0930   27.1230 C.2     1  UNL1        0.2218
     16 N         -25.6140    5.2520   26.4490 N.2     1  UNL1       -0.2358
     17 C         -25.0260    6.4790   26.9630 C.3     1  UNL1        0.1550
     18 O         -25.1430    3.9660   28.2430 O.2     1  UNL1       -0.4255
     19 C         -27.4380    3.0910   25.6450 C.2     1  UNL1        0.1026
     20 N         -28.0750    2.0890   25.0030 N.2     1  UNL1       -0.2118
     21 C         -27.5430    0.8490   25.0790 C.2     1  UNL1        0.2345
     22 O         -28.1930   -0.2080   24.4770 O.2     1  UNL1       -0.4585
     23 C         -29.4600    0.0050   23.8660 C.3     1  UNL1        0.2423
     24 C         -30.0650   -1.3770   23.5730 C.3     1  UNL1        0.2292
     25 O         -30.7290   -1.8780   24.7210 O.3     1  UNL1       -0.2162
     26 C         -26.3540    0.5760   25.7770 C.3     1  UNL1        0.2471
     27 F         -25.8600   -0.6810   25.7950 F       1  UNL1       -0.2264
     28 O         -25.7594    3.8887   30.4830 O.3     1  UNL1       -0.3087
     29 C         -23.3574    1.3988   27.8229 C.ar    1  UNL1        0.1525
     30 C         -27.7871    2.9527   29.9077 C.3     1  UNL1        0.0605
     31 C         -26.7799    2.1271   29.2985 C.3     1  UNL1        0.1673
     32 F         -20.9753    1.9644   27.6838 F       1  UNL1       -0.1969
     33 C         -24.3251    1.4879   26.7880 C.ar    1  UNL1        0.1514
     34 O         -23.6304    1.9040   25.6209 O.2     1  UNL1       -0.4302
     35 C         -25.7156   -0.0538   29.3025 C.2     1  UNL1        0.2349
     36 C         -25.5120    2.8891   29.4132 C.3     1  UNL1        0.3210
     37 C         -22.4352    2.0146   26.0141 C.ar    1  UNL1        0.3168
     38 N         -23.1077    1.0038   29.3087 N.pl3   1  UNL1       -0.1226
     39 C         -27.1435    4.2893   30.3695 C.3     1  UNL1        0.1495
     40 O         -26.6289   -0.5703   28.5831 O.2     1  UNL1       -0.2743
     41 N         -25.6190    1.3685   29.6674 N.am    1  UNL1       -0.2202
     42 C         -22.1649    1.7685   27.1800 C.ar    1  UNL1        0.2226
     43 F         -21.4420    2.3008   25.2149 F       1  UNL1       -0.1603
@<TRIPOS>BOND
     1     1    35    1
     2     2     7    1
     3     2     1    1
     4     3     2    2
     5     4     3    1
     6     4     5    2
     7     5     6    1
     8     6     7    2
     9     8     1    1
    10     8     9    1
    11     8    12    1
    12     9    10    1
    13    10    11    1
    14    12    11    1
    15    13    33    1
    16    14    13    1
    17    14    15    1
    18    15    18    1
    19    16    17    1
    20    16    15    2
    21    19    14    2
    22    20    21    2
    23    20    19    1
    24    21    26    1
    25    22    21    1
    26    23    22    1
    27    24    23    1
    28    24    25    1
    29    26    27    1
    30    26    13    1
    31    29    38    1
    32    30    39    1
    33    31    36    1
    34    31    41    1
    35    31    30    1
    36    33    29   ar
    37    34    37   ar
    38    34    33   ar
    39    35    41   am
    40    36    18    1
    41    36    41    1
    42    36    28    1
    43    37    42   ar
    44    39    28    1
    45    40    35    2
    46    42    32    1
    47    42    29   ar
    48    43    37    1
