@<TRIPOS>MOLECULE
outputs/IAG933/test6/raw/output_9668_IAG933_linker_design_.xyz
 44 48 0 0 0
SMALL
GASTEIGER

@<TRIPOS>ATOM
      1 C         -24.8550   -1.0120   30.1430 C.3     1  UNL1        0.1266
      2 C         -24.9730   -2.5050   29.7880 C.2     1  UNL1       -0.0137
      3 C         -23.9060   -3.1730   29.1460 C.2     1  UNL1       -0.0040
      4 C         -23.9890   -4.5490   28.8530 C.2     1  UNL1       -0.0003
      5 C         -25.1370   -5.2800   29.2050 C.2     1  UNL1       -0.0000
      6 C         -26.2320   -4.6110   29.7840 C.2     1  UNL1       -0.0003
      7 C         -26.1550   -3.2320   30.0650 C.2     1  UNL1       -0.0040
      8 C         -25.3870   -0.6790   31.5710 C.3     1  UNL1        0.0843
      9 C         -25.1890    0.7730   32.0280 C.3     1  UNL1        0.0195
     10 C         -25.3360    0.6840   33.5440 C.3     1  UNL1        0.0202
     11 C         -24.8290   -0.7150   33.9050 C.3     1  UNL1        0.0887
     12 N         -24.7580   -1.4810   32.6460 N.3     1  UNL1       -0.2189
     13 C         -25.6880    1.6140   26.4610 C.2     1  UNL1        0.0407
     14 C         -26.2500    2.9200   26.3950 C.2     1  UNL1        0.0765
     15 C         -25.6420    4.0930   27.1230 C.2     1  UNL1        0.2664
     16 N         -25.6140    5.2520   26.4490 N.am    1  UNL1       -0.1997
     17 C         -25.0260    6.4790   26.9630 C.3     1  UNL1        0.1388
     18 O         -25.1430    3.9660   28.2430 O.2     1  UNL1       -0.2683
     19 C         -27.4380    3.0910   25.6450 C.2     1  UNL1        0.1067
     20 N         -28.0750    2.0890   25.0030 N.2     1  UNL1       -0.2081
     21 C         -27.5430    0.8490   25.0790 C.2     1  UNL1        0.2533
     22 O         -28.1930   -0.2080   24.4770 O.2     1  UNL1       -0.4558
     23 C         -29.4600    0.0050   23.8660 C.3     1  UNL1        0.2426
     24 C         -30.0650   -1.3770   23.5730 C.3     1  UNL1        0.2292
     25 O         -30.7290   -1.8780   24.7210 O.3     1  UNL1       -0.2162
     26 C         -26.3540    0.5760   25.7770 C.2     1  UNL1        0.1930
     27 F         -25.8600   -0.6810   25.7950 F       1  UNL1       -0.1992
     28 O         -23.1871    2.3468   25.2576 O.2     1  UNL1       -0.4347
     29 C         -23.3418    1.6458   26.3906 C.2     1  UNL1        0.1792
     30 C         -24.4751    1.2585   27.1087 C.2     1  UNL1        0.0646
     31 F         -20.3934    2.9219   28.1571 F       1  UNL1       -0.1809
     32 O         -19.7126    0.7266   28.3703 O.2     1  UNL1       -0.4414
     33 C         -19.7153    1.8246   27.5501 C.3     1  UNL1        0.4034
     34 C         -20.9653    0.1105   28.5355 C.2     1  UNL1        0.1787
     35 C         -21.8055    2.1716   24.7792 C.3     1  UNL1        0.4295
     36 O         -21.1228    1.8510   25.8847 O.2     1  UNL1       -0.4314
     37 C         -25.4780   -0.0028   29.1603 C.3     1  UNL1        0.3957
     38 C         -22.0962    1.4093   26.9086 C.2     1  UNL1        0.2129
     39 C         -24.4049    0.5647   28.2644 C.3     1  UNL1        0.2751
     40 C         -21.1962   -0.8336   29.4131 C.2     1  UNL1        0.0435
     41 O         -26.6512   -0.5236   28.5795 O.2     1  UNL1       -0.2707
     42 C         -22.1333    0.6802   28.2089 C.2     1  UNL1        0.2097
     43 O         -26.3018    1.1522   29.3785 O.2     1  UNL1       -0.2707
     44 O         -23.2400    0.3596   28.8905 O.2     1  UNL1       -0.4605
@<TRIPOS>BOND
     1     1    37    1
     2     2     7    1
     3     2     1    1
     4     3     2    2
     5     4     3    1
     6     4     5    2
     7     5     6    1
     8     6     7    2
     9     8     1    1
    10     8     9    1
    11     8    12    1
    12     9    10    1
    13    10    11    1
    14    12    11    1
    15    13    30    1
    16    14    13    1
    17    14    15    1
    18    15    18    2
    19    16    17    1
    20    16    15    1
    21    19    14    2
    22    20    21    2
    23    20    19    1
    24    21    26    1
    25    22    21    1
    26    23    22    1
    27    24    23    1
    28    24    25    1
    29    26    27    1
    30    26    13    2
    31    28    29    1
    32    29    38    1
    33    29    30    2
    34    30    39    1
    35    32    34    1
    36    33    31    1
    37    33    32    1
    38    34    40    2
    39    35    28    1
    40    35    36    1
    41    36    38    1
    42    37    43    1
    43    38    42    2
    44    39    44    1
    45    39    37    1
    46    41    37    1
    47    42    34    1
    48    42    44    1
