@<TRIPOS>MOLECULE
outputs/IAG933/test6/raw/output_9669_IAG933_linker_design_.xyz
 43 47 0 0 0
SMALL
GASTEIGER

@<TRIPOS>ATOM
      1 C         -24.8550   -1.0120   30.1430 C.3     1  UNL1        0.1126
      2 C         -24.9730   -2.5050   29.7880 C.2     1  UNL1       -0.0051
      3 C         -23.9060   -3.1730   29.1460 C.2     1  UNL1       -0.0029
      4 C         -23.9890   -4.5490   28.8530 C.2     1  UNL1       -0.0003
      5 C         -25.1370   -5.2800   29.2050 C.2     1  UNL1       -0.0000
      6 C         -26.2320   -4.6110   29.7840 C.2     1  UNL1       -0.0003
      7 C         -26.1550   -3.2320   30.0650 C.2     1  UNL1       -0.0029
      8 C         -25.3870   -0.6790   31.5710 C.3     1  UNL1        0.0929
      9 C         -25.1890    0.7730   32.0280 C.3     1  UNL1        0.0206
     10 C         -25.3360    0.6840   33.5440 C.3     1  UNL1        0.0203
     11 C         -24.8290   -0.7150   33.9050 C.3     1  UNL1        0.0888
     12 N         -24.7580   -1.4810   32.6460 N.3     1  UNL1       -0.2177
     13 C         -25.6880    1.6140   26.4610 C.2     1  UNL1        0.0873
     14 C         -26.2500    2.9200   26.3950 C.2     1  UNL1        0.0899
     15 C         -25.6420    4.0930   27.1230 C.2     1  UNL1        0.2676
     16 N         -25.6140    5.2520   26.4490 N.am    1  UNL1       -0.1997
     17 C         -25.0260    6.4790   26.9630 C.3     1  UNL1        0.1388
     18 O         -25.1430    3.9660   28.2430 O.2     1  UNL1       -0.2683
     19 C         -27.4380    3.0910   25.6450 C.2     1  UNL1        0.1080
     20 N         -28.0750    2.0890   25.0030 N.2     1  UNL1       -0.2080
     21 C         -27.5430    0.8490   25.0790 C.2     1  UNL1        0.2546
     22 O         -28.1930   -0.2080   24.4770 O.2     1  UNL1       -0.4558
     23 C         -29.4600    0.0050   23.8660 C.3     1  UNL1        0.2426
     24 C         -30.0650   -1.3770   23.5730 C.3     1  UNL1        0.2292
     25 O         -30.7290   -1.8780   24.7210 O.3     1  UNL1       -0.2162
     26 C         -26.3540    0.5760   25.7770 C.2     1  UNL1        0.2063
     27 F         -25.8600   -0.6810   25.7950 F       1  UNL1       -0.1979
     28 C         -24.8800    7.3999   31.9168 C.2     1  UNL1        0.0294
     29 C         -25.2311    3.6459   32.2068 C.3     1  UNL1        0.1686
     30 C         -23.3825    1.8538   30.4779 C.3     1  UNL1        0.1444
     31 F         -23.0541    8.7792   32.5826 F       1  UNL1       -0.2042
     32 C         -22.9647    1.0069   27.9619 C.3     1  UNL1        0.0935
     33 C         -23.6137    7.5462   32.5250 C.2     1  UNL1        0.1401
     34 N         -24.5997    1.5559   27.4092 N.pl3   1  UNL1       -0.2921
     35 O         -24.1843    3.0034   31.1915 O.3     1  UNL1       -0.3489
     36 C         -24.3081    0.4228   27.9734 C.3     1  UNL1        0.1648
     37 C         -22.6490    1.8395   29.1832 C.3     1  UNL1        0.0533
     38 N         -24.8625   -0.2053   29.0357 N.3     1  UNL1       -0.1942
     39 C         -22.8814    6.4833   33.0942 C.2     1  UNL1        0.0294
     40 C         -23.4665    5.2021   33.0629 C.2     1  UNL1        0.0005
     41 C         -22.0357    1.4717   26.8056 C.3     1  UNL1        0.0231
     42 C         -24.7123    5.0229   32.4242 C.2     1  UNL1        0.0074
     43 C         -25.4522    6.1129   31.8767 C.2     1  UNL1        0.0005
@<TRIPOS>BOND
     1     1    38    1
     2     2     7    1
     3     2     1    1
     4     3     2    2
     5     4     3    1
     6     4     5    2
     7     5     6    1
     8     6     7    2
     9     8     1    1
    10     8     9    1
    11     8    12    1
    12     9    10    1
    13    10    11    1
    14    12    11    1
    15    13    34    1
    16    14    13    1
    17    14    15    1
    18    15    18    2
    19    16    17    1
    20    16    15    1
    21    19    14    2
    22    20    21    2
    23    20    19    1
    24    21    26    1
    25    22    21    1
    26    23    22    1
    27    24    23    1
    28    24    25    1
    29    26    27    1
    30    26    13    2
    31    28    33    1
    32    29    42    1
    33    30    35    1
    34    32    41    1
    35    32    36    1
    36    32    37    1
    37    33    31    1
    38    33    39    2
    39    34    32    1
    40    34    36    1
    41    35    29    1
    42    36    38    1
    43    37    30    1
    44    40    39    1
    45    42    40    2
    46    43    28    2
    47    43    42    1
