@<TRIPOS>MOLECULE
No_967-gen_results/8p0m/2024-11-27-11-27-31/
 21 23 0 0 0
SMALL
GASTEIGER

@<TRIPOS>ATOM
      1 C         -28.0162   -0.8135   28.8779 C.ar    1  UNL1        0.0513
      2 C         -28.4690   -0.7850   29.8287 C.2     1  UNL1        0.2660
      3 C         -28.1816    0.4277   28.1134 C.ar    1  UNL1       -0.0143
      4 C         -27.4498    0.6435   26.8500 C.ar    1  UNL1       -0.0040
      5 C         -26.1815    0.0357   26.7145 C.ar    1  UNL1       -0.0003
      6 C         -25.7800   -0.9326   27.6938 C.ar    1  UNL1        0.0001
      7 C         -26.5568   -1.2134   28.7413 C.ar    1  UNL1        0.0042
      8 N         -29.6101   -0.2783   30.1938 N.am    1  UNL1       -0.1822
      9 O         -28.2441   -1.9032   30.7503 O.2     1  UNL1       -0.2683
     10 C         -30.0958    0.8546   29.5851 C.3     1  UNL1        0.1804
     11 C         -29.4491    1.1333   28.3435 C.3     1  UNL1        0.0693
     12 N         -31.2310    1.4615   29.8958 N.am    1  UNL1       -0.2418
     13 C         -31.9951    2.0759   29.2081 C.ar    1  UNL1        0.0553
     14 C         -32.3478    3.2748   29.6157 C.ar    1  UNL1        0.0149
     15 C         -32.9800    4.2912   28.8395 C.ar    1  UNL1        0.0013
     16 C         -33.4169    3.8671   27.5579 C.ar    1  UNL1        0.0001
     17 C         -33.0369    2.6313   27.0617 C.ar    1  UNL1        0.0013
     18 C         -32.2569    1.7870   27.8461 C.ar    1  UNL1        0.0149
     19 C         -31.6898    1.1829   31.3240 C.2     1  UNL1        0.2310
     20 O         -31.3999    0.2599   31.9310 O.2     1  UNL1       -0.2745
     21 C         -32.7061    2.2013   31.7988 C.3     1  UNL1        0.0952
@<TRIPOS>BOND
     1     1     2    1
     2     2     8   am
     3     2     9    2
     4     8    10    1
     5     3    11    1
     6    10    11    1
     7    10    12    1
     8    12    13    1
     9    12    19   am
    10    19    20    2
    11    19    21    1
    12    13    14   ar
    13    14    15   ar
    14    15    16   ar
    15    16    17   ar
    16    17    18   ar
    17    18    13   ar
    18     1     7   ar
    19     7     6   ar
    20     6     5   ar
    21     5     4   ar
    22     4     3   ar
    23     3     1   ar
