@<TRIPOS>MOLECULE
outputs/IAG933/test6/raw/output_9673_IAG933_linker_design_.xyz
 40 44 0 0 0
SMALL
GASTEIGER

@<TRIPOS>ATOM
      1 C         -24.8550   -1.0120   30.1430 C.3     1  UNL1        0.0966
      2 C         -24.9730   -2.5050   29.7880 C.2     1  UNL1       -0.0064
      3 C         -23.9060   -3.1730   29.1460 C.2     1  UNL1       -0.0029
      4 C         -23.9890   -4.5490   28.8530 C.2     1  UNL1       -0.0003
      5 C         -25.1370   -5.2800   29.2050 C.2     1  UNL1       -0.0000
      6 C         -26.2320   -4.6110   29.7840 C.2     1  UNL1       -0.0003
      7 C         -26.1550   -3.2320   30.0650 C.2     1  UNL1       -0.0029
      8 C         -25.3870   -0.6790   31.5710 C.3     1  UNL1        0.0916
      9 C         -25.1890    0.7730   32.0280 C.3     1  UNL1        0.0206
     10 C         -25.3360    0.6840   33.5440 C.3     1  UNL1        0.0203
     11 C         -24.8290   -0.7150   33.9050 C.3     1  UNL1        0.0888
     12 N         -24.7580   -1.4810   32.6460 N.3     1  UNL1       -0.2178
     13 C         -25.6880    1.6140   26.4610 C.2     1  UNL1        0.0043
     14 C         -26.2500    2.9200   26.3950 C.2     1  UNL1        0.0527
     15 C         -25.6420    4.0930   27.1230 C.2     1  UNL1        0.2622
     16 N         -25.6140    5.2520   26.4490 N.am    1  UNL1       -0.2000
     17 C         -25.0260    6.4790   26.9630 C.3     1  UNL1        0.1388
     18 O         -25.1430    3.9660   28.2430 O.2     1  UNL1       -0.2687
     19 C         -27.4380    3.0910   25.6450 C.3     1  UNL1        0.1588
     20 N         -28.0750    2.0890   25.0030 N.2     1  UNL1       -0.2341
     21 C         -27.5430    0.8490   25.0790 C.2     1  UNL1        0.2338
     22 O         -28.1930   -0.2080   24.4770 O.2     1  UNL1       -0.4585
     23 C         -29.4600    0.0050   23.8660 C.3     1  UNL1        0.2423
     24 C         -30.0650   -1.3770   23.5730 C.3     1  UNL1        0.2292
     25 O         -30.7290   -1.8780   24.7210 O.3     1  UNL1       -0.2162
     26 C         -26.3540    0.5760   25.7770 C.3     1  UNL1        0.2542
     27 F         -25.8600   -0.6810   25.7950 F       1  UNL1       -0.2227
     28 C         -27.5151    1.1762   29.5612 C.2     1  UNL1        0.2621
     29 C         -22.4848    1.2053   27.9201 C.2     1  UNL1        0.1668
     30 C         -22.7631    0.3260   29.0848 C.3     1  UNL1        0.1404
     31 N         -24.1854   -0.1155   29.2135 N.3     1  UNL1       -0.2629
     32 C         -25.3088    0.6631   28.4384 C.3     1  UNL1        0.0753
     33 O         -21.3391    1.6094   27.4108 O.2     1  UNL1       -0.3566
     34 C         -23.4245    1.6574   27.1052 C.2     1  UNL1        0.0393
     35 O         -26.8870    2.2274   29.7233 O.2     1  UNL1       -0.2716
     36 C         -22.8168    2.3040   25.9525 C.2     1  UNL1        0.1395
     37 C         -24.7845    1.3237   27.3504 C.3     1  UNL1        0.0631
     38 C         -26.8271    0.1842   28.6009 C.3     1  UNL1        0.1051
     39 N         -28.7555    0.8892   30.0403 N.am    1  UNL1       -0.0877
     40 N         -21.5167    2.3316   26.1482 N.2     1  UNL1       -0.0760
@<TRIPOS>BOND
     1     1     2    1
     2     2     7    1
     3     3     2    2
     4     4     3    1
     5     4     5    2
     6     5     6    1
     7     6     7    2
     8     8     1    1
     9     8     9    1
    10     8    12    1
    11     9    10    1
    12    10    11    1
    13    12    11    1
    14    14    13    2
    15    14    15    1
    16    15    18    2
    17    16    17    1
    18    16    15    1
    19    19    14    1
    20    20    21    2
    21    20    19    1
    22    21    26    1
    23    22    21    1
    24    23    22    1
    25    24    23    1
    26    24    25    1
    27    26    27    1
    28    26    13    1
    29    28    35    2
    30    28    39    1
    31    29    30    1
    32    30    31    1
    33    31     1    1
    34    32    38    1
    35    32    31    1
    36    33    29    1
    37    34    37    1
    38    34    29    2
    39    36    40    2
    40    36    34    1
    41    37    13    1
    42    37    32    1
    43    38    28    1
    44    40    33    1
