@<TRIPOS>MOLECULE
outputs/IAG933/test6/raw/output_9676_IAG933_linker_design_.xyz
 42 45 0 0 0
SMALL
GASTEIGER

@<TRIPOS>ATOM
      1 C         -24.8550   -1.0120   30.1430 C.3     1  UNL1        0.0744
      2 C         -24.9730   -2.5050   29.7880 C.2     1  UNL1       -0.0185
      3 C         -23.9060   -3.1730   29.1460 C.2     1  UNL1       -0.0041
      4 C         -23.9890   -4.5490   28.8530 C.2     1  UNL1       -0.0003
      5 C         -25.1370   -5.2800   29.2050 C.2     1  UNL1       -0.0000
      6 C         -26.2320   -4.6110   29.7840 C.2     1  UNL1       -0.0003
      7 C         -26.1550   -3.2320   30.0650 C.2     1  UNL1       -0.0041
      8 C         -25.3870   -0.6790   31.5710 C.3     1  UNL1        0.0795
      9 C         -25.1890    0.7730   32.0280 C.3     1  UNL1        0.0193
     10 C         -25.3360    0.6840   33.5440 C.3     1  UNL1        0.0202
     11 C         -24.8290   -0.7150   33.9050 C.3     1  UNL1        0.0887
     12 N         -24.7580   -1.4810   32.6460 N.3     1  UNL1       -0.2190
     13 C         -25.6880    1.6140   26.4610 C.2     1  UNL1        0.0898
     14 C         -26.2500    2.9200   26.3950 C.2     1  UNL1        0.0900
     15 C         -25.6420    4.0930   27.1230 C.2     1  UNL1        0.2676
     16 N         -25.6140    5.2520   26.4490 N.am    1  UNL1       -0.1997
     17 C         -25.0260    6.4790   26.9630 C.3     1  UNL1        0.1388
     18 O         -25.1430    3.9660   28.2430 O.2     1  UNL1       -0.2683
     19 C         -27.4380    3.0910   25.6450 C.2     1  UNL1        0.1080
     20 N         -28.0750    2.0890   25.0030 N.2     1  UNL1       -0.2080
     21 C         -27.5430    0.8490   25.0790 C.2     1  UNL1        0.2546
     22 O         -28.1930   -0.2080   24.4770 O.2     1  UNL1       -0.4558
     23 C         -29.4600    0.0050   23.8660 C.3     1  UNL1        0.2426
     24 C         -30.0650   -1.3770   23.5730 C.3     1  UNL1        0.2292
     25 O         -30.7290   -1.8780   24.7210 O.3     1  UNL1       -0.2162
     26 C         -26.3540    0.5760   25.7770 C.2     1  UNL1        0.2064
     27 F         -25.8600   -0.6810   25.7950 F       1  UNL1       -0.1979
     28 CL        -23.2409    1.3330   24.6551 Cl      1  UNL1       -0.0896
     29 C         -26.0871    3.1707   31.5781 C.3     1  UNL1        0.1888
     30 C         -25.0748   -0.2507   28.7864 C.3     1  UNL1        0.2162
     31 C         -22.3228    1.0396   28.6041 C.3     1  UNL1        0.1835
     32 O         -27.5125    3.2240   31.7061 O.3     1  UNL1       -0.2474
     33 N         -24.4664    1.2669   27.1241 N.pl3   1  UNL1       -0.2575
     34 O         -23.5498    1.5493   29.2107 O.3     1  UNL1       -0.3232
     35 N         -28.1630    4.1960   31.0082 N.3     1  UNL1        0.0419
     36 C         -22.1032    1.5172   27.0628 C.3     1  UNL1        0.2240
     37 N         -25.7563    1.6808   29.4190 N.3     1  UNL1       -0.1733
     38 C         -24.7695    1.0204   28.6309 C.3     1  UNL1        0.2492
     39 C         -23.3115    1.8684   26.3363 C.3     1  UNL1        0.1918
     40 F         -20.8195    1.9126   26.6791 F       1  UNL1       -0.2314
     41 C         -25.5010    2.5843   30.4304 C.3     1  UNL1        0.1271
     42 O         -26.4687   -0.5323   28.4555 O.3     1  UNL1       -0.2167
@<TRIPOS>BOND
     1     1    30    1
     2     2     7    1
     3     2     1    1
     4     3     2    2
     5     4     3    1
     6     4     5    2
     7     5     6    1
     8     6     7    2
     9     8     1    1
    10     8     9    1
    11     8    12    1
    12     9    10    1
    13    10    11    1
    14    12    11    1
    15    13    33    1
    16    14    13    1
    17    14    15    1
    18    15    18    2
    19    16    17    1
    20    16    15    1
    21    19    14    2
    22    20    21    2
    23    20    19    1
    24    21    26    1
    25    22    21    1
    26    23    22    1
    27    24    23    1
    28    24    25    1
    29    26    27    1
    30    26    13    2
    31    29    32    1
    32    30    42    1
    33    31    34    1
    34    33    38    1
    35    35    32    1
    36    36    40    1
    37    36    31    1
    38    37    41    1
    39    38    30    1
    40    38    34    1
    41    38    37    1
    42    39    28    1
    43    39    36    1
    44    39    33    1
    45    41    29    1
