@<TRIPOS>MOLECULE
outputs/IAG933/test6/raw/output_9679_IAG933_linker_design_.xyz
 44 49 0 0 0
SMALL
GASTEIGER

@<TRIPOS>ATOM
      1 C         -24.8550   -1.0120   30.1430 C.3     1  UNL1        0.0867
      2 C         -24.9730   -2.5050   29.7880 C.2     1  UNL1       -0.0170
      3 C         -23.9060   -3.1730   29.1460 C.2     1  UNL1       -0.0041
      4 C         -23.9890   -4.5490   28.8530 C.2     1  UNL1       -0.0003
      5 C         -25.1370   -5.2800   29.2050 C.2     1  UNL1       -0.0000
      6 C         -26.2320   -4.6110   29.7840 C.2     1  UNL1       -0.0003
      7 C         -26.1550   -3.2320   30.0650 C.2     1  UNL1       -0.0041
      8 C         -25.3870   -0.6790   31.5710 C.3     1  UNL1        0.0809
      9 C         -25.1890    0.7730   32.0280 C.3     1  UNL1        0.0193
     10 C         -25.3360    0.6840   33.5440 C.3     1  UNL1        0.0202
     11 C         -24.8290   -0.7150   33.9050 C.3     1  UNL1        0.0887
     12 N         -24.7580   -1.4810   32.6460 N.3     1  UNL1       -0.2190
     13 C         -25.6880    1.6140   26.4610 C.3     1  UNL1        0.0979
     14 C         -26.2500    2.9200   26.3950 C.2     1  UNL1        0.0550
     15 C         -25.6420    4.0930   27.1230 C.2     1  UNL1        0.2179
     16 N         -25.6140    5.2520   26.4490 N.2     1  UNL1       -0.2359
     17 C         -25.0260    6.4790   26.9630 C.3     1  UNL1        0.1550
     18 O         -25.1430    3.9660   28.2430 O.2     1  UNL1       -0.4614
     19 C         -27.4380    3.0910   25.6450 C.2     1  UNL1        0.1023
     20 N         -28.0750    2.0890   25.0030 N.2     1  UNL1       -0.2119
     21 C         -27.5430    0.8490   25.0790 C.2     1  UNL1        0.2342
     22 O         -28.1930   -0.2080   24.4770 O.2     1  UNL1       -0.4585
     23 C         -29.4600    0.0050   23.8660 C.3     1  UNL1        0.2423
     24 C         -30.0650   -1.3770   23.5730 C.3     1  UNL1        0.2292
     25 O         -30.7290   -1.8780   24.7210 O.3     1  UNL1       -0.2162
     26 C         -26.3540    0.5760   25.7770 C.3     1  UNL1        0.2424
     27 F         -25.8600   -0.6810   25.7950 F       1  UNL1       -0.2268
     28 C         -24.7413    6.1201   31.6235 C.2     1  UNL1       -0.0050
     29 C         -24.4944    6.3115   32.9875 C.3     1  UNL1        0.0742
     30 C         -24.5309    2.0118   29.1853 C.3     1  UNL1        0.1682
     31 C         -22.6833    1.2177   28.2533 C.2     1  UNL1        0.2479
     32 C         -24.2488    1.5941   26.7563 C.3     1  UNL1        0.1338
     33 O         -23.4408    1.4897   25.5136 O.3     1  UNL1       -0.3526
     34 O         -21.4961    1.5881   28.0976 O.2     1  UNL1       -0.2731
     35 C         -24.8328    5.1344   33.7290 C.2     1  UNL1        0.0767
     36 N         -25.4581    4.2863   32.8444 N.2     1  UNL1       -0.2526
     37 N         -23.1149   -0.0235   28.7998 N.am    1  UNL1       -0.1773
     38 C         -24.9841    3.4284   29.3848 C.3     1  UNL1        0.2009
     39 C         -25.3502    4.8784   31.6247 C.2     1  UNL1        0.0585
     40 C         -22.2397    2.3084   25.3463 C.3     1  UNL1        0.1740
     41 C         -24.6302   -0.1148   28.9600 C.3     1  UNL1        0.2163
     42 C         -23.9065    1.9660   27.7293 C.3     1  UNL1        0.1365
     43 O         -25.5268    0.9878   29.0763 O.3     1  UNL1       -0.3342
     44 C         -25.8337    4.1488   30.4943 C.3     1  UNL1        0.0915
@<TRIPOS>BOND
     1     1     2    1
     2     2     7    1
     3     3     2    2
     4     4     3    1
     5     4     5    2
     6     5     6    1
     7     6     7    2
     8     8     1    1
     9     8     9    1
    10     8    12    1
    11     9    10    1
    12    10    11    1
    13    12    11    1
    14    13    14    1
    15    13    32    1
    16    14    15    1
    17    15    18    1
    18    16    17    1
    19    16    15    2
    20    18    38    1
    21    19    14    2
    22    20    21    2
    23    20    19    1
    24    21    26    1
    25    22    21    1
    26    23    22    1
    27    24    23    1
    28    24    25    1
    29    26    27    1
    30    26    13    1
    31    28    39    2
    32    28    29    1
    33    29    35    1
    34    30    43    1
    35    30    38    1
    36    31    37    1
    37    32    33    1
    38    32    42    1
    39    34    31    2
    40    36    35    2
    41    37    41    1
    42    38    44    1
    43    39    36    1
    44    40    33    1
    45    41    43    1
    46    41     1    1
    47    42    31    1
    48    42    30    1
    49    44    39    1
