@<TRIPOS>MOLECULE
outputs/IAG933/test6/raw/output_968_IAG933_linker_design_.xyz
 42 44 0 0 0
SMALL
GASTEIGER

@<TRIPOS>ATOM
      1 C         -24.8550   -1.0120   30.1430 C.3     1  UNL1        0.1109
      2 C         -24.9730   -2.5050   29.7880 C.2     1  UNL1       -0.0051
      3 C         -23.9060   -3.1730   29.1460 C.2     1  UNL1       -0.0029
      4 C         -23.9890   -4.5490   28.8530 C.2     1  UNL1       -0.0003
      5 C         -25.1370   -5.2800   29.2050 C.2     1  UNL1       -0.0000
      6 C         -26.2320   -4.6110   29.7840 C.2     1  UNL1       -0.0003
      7 C         -26.1550   -3.2320   30.0650 C.2     1  UNL1       -0.0029
      8 C         -25.3870   -0.6790   31.5710 C.3     1  UNL1        0.0929
      9 C         -25.1890    0.7730   32.0280 C.3     1  UNL1        0.0206
     10 C         -25.3360    0.6840   33.5440 C.3     1  UNL1        0.0203
     11 C         -24.8290   -0.7150   33.9050 C.3     1  UNL1        0.0888
     12 N         -24.7580   -1.4810   32.6460 N.3     1  UNL1       -0.2177
     13 C         -25.6880    1.6140   26.4610 C.3     1  UNL1        0.0721
     14 C         -26.2500    2.9200   26.3950 C.2     1  UNL1        0.0549
     15 C         -25.6420    4.0930   27.1230 C.2     1  UNL1        0.2624
     16 N         -25.6140    5.2520   26.4490 N.am    1  UNL1       -0.2000
     17 C         -25.0260    6.4790   26.9630 C.3     1  UNL1        0.1388
     18 O         -25.1430    3.9660   28.2430 O.2     1  UNL1       -0.2687
     19 C         -27.4380    3.0910   25.6450 C.2     1  UNL1        0.1021
     20 N         -28.0750    2.0890   25.0030 N.2     1  UNL1       -0.2119
     21 C         -27.5430    0.8490   25.0790 C.2     1  UNL1        0.2341
     22 O         -28.1930   -0.2080   24.4770 O.2     1  UNL1       -0.4585
     23 C         -29.4600    0.0050   23.8660 C.3     1  UNL1        0.2423
     24 C         -30.0650   -1.3770   23.5730 C.3     1  UNL1        0.2292
     25 O         -30.7290   -1.8780   24.7210 O.3     1  UNL1       -0.2162
     26 C         -26.3540    0.5760   25.7770 C.3     1  UNL1        0.2400
     27 F         -25.8600   -0.6810   25.7950 F       1  UNL1       -0.2269
     28 C         -29.2719    0.7344   29.0028 C.3     1  UNL1        0.0281
     29 N         -21.2839    1.7724   27.2638 N.am    1  UNL1       -0.0878
     30 O         -27.4707   -0.8174   29.2032 O.3     1  UNL1       -0.2198
     31 O         -28.5142    3.8625   30.8009 O.2     1  UNL1       -0.1729
     32 C         -24.8236    1.0272   27.4781 C.3     1  UNL1        0.0352
     33 C         -28.1880    1.7010   29.4237 C.3     1  UNL1        0.1608
     34 O         -30.3487    2.6848   29.9864 O.2     1  UNL1       -0.1729
     35 C         -25.6570    0.5508   28.5800 C.3     1  UNL1        0.1060
     36 C         -23.4121    1.2908   28.0113 C.3     1  UNL1        0.0904
     37 C         -29.1410    4.0186   28.4354 C.3     1  UNL1        0.1761
     38 C         -22.6598    1.8387   27.0714 C.2     1  UNL1        0.2608
     39 O         -23.0163    2.2075   25.9501 O.2     1  UNL1       -0.2717
     40 S         -29.1557    3.2812   29.7836 S.O2    1  UNL1       -0.0074
     41 N         -25.1192    0.0852   29.2064 N.3     1  UNL1       -0.2124
     42 C         -27.0338    0.4154   29.0088 C.3     1  UNL1        0.1895
@<TRIPOS>BOND
     1     1    41    1
     2     2     7    1
     3     2     1    1
     4     3     2    2
     5     4     3    1
     6     4     5    2
     7     5     6    1
     8     6     7    2
     9     8     1    1
    10     8     9    1
    11     8    12    1
    12     9    10    1
    13    10    11    1
    14    12    11    1
    15    13    32    1
    16    14    13    1
    17    14    15    1
    18    15    18    2
    19    16    17    1
    20    16    15    1
    21    19    14    2
    22    20    21    2
    23    20    19    1
    24    21    26    1
    25    22    21    1
    26    23    22    1
    27    24    23    1
    28    24    25    1
    29    26    27    1
    30    26    13    1
    31    32    36    1
    32    32    35    1
    33    33    28    1
    34    33    40    1
    35    35    42    1
    36    35    41    1
    37    37    40    1
    38    38    29    1
    39    38    36    1
    40    39    38    2
    41    40    34    2
    42    40    31    2
    43    42    30    1
    44    42    33    1
