@<TRIPOS>MOLECULE
outputs/IAG933/test6/raw/output_9682_IAG933_linker_design_.xyz
 39 41 0 0 0
SMALL
GASTEIGER

@<TRIPOS>ATOM
      1 C         -24.8550   -1.0120   30.1430 C.3     1  UNL1        0.1334
      2 C         -24.9730   -2.5050   29.7880 C.2     1  UNL1       -0.0012
      3 C         -23.9060   -3.1730   29.1460 C.2     1  UNL1       -0.0026
      4 C         -23.9890   -4.5490   28.8530 C.2     1  UNL1       -0.0003
      5 C         -25.1370   -5.2800   29.2050 C.2     1  UNL1       -0.0000
      6 C         -26.2320   -4.6110   29.7840 C.2     1  UNL1       -0.0003
      7 C         -26.1550   -3.2320   30.0650 C.2     1  UNL1       -0.0026
      8 C         -25.3870   -0.6790   31.5710 C.3     1  UNL1        0.0973
      9 C         -25.1890    0.7730   32.0280 C.3     1  UNL1        0.0287
     10 C         -25.3360    0.6840   33.5440 C.3     1  UNL1        0.0208
     11 C         -24.8290   -0.7150   33.9050 C.3     1  UNL1        0.0888
     12 N         -24.7580   -1.4810   32.6460 N.3     1  UNL1       -0.2174
     13 C         -25.6880    1.6140   26.4610 C.2     1  UNL1        0.0871
     14 C         -26.2500    2.9200   26.3950 C.2     1  UNL1        0.0711
     15 C         -25.6420    4.0930   27.1230 C.2     1  UNL1        0.2638
     16 N         -25.6140    5.2520   26.4490 N.am    1  UNL1       -0.2000
     17 C         -25.0260    6.4790   26.9630 C.3     1  UNL1        0.1388
     18 O         -25.1430    3.9660   28.2430 O.2     1  UNL1       -0.2686
     19 C         -27.4380    3.0910   25.6450 C.3     1  UNL1        0.1604
     20 N         -28.0750    2.0890   25.0030 N.2     1  UNL1       -0.2340
     21 C         -27.5430    0.8490   25.0790 C.2     1  UNL1        0.2355
     22 O         -28.1930   -0.2080   24.4770 O.2     1  UNL1       -0.4585
     23 C         -29.4600    0.0050   23.8660 C.3     1  UNL1        0.2423
     24 C         -30.0650   -1.3770   23.5730 C.3     1  UNL1        0.2292
     25 O         -30.7290   -1.8780   24.7210 O.3     1  UNL1       -0.2162
     26 C         -26.3540    0.5760   25.7770 C.3     1  UNL1        0.2722
     27 F         -25.8600   -0.6810   25.7950 F       1  UNL1       -0.2209
     28 C         -25.2259    3.4163   31.7858 C.2     1  UNL1        0.2608
     29 C         -22.3833    1.6461   27.0153 C.3     1  UNL1        0.1205
     30 C         -23.4741    0.8551   27.5890 C.3     1  UNL1        0.1870
     31 N         -21.1382    1.5668   27.4982 N.3     1  UNL1       -0.1306
     32 N         -24.9047   -0.1393   29.0941 N.am    1  UNL1       -0.1998
     33 C         -24.7911    2.1199   31.5025 C.3     1  UNL1        0.0900
     34 O         -24.4191    4.2390   32.1758 O.2     1  UNL1       -0.2717
     35 C         -22.4069    2.1370   25.5919 C.3     1  UNL1        0.0229
     36 N         -26.5178    3.7753   31.7757 N.am    1  UNL1       -0.0878
     37 N         -24.7729    1.4892   27.4153 N.pl3   1  UNL1       -0.2298
     38 C         -23.5988    0.5196   29.0674 C.2     1  UNL1        0.2629
     39 O         -22.7372    0.5628   29.8117 O.2     1  UNL1       -0.2714
@<TRIPOS>BOND
     1     1    32    1
     2     2     7    1
     3     2     1    1
     4     3     2    2
     5     4     3    1
     6     4     5    2
     7     5     6    1
     8     6     7    2
     9     8     1    1
    10     8     9    1
    11     8    12    1
    12     9    33    1
    13     9    10    1
    14    10    11    1
    15    12    11    1
    16    13    37    1
    17    14    13    2
    18    14    15    1
    19    15    18    2
    20    16    17    1
    21    16    15    1
    22    19    14    1
    23    20    21    2
    24    20    19    1
    25    21    26    1
    26    22    21    1
    27    23    22    1
    28    24    23    1
    29    24    25    1
    30    26    27    1
    31    26    13    1
    32    28    34    2
    33    29    35    1
    34    29    31    1
    35    29    30    1
    36    30    37    1
    37    30    38    1
    38    33    28    1
    39    36    28    1
    40    38    32    1
    41    38    39    2
