@<TRIPOS>MOLECULE
outputs/IAG933/test6/raw/output_9684_IAG933_linker_design_.xyz
 47 51 0 0 0
SMALL
GASTEIGER

@<TRIPOS>ATOM
      1 C         -24.8550   -1.0120   30.1430 C.3     1  UNL1        0.1180
      2 C         -24.9730   -2.5050   29.7880 C.2     1  UNL1       -0.0026
      3 C         -23.9060   -3.1730   29.1460 C.2     1  UNL1       -0.0026
      4 C         -23.9890   -4.5490   28.8530 C.2     1  UNL1       -0.0003
      5 C         -25.1370   -5.2800   29.2050 C.2     1  UNL1       -0.0000
      6 C         -26.2320   -4.6110   29.7840 C.2     1  UNL1       -0.0003
      7 C         -26.1550   -3.2320   30.0650 C.2     1  UNL1       -0.0026
      8 C         -25.3870   -0.6790   31.5710 C.3     1  UNL1        0.0955
      9 C         -25.1890    0.7730   32.0280 C.3     1  UNL1        0.0209
     10 C         -25.3360    0.6840   33.5440 C.3     1  UNL1        0.0203
     11 C         -24.8290   -0.7150   33.9050 C.3     1  UNL1        0.0888
     12 N         -24.7580   -1.4810   32.6460 N.3     1  UNL1       -0.2174
     13 C         -25.6880    1.6140   26.4610 C.2     1  UNL1        0.0393
     14 C         -26.2500    2.9200   26.3950 C.2     1  UNL1        0.0766
     15 C         -25.6420    4.0930   27.1230 C.2     1  UNL1        0.2664
     16 N         -25.6140    5.2520   26.4490 N.am    1  UNL1       -0.1997
     17 C         -25.0260    6.4790   26.9630 C.3     1  UNL1        0.1388
     18 O         -25.1430    3.9660   28.2430 O.2     1  UNL1       -0.2683
     19 C         -27.4380    3.0910   25.6450 C.2     1  UNL1        0.1067
     20 N         -28.0750    2.0890   25.0030 N.2     1  UNL1       -0.2081
     21 C         -27.5430    0.8490   25.0790 C.2     1  UNL1        0.2533
     22 O         -28.1930   -0.2080   24.4770 O.2     1  UNL1       -0.4558
     23 C         -29.4600    0.0050   23.8660 C.3     1  UNL1        0.2426
     24 C         -30.0650   -1.3770   23.5730 C.3     1  UNL1        0.2292
     25 O         -30.7290   -1.8780   24.7210 O.3     1  UNL1       -0.2162
     26 C         -26.3540    0.5760   25.7770 C.2     1  UNL1        0.1931
     27 F         -25.8600   -0.6810   25.7950 F       1  UNL1       -0.1992
     28 C         -23.6181    1.5149   27.2551 C.2     1  UNL1        0.0038
     29 C         -22.6312    2.3722   26.3551 C.2     1  UNL1        0.0002
     30 C         -23.2377    0.9676   28.2728 C.2     1  UNL1        0.0305
     31 C         -27.7440   -0.7471   28.7880 C.3     1  UNL1        0.1318
     32 C         -30.4818   -0.1555   29.3415 C.3     1  UNL1        0.2258
     33 C         -21.9576    0.7740   28.6702 C.2     1  UNL1        0.0903
     34 O         -27.2274    1.3072   29.9197 O.2     1  UNL1       -0.2744
     35 N         -25.4403   -0.0199   29.2300 N.am    1  UNL1       -0.2548
     36 C         -20.9961    1.3951   27.8697 C.2     1  UNL1        0.0181
     37 N         -21.6926    0.0657   29.8020 N.pl3   1  UNL1       -0.1280
     38 C         -24.4801    0.7411   28.4336 C.2     1  UNL1        0.0554
     39 O         -32.1170    0.4487   27.3826 O.2     1  UNL1       -0.2796
     40 C         -21.2986    2.1856   26.7315 C.2     1  UNL1        0.0014
     41 C         -26.8039    0.2841   29.3431 C.2     1  UNL1        0.2333
     42 C         -24.6835    1.3583   27.2182 C.2     1  UNL1        0.0163
     43 C         -29.1253   -0.1191   28.7434 C.3     1  UNL1        0.2081
     44 C         -29.9913    1.8258   27.7808 C.2     1  UNL1        0.2178
     45 C         -31.4920    1.6670   27.7212 C.2     1  UNL1        0.2741
     46 O         -31.1495    0.6062   30.1549 O.3     1  UNL1       -0.2164
     47 O         -29.1748    0.6928   27.5232 O.2     1  UNL1       -0.4697
@<TRIPOS>BOND
     1     1    35    1
     2     2     7    1
     3     2     1    1
     4     3     2    2
     5     4     3    1
     6     4     5    2
     7     5     6    1
     8     6     7    2
     9     8     1    1
    10     8     9    1
    11     8    12    1
    12     9    10    1
    13    10    11    1
    14    12    11    1
    15    13    42    1
    16    14    13    1
    17    14    15    1
    18    15    18    2
    19    16    17    1
    20    16    15    1
    21    19    14    2
    22    20    21    2
    23    20    19    1
    24    21    26    1
    25    22    21    1
    26    23    22    1
    27    24    23    1
    28    24    25    1
    29    26    27    1
    30    26    13    2
    31    28    30    1
    32    29    40    1
    33    29    28    2
    34    30    38    1
    35    30    33    2
    36    31    41    1
    37    32    46    1
    38    33    37    1
    39    35    41   am
    40    36    33    1
    41    38    35    1
    42    39    45    1
    43    40    36    2
    44    41    34    2
    45    42    28    1
    46    42    38    2
    47    43    31    1
    48    43    32    1
    49    45    44    2
    50    47    44    1
    51    47    43    1
