@<TRIPOS>MOLECULE
outputs/IAG933/test6/raw/output_9694_IAG933_linker_design_.xyz
 44 48 0 0 0
SMALL
GASTEIGER

@<TRIPOS>ATOM
      1 C         -24.8550   -1.0120   30.1430 C.3     1  UNL1        0.0461
      2 C         -24.9730   -2.5050   29.7880 C.2     1  UNL1       -0.0205
      3 C         -23.9060   -3.1730   29.1460 C.2     1  UNL1       -0.0042
      4 C         -23.9890   -4.5490   28.8530 C.2     1  UNL1       -0.0003
      5 C         -25.1370   -5.2800   29.2050 C.2     1  UNL1       -0.0000
      6 C         -26.2320   -4.6110   29.7840 C.2     1  UNL1       -0.0003
      7 C         -26.1550   -3.2320   30.0650 C.2     1  UNL1       -0.0042
      8 C         -25.3870   -0.6790   31.5710 C.3     1  UNL1        0.0774
      9 C         -25.1890    0.7730   32.0280 C.3     1  UNL1        0.0192
     10 C         -25.3360    0.6840   33.5440 C.3     1  UNL1        0.0202
     11 C         -24.8290   -0.7150   33.9050 C.3     1  UNL1        0.0887
     12 N         -24.7580   -1.4810   32.6460 N.3     1  UNL1       -0.2191
     13 C         -25.6880    1.6140   26.4610 C.2     1  UNL1        0.0431
     14 C         -26.2500    2.9200   26.3950 C.2     1  UNL1        0.0767
     15 C         -25.6420    4.0930   27.1230 C.2     1  UNL1        0.2664
     16 N         -25.6140    5.2520   26.4490 N.am    1  UNL1       -0.1997
     17 C         -25.0260    6.4790   26.9630 C.3     1  UNL1        0.1388
     18 O         -25.1430    3.9660   28.2430 O.2     1  UNL1       -0.2683
     19 C         -27.4380    3.0910   25.6450 C.2     1  UNL1        0.1067
     20 N         -28.0750    2.0890   25.0030 N.2     1  UNL1       -0.2081
     21 C         -27.5430    0.8490   25.0790 C.2     1  UNL1        0.2533
     22 O         -28.1930   -0.2080   24.4770 O.2     1  UNL1       -0.4558
     23 C         -29.4600    0.0050   23.8660 C.3     1  UNL1        0.2426
     24 C         -30.0650   -1.3770   23.5730 C.3     1  UNL1        0.2292
     25 O         -30.7290   -1.8780   24.7210 O.3     1  UNL1       -0.2162
     26 C         -26.3540    0.5760   25.7770 C.2     1  UNL1        0.1932
     27 F         -25.8600   -0.6810   25.7950 F       1  UNL1       -0.1992
     28 C         -21.6592    1.1257   27.9148 C.3     1  UNL1        0.2633
     29 C         -22.7210    0.5091   28.5765 C.2     1  UNL1        0.1580
     30 C         -31.0271    0.5480   28.0124 C.3     1  UNL1        0.1740
     31 C         -24.1406    0.6133   28.2042 C.2     1  UNL1        0.0139
     32 F         -23.2350    2.3995   25.1179 F       1  UNL1       -0.1633
     33 C         -26.6788    0.1601   28.9064 C.2     1  UNL1       -0.0419
     34 O         -21.8736    1.8534   26.7946 O.2     1  UNL1       -0.4461
     35 C         -29.0552   -0.4778   28.7261 C.3     1  UNL1        0.1197
     36 O         -30.1506   -0.5105   27.8018 O.3     1  UNL1       -0.3532
     37 C         -27.2801    1.1868   29.7950 C.2     1  UNL1       -0.0341
     38 F         -22.3406   -0.2157   29.5583 F       1  UNL1       -0.2053
     39 C         -29.3646    0.1595   29.8342 C.3     1  UNL1        0.0345
     40 C         -27.6725   -0.7819   28.3158 C.3     1  UNL1        0.0515
     41 C         -25.2434   -0.0735   28.9888 C.3     1  UNL1        0.0478
     42 C         -24.3404    1.3848   26.9955 C.2     1  UNL1        0.0642
     43 C         -23.1660    1.8871   26.3152 C.2     1  UNL1        0.2833
     44 C         -28.6310    1.2782   30.1393 C.3     1  UNL1        0.0279
@<TRIPOS>BOND
     1     1    41    1
     2     2     7    1
     3     2     1    1
     4     3     2    2
     5     4     3    1
     6     4     5    2
     7     5     6    1
     8     6     7    2
     9     8     1    1
    10     8     9    1
    11     8    12    1
    12     9    10    1
    13    10    11    1
    14    12    11    1
    15    13    42    1
    16    14    13    1
    17    14    15    1
    18    15    18    2
    19    16    17    1
    20    16    15    1
    21    19    14    2
    22    20    21    2
    23    20    19    1
    24    21    26    1
    25    22    21    1
    26    23    22    1
    27    24    23    1
    28    24    25    1
    29    26    27    1
    30    26    13    2
    31    28    29    1
    32    29    38    1
    33    31    29    2
    34    32    43    1
    35    33    41    1
    36    33    37    2
    37    34    28    1
    38    35    36    1
    39    35    39    1
    40    36    30    1
    41    37    44    1
    42    39    44    1
    43    40    35    1
    44    40    33    1
    45    41    31    1
    46    42    31    1
    47    43    34    1
    48    43    42    2
