@<TRIPOS>MOLECULE
outputs/IAG933/test6/raw/output_9697_IAG933_linker_design_.xyz
 39 43 0 0 0
SMALL
GASTEIGER

@<TRIPOS>ATOM
      1 C         -24.8550   -1.0120   30.1430 C.3     1  UNL1        0.1131
      2 C         -24.9730   -2.5050   29.7880 C.2     1  UNL1       -0.0051
      3 C         -23.9060   -3.1730   29.1460 C.2     1  UNL1       -0.0029
      4 C         -23.9890   -4.5490   28.8530 C.2     1  UNL1       -0.0003
      5 C         -25.1370   -5.2800   29.2050 C.2     1  UNL1       -0.0000
      6 C         -26.2320   -4.6110   29.7840 C.2     1  UNL1       -0.0003
      7 C         -26.1550   -3.2320   30.0650 C.2     1  UNL1       -0.0029
      8 C         -25.3870   -0.6790   31.5710 C.3     1  UNL1        0.0930
      9 C         -25.1890    0.7730   32.0280 C.3     1  UNL1        0.0206
     10 C         -25.3360    0.6840   33.5440 C.3     1  UNL1        0.0203
     11 C         -24.8290   -0.7150   33.9050 C.3     1  UNL1        0.0888
     12 N         -24.7580   -1.4810   32.6460 N.3     1  UNL1       -0.2177
     13 C         -25.6880    1.6140   26.4610 C.3     1  UNL1        0.0917
     14 C         -26.2500    2.9200   26.3950 C.2     1  UNL1        0.0565
     15 C         -25.6420    4.0930   27.1230 C.2     1  UNL1        0.2625
     16 N         -25.6140    5.2520   26.4490 N.am    1  UNL1       -0.2000
     17 C         -25.0260    6.4790   26.9630 C.3     1  UNL1        0.1388
     18 O         -25.1430    3.9660   28.2430 O.2     1  UNL1       -0.2687
     19 C         -27.4380    3.0910   25.6450 C.2     1  UNL1        0.1022
     20 N         -28.0750    2.0890   25.0030 N.2     1  UNL1       -0.2119
     21 C         -27.5430    0.8490   25.0790 C.2     1  UNL1        0.2341
     22 O         -28.1930   -0.2080   24.4770 O.2     1  UNL1       -0.4585
     23 C         -29.4600    0.0050   23.8660 C.3     1  UNL1        0.2423
     24 C         -30.0650   -1.3770   23.5730 C.3     1  UNL1        0.2292
     25 O         -30.7290   -1.8780   24.7210 O.3     1  UNL1       -0.2162
     26 C         -26.3540    0.5760   25.7770 C.3     1  UNL1        0.2417
     27 F         -25.8600   -0.6810   25.7950 F       1  UNL1       -0.2268
     28 C         -22.3826    1.9003   25.5535 C.2     1  UNL1        0.3752
     29 N         -25.2902    0.0139   28.2265 N.3     1  UNL1       -0.1425
     30 C         -24.7883    1.0460   27.3903 C.3     1  UNL1        0.1216
     31 N         -21.3127   -0.9626   29.3442 N.pl3   1  UNL1        0.2129
     32 C         -23.4582    0.9906   27.6174 C.2     1  UNL1        0.0496
     33 N         -21.2985    0.7049   27.6743 N.2     1  UNL1       -0.0298
     34 C         -22.2739    1.2599   26.9619 C.2     1  UNL1        0.2555
     35 O         -23.4219    2.4513   25.2005 O.2     1  UNL1       -0.2500
     36 F         -21.3888    1.5796   24.7915 F       1  UNL1       -0.1545
     37 C         -21.8796   -0.0451   28.6358 C.2     1  UNL1        0.4116
     38 C         -23.2451    0.2327   28.6731 C.3     1  UNL1        0.2119
     39 N         -24.3583   -0.1174   29.2991 N.3     1  UNL1       -0.1853
@<TRIPOS>BOND
     1     1     2    1
     2     2     7    1
     3     3     2    2
     4     4     3    1
     5     4     5    2
     6     5     6    1
     7     6     7    2
     8     8     1    1
     9     8     9    1
    10     8    12    1
    11     9    10    1
    12    10    11    1
    13    12    11    1
    14    13    14    1
    15    13    30    1
    16    14    15    1
    17    15    18    2
    18    16    17    1
    19    16    15    1
    20    19    14    2
    21    20    21    2
    22    20    19    1
    23    21    26    1
    24    22    21    1
    25    23    22    1
    26    24    23    1
    27    24    25    1
    28    26    27    1
    29    26    13    1
    30    28    34    1
    31    29    39    1
    32    30    32    1
    33    30    29    1
    34    33    37    2
    35    34    32    2
    36    34    33    1
    37    35    28    2
    38    36    28    1
    39    37    38    1
    40    37    31    1
    41    38    32    1
    42    38    39    1
    43    39     1    1
