@<TRIPOS>MOLECULE
outputs/IAG933/test6/raw/output_970_IAG933_linker_design_.xyz
 45 49 0 0 0
SMALL
GASTEIGER

@<TRIPOS>ATOM
      1 C         -24.8550   -1.0120   30.1430 C.3     1  UNL1        0.0400
      2 C         -24.9730   -2.5050   29.7880 C.2     1  UNL1       -0.0211
      3 C         -23.9060   -3.1730   29.1460 C.2     1  UNL1       -0.0042
      4 C         -23.9890   -4.5490   28.8530 C.2     1  UNL1       -0.0003
      5 C         -25.1370   -5.2800   29.2050 C.2     1  UNL1       -0.0000
      6 C         -26.2320   -4.6110   29.7840 C.2     1  UNL1       -0.0003
      7 C         -26.1550   -3.2320   30.0650 C.2     1  UNL1       -0.0042
      8 C         -25.3870   -0.6790   31.5710 C.3     1  UNL1        0.0769
      9 C         -25.1890    0.7730   32.0280 C.3     1  UNL1        0.0192
     10 C         -25.3360    0.6840   33.5440 C.3     1  UNL1        0.0202
     11 C         -24.8290   -0.7150   33.9050 C.3     1  UNL1        0.0887
     12 N         -24.7580   -1.4810   32.6460 N.3     1  UNL1       -0.2191
     13 C         -25.6880    1.6140   26.4610 C.2     1  UNL1        0.0872
     14 C         -26.2500    2.9200   26.3950 C.2     1  UNL1        0.0899
     15 C         -25.6420    4.0930   27.1230 C.2     1  UNL1        0.2676
     16 N         -25.6140    5.2520   26.4490 N.am    1  UNL1       -0.1997
     17 C         -25.0260    6.4790   26.9630 C.3     1  UNL1        0.1388
     18 O         -25.1430    3.9660   28.2430 O.2     1  UNL1       -0.2683
     19 C         -27.4380    3.0910   25.6450 C.2     1  UNL1        0.1080
     20 N         -28.0750    2.0890   25.0030 N.2     1  UNL1       -0.2080
     21 C         -27.5430    0.8490   25.0790 C.2     1  UNL1        0.2546
     22 O         -28.1930   -0.2080   24.4770 O.2     1  UNL1       -0.4558
     23 C         -29.4600    0.0050   23.8660 C.3     1  UNL1        0.2426
     24 C         -30.0650   -1.3770   23.5730 C.3     1  UNL1        0.2292
     25 O         -30.7290   -1.8780   24.7210 O.3     1  UNL1       -0.2162
     26 C         -26.3540    0.5760   25.7770 C.2     1  UNL1        0.2063
     27 F         -25.8600   -0.6810   25.7950 F       1  UNL1       -0.1979
     28 N         -24.5785    1.4534   27.2277 N.pl3   1  UNL1       -0.2910
     29 C         -29.5726    1.7754   28.7647 C.3     1  UNL1        0.2148
     30 C         -29.4908    3.7575   29.8798 C.2     1  UNL1        0.5519
     31 C         -24.7935    1.2034   28.6812 C.3     1  UNL1        0.0946
     32 O         -30.2016    4.2143   30.7674 O.co2   1  UNL1       -0.1999
     33 C         -23.2875    1.3915   26.7745 C.3     1  UNL1        0.2012
     34 F         -21.1282    1.1143   27.7567 F       1  UNL1       -0.2174
     35 O         -28.5287   -1.6948   29.4068 O.3     1  UNL1       -0.2230
     36 C         -29.6693    0.2704   28.6982 C.3     1  UNL1        0.0804
     37 N         -22.5294   -0.0347   28.9665 N.3     1  UNL1       -0.1825
     38 C         -28.4017   -0.3642   29.1797 C.3     1  UNL1        0.1558
     39 O         -29.0538    4.3483   28.9788 O.co2   1  UNL1       -0.1999
     40 O         -29.1706    2.3460   29.9507 O.3     1  UNL1       -0.4157
     41 C         -25.7028   -0.0560   29.0765 C.3     1  UNL1        0.0276
     42 CL        -22.6038    1.9189   25.2917 Cl      1  UNL1       -0.0883
     43 C         -22.5494    0.8351   27.8695 C.3     1  UNL1        0.2406
     44 C         -23.2499    1.3454   29.0935 C.3     1  UNL1        0.1418
     45 C         -27.1246   -0.2522   28.3672 C.3     1  UNL1        0.0351
@<TRIPOS>BOND
     1     1    41    1
     2     2     7    1
     3     2     1    1
     4     3     2    2
     5     4     3    1
     6     4     5    2
     7     5     6    1
     8     6     7    2
     9     8     1    1
    10     8     9    1
    11     8    12    1
    12     9    10    1
    13    10    11    1
    14    12    11    1
    15    13    28    1
    16    14    13    1
    17    14    15    1
    18    15    18    2
    19    16    17    1
    20    16    15    1
    21    19    14    2
    22    20    21    2
    23    20    19    1
    24    21    26    1
    25    22    21    1
    26    23    22    1
    27    24    23    1
    28    24    25    1
    29    26    27    1
    30    26    13    2
    31    28    31    1
    32    29    40    1
    33    30    40    1
    34    30    32   ar
    35    31    41    1
    36    31    44    1
    37    33    42    1
    38    33    28    1
    39    33    43    1
    40    36    29    1
    41    36    38    1
    42    38    35    1
    43    39    30   ar
    44    41    45    1
    45    43    34    1
    46    43    37    1
    47    43    44    1
    48    44    37    1
    49    45    38    1
