@<TRIPOS>MOLECULE
outputs/IAG933/test6/raw/output_9705_IAG933_linker_design_.xyz
 42 45 0 0 0
SMALL
GASTEIGER

@<TRIPOS>ATOM
      1 C         -24.8550   -1.0120   30.1430 C.3     1  UNL1        0.2024
      2 C         -24.9730   -2.5050   29.7880 C.2     1  UNL1        0.0101
      3 C         -23.9060   -3.1730   29.1460 C.2     1  UNL1       -0.0018
      4 C         -23.9890   -4.5490   28.8530 C.2     1  UNL1       -0.0002
      5 C         -25.1370   -5.2800   29.2050 C.2     1  UNL1       -0.0000
      6 C         -26.2320   -4.6110   29.7840 C.2     1  UNL1       -0.0002
      7 C         -26.1550   -3.2320   30.0650 C.2     1  UNL1       -0.0018
      8 C         -25.3870   -0.6790   31.5710 C.3     1  UNL1        0.1084
      9 C         -25.1890    0.7730   32.0280 C.3     1  UNL1        0.0218
     10 C         -25.3360    0.6840   33.5440 C.3     1  UNL1        0.0203
     11 C         -24.8290   -0.7150   33.9050 C.3     1  UNL1        0.0888
     12 N         -24.7580   -1.4810   32.6460 N.3     1  UNL1       -0.2165
     13 C         -25.6880    1.6140   26.4610 C.3     1  UNL1        0.1135
     14 C         -26.2500    2.9200   26.3950 C.2     1  UNL1        0.0605
     15 C         -25.6420    4.0930   27.1230 C.2     1  UNL1        0.2628
     16 N         -25.6140    5.2520   26.4490 N.am    1  UNL1       -0.2000
     17 C         -25.0260    6.4790   26.9630 C.3     1  UNL1        0.1388
     18 O         -25.1430    3.9660   28.2430 O.2     1  UNL1       -0.2686
     19 C         -27.4380    3.0910   25.6450 C.2     1  UNL1        0.1025
     20 N         -28.0750    2.0890   25.0030 N.2     1  UNL1       -0.2118
     21 C         -27.5430    0.8490   25.0790 C.2     1  UNL1        0.2345
     22 O         -28.1930   -0.2080   24.4770 O.2     1  UNL1       -0.4585
     23 C         -29.4600    0.0050   23.8660 C.3     1  UNL1        0.2423
     24 C         -30.0650   -1.3770   23.5730 C.3     1  UNL1        0.2292
     25 O         -30.7290   -1.8780   24.7210 O.3     1  UNL1       -0.2162
     26 C         -26.3540    0.5760   25.7770 C.3     1  UNL1        0.2456
     27 F         -25.8600   -0.6810   25.7950 F       1  UNL1       -0.2265
     28 O         -23.8739   -0.2540   29.5133 O.3     1  UNL1       -0.1693
     29 C         -24.2792    1.6274   26.7353 C.2     1  UNL1        0.1085
     30 O         -21.1988    1.8825   26.3296 O.2     1  UNL1       -0.3978
     31 C         -23.7155    5.1417   30.5150 C.3     1  UNL1        0.0968
     32 N         -23.5162    2.1554   25.7338 N.2     1  UNL1       -0.2080
     33 C         -21.2405    1.8380   27.7057 C.2     1  UNL1        0.3587
     34 C         -23.1544    3.8193   30.5532 C.2     1  UNL1        0.2463
     35 O         -23.1813    3.3736   31.7090 O.2     1  UNL1       -0.2730
     36 F         -20.0840    2.3055   28.1474 F       1  UNL1        0.0169
     37 O         -24.3867    0.0629   28.4380 O.2     1  UNL1       -0.3304
     38 C         -23.7912    1.1289   27.9481 C.2     1  UNL1        0.2181
     39 C         -22.6937    1.8140   28.4945 C.2     1  UNL1        0.1872
     40 C         -22.2428    2.2484   25.6373 C.2     1  UNL1        0.2872
     41 N         -22.8703    2.5842   29.7039 N.am    1  UNL1       -0.1694
     42 O         -20.3305    1.1470   28.3677 O.2     1  UNL1       -0.2513
@<TRIPOS>BOND
     1     1    28    1
     2     2     7    1
     3     2     1    1
     4     3     2    2
     5     4     3    1
     6     4     5    2
     7     5     6    1
     8     6     7    2
     9     8     1    1
    10     8     9    1
    11     8    12    1
    12     9    10    1
    13    10    11    1
    14    12    11    1
    15    13    29    1
    16    14    13    1
    17    14    15    1
    18    15    18    2
    19    16    17    1
    20    16    15    1
    21    19    14    2
    22    20    21    2
    23    20    19    1
    24    21    26    1
    25    22    21    1
    26    23    22    1
    27    24    23    1
    28    24    25    1
    29    26    27    1
    30    26    13    1
    31    29    38    2
    32    30    33    1
    33    31    34    1
    34    32    29    1
    35    33    42    1
    36    33    39    2
    37    34    35    2
    38    36    42    1
    39    37    28    1
    40    38    37    1
    41    38    39    1
    42    39    41    1
    43    40    32    2
    44    40    30    1
    45    41    34    1
