@<TRIPOS>MOLECULE
outputs/IAG933/test6/raw/output_9706_IAG933_linker_design_.xyz
 46 51 0 0 0
SMALL
GASTEIGER

@<TRIPOS>ATOM
      1 C         -24.8550   -1.0120   30.1430 C.3     1  UNL1        0.1180
      2 C         -24.9730   -2.5050   29.7880 C.2     1  UNL1       -0.0026
      3 C         -23.9060   -3.1730   29.1460 C.2     1  UNL1       -0.0026
      4 C         -23.9890   -4.5490   28.8530 C.2     1  UNL1       -0.0003
      5 C         -25.1370   -5.2800   29.2050 C.2     1  UNL1       -0.0000
      6 C         -26.2320   -4.6110   29.7840 C.2     1  UNL1       -0.0003
      7 C         -26.1550   -3.2320   30.0650 C.2     1  UNL1       -0.0026
      8 C         -25.3870   -0.6790   31.5710 C.3     1  UNL1        0.0955
      9 C         -25.1890    0.7730   32.0280 C.3     1  UNL1        0.0209
     10 C         -25.3360    0.6840   33.5440 C.3     1  UNL1        0.0203
     11 C         -24.8290   -0.7150   33.9050 C.3     1  UNL1        0.0888
     12 N         -24.7580   -1.4810   32.6460 N.3     1  UNL1       -0.2174
     13 C         -25.6880    1.6140   26.4610 C.2     1  UNL1        0.0398
     14 C         -26.2500    2.9200   26.3950 C.2     1  UNL1        0.0766
     15 C         -25.6420    4.0930   27.1230 C.2     1  UNL1        0.2664
     16 N         -25.6140    5.2520   26.4490 N.am    1  UNL1       -0.1997
     17 C         -25.0260    6.4790   26.9630 C.3     1  UNL1        0.1388
     18 O         -25.1430    3.9660   28.2430 O.2     1  UNL1       -0.2683
     19 C         -27.4380    3.0910   25.6450 C.2     1  UNL1        0.1067
     20 N         -28.0750    2.0890   25.0030 N.2     1  UNL1       -0.2081
     21 C         -27.5430    0.8490   25.0790 C.2     1  UNL1        0.2533
     22 O         -28.1930   -0.2080   24.4770 O.2     1  UNL1       -0.4558
     23 C         -29.4600    0.0050   23.8660 C.3     1  UNL1        0.2426
     24 C         -30.0650   -1.3770   23.5730 C.3     1  UNL1        0.2292
     25 O         -30.7290   -1.8780   24.7210 O.3     1  UNL1       -0.2162
     26 C         -26.3540    0.5760   25.7770 C.2     1  UNL1        0.1931
     27 F         -25.8600   -0.6810   25.7950 F       1  UNL1       -0.1992
     28 C         -28.9331    1.5717   29.9370 C.2     1  UNL1        0.0046
     29 C         -29.4733    2.8291   30.3079 C.2     1  UNL1        0.0015
     30 C         -20.7766   -0.1279   28.7197 C.3     1  UNL1        0.0051
     31 O         -27.7016   -0.8060   28.8756 O.2     1  UNL1       -0.2696
     32 C         -24.5032    0.5742   28.3057 C.2     1  UNL1        0.0360
     33 C         -27.2505    3.7211   30.7228 C.2     1  UNL1        0.0892
     34 C         -28.6307    3.9198   30.6206 C.2     1  UNL1        0.0181
     35 C         -27.5368    1.3846   29.9014 C.2     1  UNL1        0.0552
     36 C         -22.3746    1.0392   27.4984 C.2     1  UNL1       -0.0286
     37 N         -25.4555   -0.1137   29.1467 N.am    1  UNL1       -0.2549
     38 C         -20.9422    0.8532   27.6722 C.3     1  UNL1        0.0232
     39 C         -23.1633    1.5928   26.5961 C.2     1  UNL1        0.0511
     40 C         -26.7178    2.4413   30.3759 C.2     1  UNL1        0.0226
     41 CL        -22.3876    2.2344   25.1276 Cl      1  UNL1       -0.0829
     42 N         -26.4286    4.6946   31.2822 N.pl3   1  UNL1       -0.1281
     43 C         -22.1451   -0.3733   29.3674 C.3     1  UNL1        0.0101
     44 C         -24.5625    1.2970   27.1091 C.2     1  UNL1        0.0224
     45 C         -23.1391    0.4767   28.5080 C.3     1  UNL1        0.0553
     46 C         -26.8911    0.1232   29.3089 C.2     1  UNL1        0.2528
@<TRIPOS>BOND
     1     1    37    1
     2     2     7    1
     3     2     1    1
     4     3     2    2
     5     4     3    1
     6     4     5    2
     7     5     6    1
     8     6     7    2
     9     8     1    1
    10     8     9    1
    11     8    12    1
    12     9    10    1
    13    10    11    1
    14    12    11    1
    15    13    44    1
    16    14    13    1
    17    14    15    1
    18    15    18    2
    19    16    17    1
    20    16    15    1
    21    19    14    2
    22    20    21    2
    23    20    19    1
    24    21    26    1
    25    22    21    1
    26    23    22    1
    27    24    23    1
    28    24    25    1
    29    26    27    1
    30    26    13    2
    31    28    29    1
    32    29    34    2
    33    30    43    1
    34    31    46    2
    35    32    45    1
    36    32    37    1
    37    33    42    1
    38    34    33    1
    39    35    28    2
    40    35    40    1
    41    36    38    1
    42    36    45    1
    43    37    46   am
    44    38    30    1
    45    39    44    1
    46    39    36    2
    47    40    33    2
    48    41    39    1
    49    44    32    2
    50    45    43    1
    51    46    35    1
