@<TRIPOS>MOLECULE
outputs/IAG933/test6/raw/output_9709_IAG933_linker_design_.xyz
 41 45 0 0 0
SMALL
GASTEIGER

@<TRIPOS>ATOM
      1 C         -24.8550   -1.0120   30.1430 C.3     1  UNL1        0.1152
      2 C         -24.9730   -2.5050   29.7880 C.2     1  UNL1       -0.0050
      3 C         -23.9060   -3.1730   29.1460 C.2     1  UNL1       -0.0029
      4 C         -23.9890   -4.5490   28.8530 C.2     1  UNL1       -0.0003
      5 C         -25.1370   -5.2800   29.2050 C.2     1  UNL1       -0.0000
      6 C         -26.2320   -4.6110   29.7840 C.2     1  UNL1       -0.0003
      7 C         -26.1550   -3.2320   30.0650 C.2     1  UNL1       -0.0029
      8 C         -25.3870   -0.6790   31.5710 C.3     1  UNL1        0.0954
      9 C         -25.1890    0.7730   32.0280 C.3     1  UNL1        0.0488
     10 C         -25.3360    0.6840   33.5440 C.3     1  UNL1        0.0228
     11 C         -24.8290   -0.7150   33.9050 C.3     1  UNL1        0.0888
     12 N         -24.7580   -1.4810   32.6460 N.3     1  UNL1       -0.2176
     13 C         -25.6880    1.6140   26.4610 C.2     1  UNL1        0.0957
     14 C         -26.2500    2.9200   26.3950 C.2     1  UNL1        0.0904
     15 C         -25.6420    4.0930   27.1230 C.2     1  UNL1        0.2676
     16 N         -25.6140    5.2520   26.4490 N.am    1  UNL1       -0.1997
     17 C         -25.0260    6.4790   26.9630 C.3     1  UNL1        0.1388
     18 O         -25.1430    3.9660   28.2430 O.2     1  UNL1       -0.2683
     19 C         -27.4380    3.0910   25.6450 C.2     1  UNL1        0.1080
     20 N         -28.0750    2.0890   25.0030 N.2     1  UNL1       -0.2080
     21 C         -27.5430    0.8490   25.0790 C.2     1  UNL1        0.2546
     22 O         -28.1930   -0.2080   24.4770 O.2     1  UNL1       -0.4558
     23 C         -29.4600    0.0050   23.8660 C.3     1  UNL1        0.2426
     24 C         -30.0650   -1.3770   23.5730 C.3     1  UNL1        0.2292
     25 O         -30.7290   -1.8780   24.7210 O.3     1  UNL1       -0.2162
     26 C         -26.3540    0.5760   25.7770 C.2     1  UNL1        0.2067
     27 F         -25.8600   -0.6810   25.7950 F       1  UNL1       -0.1979
     28 C         -24.3529    1.8967   31.4273 C.3     1  UNL1        0.1437
     29 O         -22.8344    2.5081   25.7287 O.2     1  UNL1       -0.2697
     30 C         -21.7578    0.0718   29.3113 C.3     1  UNL1        0.1702
     31 O         -25.0517    3.0757   31.1320 O.3     1  UNL1       -0.3511
     32 C         -22.7232    0.6019   28.4211 C.2     1  UNL1        0.0493
     33 O         -24.8878   -0.2150   28.0924 O.3     1  UNL1       -0.1810
     34 N         -24.4704    0.2494   29.5728 N.3     1  UNL1       -0.1677
     35 C         -23.2400    1.7898   26.5822 C.2     1  UNL1        0.2537
     36 C         -20.7088    1.0121   27.6043 C.3     1  UNL1        0.1732
     37 C         -24.2931    0.7315   28.2406 C.3     1  UNL1        0.2738
     38 O         -20.4420    0.0923   28.5828 O.3     1  UNL1       -0.3443
     39 N         -24.4645    1.4308   27.0355 N.am    1  UNL1       -0.2149
     40 C         -22.2243    1.2333   27.4313 C.2     1  UNL1        0.0610
     41 C         -24.9548    4.2480   31.9173 C.3     1  UNL1        0.1741
@<TRIPOS>BOND
     1     1    34    1
     2     2     7    1
     3     2     1    1
     4     3     2    2
     5     4     3    1
     6     4     5    2
     7     5     6    1
     8     6     7    2
     9     8     1    1
    10     8     9    1
    11     8    12    1
    12     9    28    1
    13     9    10    1
    14    10    11    1
    15    12    11    1
    16    13    39    1
    17    14    13    1
    18    14    15    1
    19    15    18    2
    20    16    17    1
    21    16    15    1
    22    19    14    2
    23    20    21    2
    24    20    19    1
    25    21    26    1
    26    22    21    1
    27    23    22    1
    28    24    23    1
    29    24    25    1
    30    26    27    1
    31    26    13    2
    32    29    35    2
    33    31    28    1
    34    31    41    1
    35    32    30    1
    36    35    39   am
    37    35    40    1
    38    36    38    1
    39    37    33    1
    40    37    32    1
    41    37    34    1
    42    38    30    1
    43    39    37    1
    44    40    36    1
    45    40    32    2
