@<TRIPOS>MOLECULE
outputs/IAG933/test6/raw/output_9710_IAG933_linker_design_.xyz
 47 52 0 0 0
SMALL
GASTEIGER

@<TRIPOS>ATOM
      1 C         -24.8550   -1.0120   30.1430 C.3     1  UNL1        0.0613
      2 C         -24.9730   -2.5050   29.7880 C.2     1  UNL1       -0.0192
      3 C         -23.9060   -3.1730   29.1460 C.2     1  UNL1       -0.0042
      4 C         -23.9890   -4.5490   28.8530 C.2     1  UNL1       -0.0003
      5 C         -25.1370   -5.2800   29.2050 C.2     1  UNL1       -0.0000
      6 C         -26.2320   -4.6110   29.7840 C.2     1  UNL1       -0.0003
      7 C         -26.1550   -3.2320   30.0650 C.2     1  UNL1       -0.0042
      8 C         -25.3870   -0.6790   31.5710 C.3     1  UNL1        0.0787
      9 C         -25.1890    0.7730   32.0280 C.3     1  UNL1        0.0193
     10 C         -25.3360    0.6840   33.5440 C.3     1  UNL1        0.0202
     11 C         -24.8290   -0.7150   33.9050 C.3     1  UNL1        0.0887
     12 N         -24.7580   -1.4810   32.6460 N.3     1  UNL1       -0.2191
     13 C         -25.6880    1.6140   26.4610 C.2     1  UNL1        0.0342
     14 C         -26.2500    2.9200   26.3950 C.2     1  UNL1        0.0762
     15 C         -25.6420    4.0930   27.1230 C.2     1  UNL1        0.2664
     16 N         -25.6140    5.2520   26.4490 N.am    1  UNL1       -0.1997
     17 C         -25.0260    6.4790   26.9630 C.3     1  UNL1        0.1388
     18 O         -25.1430    3.9660   28.2430 O.2     1  UNL1       -0.2683
     19 C         -27.4380    3.0910   25.6450 C.2     1  UNL1        0.1067
     20 N         -28.0750    2.0890   25.0030 N.2     1  UNL1       -0.2081
     21 C         -27.5430    0.8490   25.0790 C.2     1  UNL1        0.2533
     22 O         -28.1930   -0.2080   24.4770 O.2     1  UNL1       -0.4558
     23 C         -29.4600    0.0050   23.8660 C.3     1  UNL1        0.2426
     24 C         -30.0650   -1.3770   23.5730 C.3     1  UNL1        0.2292
     25 O         -30.7290   -1.8780   24.7210 O.3     1  UNL1       -0.2162
     26 C         -26.3540    0.5760   25.7770 C.2     1  UNL1        0.1927
     27 F         -25.8600   -0.6810   25.7950 F       1  UNL1       -0.1993
     28 N         -31.2267    2.2872   29.6891 N.am    1  UNL1       -0.1783
     29 C         -22.7620    0.5719   28.8685 C.2     1  UNL1       -0.0205
     30 C         -24.4522    1.3365   27.2477 C.2     1  UNL1       -0.0180
     31 C         -22.9990    2.2991   25.4134 C.3     1  UNL1        0.0307
     32 C         -28.1513    0.4328   28.4525 C.2     1  UNL1        0.0869
     33 S         -28.9603    3.2384   29.4538 S.3     1  UNL1       -0.0828
     34 C         -22.1434    1.3942   27.7601 C.2     1  UNL1       -0.0087
     35 C         -30.6699    3.4254   29.6781 C.2     1  UNL1        0.0991
     36 C         -29.1973    1.5102   28.9536 C.3     1  UNL1        0.1717
     37 O         -30.7663    0.0467   28.5975 O.2     1  UNL1       -0.2716
     38 C         -32.6027    0.9848   31.1193 C.3     1  UNL1        0.1360
     39 C         -33.2396    3.2625   30.4646 C.2     1  UNL1        0.0806
     40 N         -26.7453    0.4941   29.1481 N.2     1  UNL1       -0.2731
     41 N         -32.4169    2.1822   30.3684 N.pl3   1  UNL1       -0.2281
     42 C         -30.5402    1.3381   29.0787 C.2     1  UNL1        0.2615
     43 C         -31.3701    4.5912   29.7849 C.2     1  UNL1        0.0243
     44 C         -23.2844    1.7414   26.8190 C.2     1  UNL1       -0.0257
     45 C         -25.3170    0.1246   29.2285 C.3     1  UNL1        0.1163
     46 C         -24.2799    0.6586   28.4495 C.3     1  UNL1        0.0667
     47 C         -32.6977    4.5149   30.1324 C.2     1  UNL1        0.0193
@<TRIPOS>BOND
     1     1    45    1
     2     2     7    1
     3     2     1    1
     4     3     2    2
     5     4     3    1
     6     4     5    2
     7     5     6    1
     8     6     7    2
     9     8     1    1
    10     8     9    1
    11     8    12    1
    12     9    10    1
    13    10    11    1
    14    12    11    1
    15    13    30    1
    16    14    13    1
    17    14    15    1
    18    15    18    2
    19    16    17    1
    20    16    15    1
    21    19    14    2
    22    20    21    2
    23    20    19    1
    24    21    26    1
    25    22    21    1
    26    23    22    1
    27    24    23    1
    28    24    25    1
    29    26    27    1
    30    26    13    2
    31    28    41    1
    32    30    46    1
    33    31    44    1
    34    32    40    2
    35    33    35    1
    36    34    29    2
    37    35    28    1
    38    35    43    2
    39    36    32    1
    40    36    42    1
    41    36    33    1
    42    37    42    2
    43    41    39    1
    44    41    38    1
    45    42    28   am
    46    43    47    1
    47    44    30    2
    48    44    34    1
    49    45    40    1
    50    46    29    1
    51    46    45    1
    52    47    39    2
