@<TRIPOS>MOLECULE
outputs/IAG933/test6/raw/output_9714_IAG933_linker_design_.xyz
 42 46 0 0 0
SMALL
GASTEIGER

@<TRIPOS>ATOM
      1 C         -24.8550   -1.0120   30.1430 C.3     1  UNL1        0.0688
      2 C         -24.9730   -2.5050   29.7880 C.2     1  UNL1       -0.0187
      3 C         -23.9060   -3.1730   29.1460 C.2     1  UNL1       -0.0042
      4 C         -23.9890   -4.5490   28.8530 C.2     1  UNL1       -0.0003
      5 C         -25.1370   -5.2800   29.2050 C.2     1  UNL1       -0.0000
      6 C         -26.2320   -4.6110   29.7840 C.2     1  UNL1       -0.0003
      7 C         -26.1550   -3.2320   30.0650 C.2     1  UNL1       -0.0042
      8 C         -25.3870   -0.6790   31.5710 C.3     1  UNL1        0.0793
      9 C         -25.1890    0.7730   32.0280 C.3     1  UNL1        0.0193
     10 C         -25.3360    0.6840   33.5440 C.3     1  UNL1        0.0202
     11 C         -24.8290   -0.7150   33.9050 C.3     1  UNL1        0.0887
     12 N         -24.7580   -1.4810   32.6460 N.3     1  UNL1       -0.2190
     13 C         -25.6880    1.6140   26.4610 C.2     1  UNL1        0.0357
     14 C         -26.2500    2.9200   26.3950 C.2     1  UNL1        0.0742
     15 C         -25.6420    4.0930   27.1230 C.2     1  UNL1        0.2662
     16 N         -25.6140    5.2520   26.4490 N.am    1  UNL1       -0.1997
     17 C         -25.0260    6.4790   26.9630 C.3     1  UNL1        0.1388
     18 O         -25.1430    3.9660   28.2430 O.2     1  UNL1       -0.2683
     19 C         -27.4380    3.0910   25.6450 C.2     1  UNL1        0.1065
     20 N         -28.0750    2.0890   25.0030 N.2     1  UNL1       -0.2081
     21 C         -27.5430    0.8490   25.0790 C.2     1  UNL1        0.2530
     22 O         -28.1930   -0.2080   24.4770 O.2     1  UNL1       -0.4558
     23 C         -29.4600    0.0050   23.8660 C.3     1  UNL1        0.2426
     24 C         -30.0650   -1.3770   23.5730 C.3     1  UNL1        0.2292
     25 O         -30.7290   -1.8780   24.7210 O.3     1  UNL1       -0.2162
     26 C         -26.3540    0.5760   25.7770 C.2     1  UNL1        0.1907
     27 F         -25.8600   -0.6810   25.7950 F       1  UNL1       -0.1995
     28 C         -25.1842   -0.0922   28.9669 C.3     1  UNL1        0.1595
     29 C         -22.5700    2.2279   26.0373 C.2     1  UNL1        0.4232
     30 O         -23.0470    3.1037   25.3426 O.2     1  UNL1       -0.2245
     31 C         -24.1692    1.0464   28.5523 C.3     1  UNL1        0.0637
     32 C         -21.4647    1.3247   27.7556 C.3     1  UNL1        0.2945
     33 N         -23.3300    1.2328   26.1262 N.am    1  UNL1       -0.1658
     34 O         -22.4476    0.1798   30.8320 O.3     1  UNL1       -0.2228
     35 C         -24.3719    1.2090   27.0577 C.3     1  UNL1        0.1260
     36 C         -19.9095   -0.0079   28.7719 C.3     1  UNL1        0.1485
     37 O         -20.1650    1.2110   28.3529 O.3     1  UNL1       -0.3204
     38 C         -22.2192   -0.0887   29.5761 C.3     1  UNL1        0.1607
     39 O         -21.3142    2.1498   26.6194 O.3     1  UNL1       -0.4092
     40 C         -22.5525    0.7835   28.4922 C.3     1  UNL1        0.1052
     41 C         -21.0996   -0.9152   29.1715 C.3     1  UNL1        0.0653
     42 O         -26.5196    0.2080   28.7291 O.3     1  UNL1       -0.2227
@<TRIPOS>BOND
     1     1    28    1
     2     2     7    1
     3     2     1    1
     4     3     2    2
     5     4     3    1
     6     4     5    2
     7     5     6    1
     8     6     7    2
     9     8     1    1
    10     8     9    1
    11     8    12    1
    12     9    10    1
    13    10    11    1
    14    12    11    1
    15    14    13    1
    16    14    15    1
    17    15    18    2
    18    16    17    1
    19    16    15    1
    20    19    14    2
    21    20    21    2
    22    20    19    1
    23    21    26    1
    24    22    21    1
    25    23    22    1
    26    24    23    1
    27    24    25    1
    28    26    27    1
    29    26    13    2
    30    28    42    1
    31    29    33    1
    32    29    39    1
    33    30    29    2
    34    31    28    1
    35    32    39    1
    36    32    37    1
    37    32    40    1
    38    33    35    1
    39    35    13    1
    40    35    31    1
    41    36    41    1
    42    37    36    1
    43    38    34    1
    44    40    31    1
    45    40    38    1
    46    41    38    1
