@<TRIPOS>MOLECULE
outputs/IAG933/test6/raw/output_9718_IAG933_linker_design_.xyz
 59 64 0 0 0
SMALL
GASTEIGER

@<TRIPOS>ATOM
      1 C         -24.8550   -1.0120   30.1430 C.3     1  UNL1        0.0407
      2 C         -24.9730   -2.5050   29.7880 C.2     1  UNL1       -0.0211
      3 C         -23.9060   -3.1730   29.1460 C.2     1  UNL1       -0.0042
      4 C         -23.9890   -4.5490   28.8530 C.2     1  UNL1       -0.0003
      5 C         -25.1370   -5.2800   29.2050 C.2     1  UNL1       -0.0000
      6 C         -26.2320   -4.6110   29.7840 C.2     1  UNL1       -0.0003
      7 C         -26.1550   -3.2320   30.0650 C.2     1  UNL1       -0.0042
      8 C         -25.3870   -0.6790   31.5710 C.3     1  UNL1        0.0770
      9 C         -25.1890    0.7730   32.0280 C.3     1  UNL1        0.0230
     10 C         -25.3360    0.6840   33.5440 C.3     1  UNL1        0.0204
     11 C         -24.8290   -0.7150   33.9050 C.3     1  UNL1        0.0887
     12 N         -24.7580   -1.4810   32.6460 N.3     1  UNL1       -0.2191
     13 C         -25.6880    1.6140   26.4610 C.2     1  UNL1        0.0333
     14 C         -26.2500    2.9200   26.3950 C.2     1  UNL1        0.0739
     15 C         -25.6420    4.0930   27.1230 C.2     1  UNL1        0.2662
     16 N         -25.6140    5.2520   26.4490 N.am    1  UNL1       -0.1997
     17 C         -25.0260    6.4790   26.9630 C.3     1  UNL1        0.1388
     18 O         -25.1430    3.9660   28.2430 O.2     1  UNL1       -0.2683
     19 C         -27.4380    3.0910   25.6450 C.2     1  UNL1        0.1065
     20 N         -28.0750    2.0890   25.0030 N.2     1  UNL1       -0.2081
     21 C         -27.5430    0.8490   25.0790 C.2     1  UNL1        0.2530
     22 O         -28.1930   -0.2080   24.4770 O.2     1  UNL1       -0.4558
     23 C         -29.4600    0.0050   23.8660 C.3     1  UNL1        0.2426
     24 C         -30.0650   -1.3770   23.5730 C.3     1  UNL1        0.2292
     25 O         -30.7290   -1.8780   24.7210 O.3     1  UNL1       -0.2162
     26 C         -26.3540    0.5760   25.7770 C.2     1  UNL1        0.1905
     27 F         -25.8600   -0.6810   25.7950 F       1  UNL1       -0.1995
     28 C         -25.3903    5.5931   33.4033 C.3     1  UNL1        0.2381
     29 N         -32.5862    0.1113   32.0204 N.am    1  UNL1       -0.0676
     30 C         -23.6754    1.3506   29.4719 C.3     1  UNL1        0.0865
     31 C         -23.5442   -0.1241   29.8965 C.3     1  UNL1        0.0358
     32 O         -27.9173    2.6630   33.0895 O.3     1  UNL1       -0.2182
     33 N         -30.7943   -1.0881   31.3977 N.am    1  UNL1       -0.1596
     34 O         -19.6698    9.1970   35.6369 O.3     1  UNL1       -0.2076
     35 O         -22.7973    7.4576   35.0861 O.3     1  UNL1       -0.4224
     36 C         -20.8870    8.6277   35.9648 C.3     1  UNL1        0.2906
     37 O         -20.8347    8.1314   33.5843 O.2     1  UNL1       -0.2471
     38 C         -28.2119    1.4901   30.9924 C.2     1  UNL1        0.0091
     39 C         -20.4725    1.8130   27.8825 C.1     1  UNL1       -0.0141
     40 C         -24.4830    1.2723   27.1441 C.3     1  UNL1        0.1175
     41 C         -23.8962    7.2913   34.2603 C.3     1  UNL1        0.2924
     42 O         -25.8855    4.2988   32.8825 O.3     1  UNL1       -0.3303
     43 C         -29.3134    0.7971   31.5184 C.2     1  UNL1        0.0148
     44 C         -27.8262    1.3362   29.6608 C.2     1  UNL1       -0.0018
     45 C         -23.7393    7.1050   32.7101 C.3     1  UNL1        0.0817
     46 C         -27.3828    2.1952   31.9005 C.3     1  UNL1        0.1767
     47 C         -25.0396    6.4698   32.3012 C.3     1  UNL1        0.0679
     48 C         -31.5727   -0.6537   32.4081 C.2     1  UNL1        0.3632
     49 O         -24.6527    6.3017   34.7077 O.3     1  UNL1       -0.2955
     50 N         -24.7904    1.5627   28.6410 N.3     1  UNL1       -0.2136
     51 C         -29.7831   -0.2925   30.7886 C.2     1  UNL1        0.0748
     52 O         -31.3631   -0.8805   33.5954 O.2     1  UNL1       -0.2471
     53 C         -21.5492    7.9578   34.7221 C.2     1  UNL1        0.3528
     54 C         -29.2299   -0.6428   29.5586 C.2     1  UNL1        0.0166
     55 C         -28.3104    0.2244   28.9231 C.2     1  UNL1        0.0011
     56 C         -25.5123    3.7157   31.6162 C.3     1  UNL1        0.1476
     57 C         -22.3637    0.6439   29.2337 C.3     1  UNL1        0.0828
     58 C         -25.8772    2.1200   31.5732 C.3     1  UNL1        0.0658
     59 C         -21.5014    1.2295   28.2925 C.1     1  UNL1       -0.0774
@<TRIPOS>BOND
     1     1     2    1
     2     2     7    1
     3     3     2    2
     4     4     3    1
     5     4     5    2
     6     5     6    1
     7     6     7    2
     8     8     1    1
     9     8     9    1
    10     8    12    1
    11     9    58    1
    12     9    10    1
    13    10    11    1
    14    12    11    1
    15    13    40    1
    16    14    13    1
    17    14    15    1
    18    15    18    2
    19    16    17    1
    20    16    15    1
    21    19    14    2
    22    20    21    2
    23    20    19    1
    24    21    26    1
    25    22    21    1
    26    23    22    1
    27    24    23    1
    28    24    25    1
    29    26    27    1
    30    26    13    2
    31    28    42    1
    32    28    49    1
    33    29    48    1
    34    30    50    1
    35    30    31    1
    36    31     1    1
    37    33    48    1
    38    34    36    1
    39    37    53    2
    40    38    43    1
    41    38    46    1
    42    39    59    3
    43    40    50    1
    44    41    49    1
    45    41    35    1
    46    44    38    2
    47    45    41    1
    48    46    32    1
    49    47    45    1
    50    47    28    1
    51    48    52    2
    52    51    33    1
    53    51    43    2
    54    53    35    1
    55    53    36    1
    56    54    51    1
    57    55    54    2
    58    55    44    1
    59    56    42    1
    60    57    59    1
    61    57    30    1
    62    57    31    1
    63    58    56    1
    64    58    46    1
