@<TRIPOS>MOLECULE
outputs/IAG933/test6/raw/output_9719_IAG933_linker_design_.xyz
 46 50 0 0 0
SMALL
GASTEIGER

@<TRIPOS>ATOM
      1 C         -24.8550   -1.0120   30.1430 C.3     1  UNL1        0.0530
      2 C         -24.9730   -2.5050   29.7880 C.2     1  UNL1       -0.0198
      3 C         -23.9060   -3.1730   29.1460 C.2     1  UNL1       -0.0042
      4 C         -23.9890   -4.5490   28.8530 C.2     1  UNL1       -0.0003
      5 C         -25.1370   -5.2800   29.2050 C.2     1  UNL1       -0.0000
      6 C         -26.2320   -4.6110   29.7840 C.2     1  UNL1       -0.0003
      7 C         -26.1550   -3.2320   30.0650 C.2     1  UNL1       -0.0042
      8 C         -25.3870   -0.6790   31.5710 C.3     1  UNL1        0.0781
      9 C         -25.1890    0.7730   32.0280 C.3     1  UNL1        0.0192
     10 C         -25.3360    0.6840   33.5440 C.3     1  UNL1        0.0202
     11 C         -24.8290   -0.7150   33.9050 C.3     1  UNL1        0.0887
     12 N         -24.7580   -1.4810   32.6460 N.3     1  UNL1       -0.2191
     13 C         -25.6880    1.6140   26.4610 C.3     1  UNL1        0.0853
     14 C         -26.2500    2.9200   26.3950 C.2     1  UNL1        0.0561
     15 C         -25.6420    4.0930   27.1230 C.2     1  UNL1        0.2625
     16 N         -25.6140    5.2520   26.4490 N.am    1  UNL1       -0.2000
     17 C         -25.0260    6.4790   26.9630 C.3     1  UNL1        0.1388
     18 O         -25.1430    3.9660   28.2430 O.2     1  UNL1       -0.2687
     19 C         -27.4380    3.0910   25.6450 C.2     1  UNL1        0.1022
     20 N         -28.0750    2.0890   25.0030 N.2     1  UNL1       -0.2119
     21 C         -27.5430    0.8490   25.0790 C.2     1  UNL1        0.2341
     22 O         -28.1930   -0.2080   24.4770 O.2     1  UNL1       -0.4585
     23 C         -29.4600    0.0050   23.8660 C.3     1  UNL1        0.2423
     24 C         -30.0650   -1.3770   23.5730 C.3     1  UNL1        0.2292
     25 O         -30.7290   -1.8780   24.7210 O.3     1  UNL1       -0.2162
     26 C         -26.3540    0.5760   25.7770 C.3     1  UNL1        0.2413
     27 F         -25.8600   -0.6810   25.7950 F       1  UNL1       -0.2268
     28 O         -22.2248    1.8802   27.9078 O.3     1  UNL1       -0.4444
     29 C         -30.9251    0.6964   26.9945 C.2     1  UNL1        0.0028
     30 O         -22.4007    0.0833   29.3838 O.2     1  UNL1       -0.2501
     31 C         -28.0741    0.7361   29.4873 C.3     1  UNL1        0.0397
     32 C         -25.7790   -0.1347   29.2493 C.3     1  UNL1        0.0632
     33 N         -25.7602    1.3231   28.8689 N.3     1  UNL1       -0.2736
     34 C         -20.9069    1.6054   27.4465 C.3     1  UNL1        0.2556
     35 C         -27.0751    1.8812   29.3051 C.3     1  UNL1        0.0764
     36 C         -27.3236   -0.5074   29.0375 C.3     1  UNL1        0.0221
     37 C         -30.0439    2.0666   29.2209 C.2     1  UNL1        0.0327
     38 C         -31.4485    1.9725   27.3036 C.2     1  UNL1        0.0369
     39 C         -31.0082    2.6431   28.4323 C.2     1  UNL1        0.1384
     40 C         -29.9149    0.1171   27.7757 C.2     1  UNL1       -0.0040
     41 C         -25.1266    1.1276   27.7332 C.3     1  UNL1        0.0759
     42 C         -22.7562    0.6803   28.5678 C.2     1  UNL1        0.3185
     43 C         -32.5699    4.2875   27.9129 C.3     1  UNL1        0.2525
     44 O         -31.4092    3.9031   28.7037 O.2     1  UNL1       -0.4714
     45 C         -23.8752    0.4412   27.5642 C.3     1  UNL1        0.1259
     46 C         -29.3777    0.9415   28.7964 C.2     1  UNL1       -0.0181
@<TRIPOS>BOND
     1     1     2    1
     2     2     7    1
     3     3     2    2
     4     4     3    1
     5     4     5    2
     6     5     6    1
     7     6     7    2
     8     8     1    1
     9     8     9    1
    10     8    12    1
    11     9    10    1
    12    10    11    1
    13    12    11    1
    14    13    41    1
    15    14    13    1
    16    14    15    1
    17    15    18    2
    18    16    17    1
    19    16    15    1
    20    19    14    2
    21    20    21    2
    22    20    19    1
    23    21    26    1
    24    22    21    1
    25    23    22    1
    26    24    23    1
    27    24    25    1
    28    26    27    1
    29    26    13    1
    30    28    42    1
    31    29    38    2
    32    29    40    1
    33    31    46    1
    34    32     1    1
    35    33    32    1
    36    33    35    1
    37    34    28    1
    38    35    31    1
    39    36    32    1
    40    36    31    1
    41    38    39    1
    42    39    44    1
    43    39    37    2
    44    40    46    2
    45    41    45    1
    46    41    33    1
    47    42    30    2
    48    43    44    1
    49    45    42    1
    50    46    37    1
