@<TRIPOS>MOLECULE
outputs/IAG933/test6/raw/output_9721_IAG933_linker_design_.xyz
 47 52 0 0 0
SMALL
GASTEIGER

@<TRIPOS>ATOM
      1 C         -24.8550   -1.0120   30.1430 C.3     1  UNL1        0.1138
      2 C         -24.9730   -2.5050   29.7880 C.2     1  UNL1       -0.0029
      3 C         -23.9060   -3.1730   29.1460 C.2     1  UNL1       -0.0026
      4 C         -23.9890   -4.5490   28.8530 C.2     1  UNL1       -0.0003
      5 C         -25.1370   -5.2800   29.2050 C.2     1  UNL1       -0.0000
      6 C         -26.2320   -4.6110   29.7840 C.2     1  UNL1       -0.0003
      7 C         -26.1550   -3.2320   30.0650 C.2     1  UNL1       -0.0026
      8 C         -25.3870   -0.6790   31.5710 C.3     1  UNL1        0.0967
      9 C         -25.1890    0.7730   32.0280 C.3     1  UNL1        0.0395
     10 C         -25.3360    0.6840   33.5440 C.3     1  UNL1        0.0220
     11 C         -24.8290   -0.7150   33.9050 C.3     1  UNL1        0.0888
     12 N         -24.7580   -1.4810   32.6460 N.3     1  UNL1       -0.2174
     13 C         -25.6880    1.6140   26.4610 C.3     1  UNL1        0.0719
     14 C         -26.2500    2.9200   26.3950 C.2     1  UNL1        0.0549
     15 C         -25.6420    4.0930   27.1230 C.2     1  UNL1        0.2624
     16 N         -25.6140    5.2520   26.4490 N.am    1  UNL1       -0.2000
     17 C         -25.0260    6.4790   26.9630 C.3     1  UNL1        0.1388
     18 O         -25.1430    3.9660   28.2430 O.2     1  UNL1       -0.2687
     19 C         -27.4380    3.0910   25.6450 C.2     1  UNL1        0.1021
     20 N         -28.0750    2.0890   25.0030 N.2     1  UNL1       -0.2119
     21 C         -27.5430    0.8490   25.0790 C.2     1  UNL1        0.2341
     22 O         -28.1930   -0.2080   24.4770 O.2     1  UNL1       -0.4585
     23 C         -29.4600    0.0050   23.8660 C.3     1  UNL1        0.2423
     24 C         -30.0650   -1.3770   23.5730 C.3     1  UNL1        0.2292
     25 O         -30.7290   -1.8780   24.7210 O.3     1  UNL1       -0.2162
     26 C         -26.3540    0.5760   25.7770 C.3     1  UNL1        0.2400
     27 F         -25.8600   -0.6810   25.7950 F       1  UNL1       -0.2269
     28 O         -22.4732    0.8929   30.2839 O.2     1  UNL1       -0.2749
     29 C         -23.0155    0.3158   29.5233 C.2     1  UNL1        0.2259
     30 N         -24.2429   -0.0371   29.3797 N.am    1  UNL1       -0.2760
     31 C         -25.3446    1.5554   30.6073 C.3     1  UNL1        0.1002
     32 C         -22.8039    0.2436   28.1625 C.3     1  UNL1        0.0881
     33 C         -29.1808    4.7556   29.3098 C.3     1  UNL1        0.1761
     34 N         -26.3118    2.7148   30.6959 N.am    1  UNL1       -0.2233
     35 O         -27.9749    4.6281   30.0915 O.3     1  UNL1       -0.3347
     36 C         -25.9871    3.6012   31.6500 C.2     1  UNL1        0.4065
     37 C         -23.3628    1.1224   27.3089 C.3     1  UNL1        0.0438
     38 O         -26.6667    3.4511   32.8589 O.3     1  UNL1       -0.4343
     39 F         -21.1974    1.6996   26.9586 F       1  UNL1       -0.2373
     40 C         -27.6802    3.2010   30.2549 C.3     1  UNL1        0.2004
     41 C         -25.1851    1.0436   28.9703 C.3     1  UNL1        0.0944
     42 C         -28.0543    3.2772   32.7484 C.3     1  UNL1        0.2145
     43 C         -22.4931    1.6521   26.4827 C.3     1  UNL1        0.1615
     44 C         -22.6959    2.3108   25.1874 C.3     1  UNL1        0.0381
     45 C         -24.7356    1.2919   27.4448 C.3     1  UNL1        0.0304
     46 O         -25.2240    4.5164   31.3498 O.2     1  UNL1       -0.2261
     47 C         -28.5986    2.7268   31.4413 C.3     1  UNL1        0.0985
@<TRIPOS>BOND
     1     1     2    1
     2     1     8    1
     3     2     7    1
     4     3     2    2
     5     4     3    1
     6     4     5    2
     7     5     6    1
     8     6     7    2
     9     8     9    1
    10     8    12    1
    11     9    10    1
    12    10    11    1
    13    12    11    1
    14    13    14    1
    15    14    15    1
    16    15    18    2
    17    16    17    1
    18    16    15    1
    19    19    14    2
    20    20    21    2
    21    20    19    1
    22    21    26    1
    23    22    21    1
    24    23    22    1
    25    24    23    1
    26    24    25    1
    27    26    27    1
    28    26    13    1
    29    29    28    2
    30    30    29   am
    31    30     1    1
    32    31    34    1
    33    31     9    1
    34    32    29    1
    35    33    35    1
    36    34    36   am
    37    36    38    1
    38    37    43    1
    39    37    45    1
    40    37    32    1
    41    40    35    1
    42    40    34    1
    43    40    47    1
    44    41    30    1
    45    41    31    1
    46    42    38    1
    47    43    44    1
    48    43    39    1
    49    45    13    1
    50    45    41    1
    51    46    36    2
    52    47    42    1
