@<TRIPOS>MOLECULE
outputs/IAG933/test6/raw/output_9723_IAG933_linker_design_.xyz
 46 50 0 0 0
SMALL
GASTEIGER

@<TRIPOS>ATOM
      1 C         -24.8550   -1.0120   30.1430 C.3     1  UNL1        0.0565
      2 C         -24.9730   -2.5050   29.7880 C.2     1  UNL1       -0.0195
      3 C         -23.9060   -3.1730   29.1460 C.2     1  UNL1       -0.0042
      4 C         -23.9890   -4.5490   28.8530 C.2     1  UNL1       -0.0003
      5 C         -25.1370   -5.2800   29.2050 C.2     1  UNL1       -0.0000
      6 C         -26.2320   -4.6110   29.7840 C.2     1  UNL1       -0.0003
      7 C         -26.1550   -3.2320   30.0650 C.2     1  UNL1       -0.0042
      8 C         -25.3870   -0.6790   31.5710 C.3     1  UNL1        0.0784
      9 C         -25.1890    0.7730   32.0280 C.3     1  UNL1        0.0192
     10 C         -25.3360    0.6840   33.5440 C.3     1  UNL1        0.0202
     11 C         -24.8290   -0.7150   33.9050 C.3     1  UNL1        0.0887
     12 N         -24.7580   -1.4810   32.6460 N.3     1  UNL1       -0.2191
     13 C         -25.6880    1.6140   26.4610 C.2     1  UNL1        0.0351
     14 C         -26.2500    2.9200   26.3950 C.2     1  UNL1        0.0742
     15 C         -25.6420    4.0930   27.1230 C.2     1  UNL1        0.2662
     16 N         -25.6140    5.2520   26.4490 N.am    1  UNL1       -0.1997
     17 C         -25.0260    6.4790   26.9630 C.3     1  UNL1        0.1388
     18 O         -25.1430    3.9660   28.2430 O.2     1  UNL1       -0.2683
     19 C         -27.4380    3.0910   25.6450 C.2     1  UNL1        0.1065
     20 N         -28.0750    2.0890   25.0030 N.2     1  UNL1       -0.2081
     21 C         -27.5430    0.8490   25.0790 C.2     1  UNL1        0.2530
     22 O         -28.1930   -0.2080   24.4770 O.2     1  UNL1       -0.4558
     23 C         -29.4600    0.0050   23.8660 C.3     1  UNL1        0.2426
     24 C         -30.0650   -1.3770   23.5730 C.3     1  UNL1        0.2292
     25 O         -30.7290   -1.8780   24.7210 O.3     1  UNL1       -0.2162
     26 C         -26.3540    0.5760   25.7770 C.2     1  UNL1        0.1907
     27 F         -25.8600   -0.6810   25.7950 F       1  UNL1       -0.1995
     28 C         -27.6723    1.9676   29.7152 C.3     1  UNL1        0.0001
     29 C         -28.2854    0.5267   29.8219 C.3     1  UNL1        0.0017
     30 C         -22.9560    0.9231   28.6038 C.2     1  UNL1        0.2599
     31 O         -30.6563   -0.4178   28.1010 O.co2   1  UNL1       -0.2457
     32 CL        -22.6938    1.9598   24.8959 Cl      1  UNL1       -0.1094
     33 C         -31.0713    0.7400   27.8989 C.2     1  UNL1        0.3649
     34 C         -29.4994    0.6966   30.7194 C.3     1  UNL1        0.0006
     35 O         -31.6040    1.1857   26.9278 O.co2   1  UNL1       -0.2457
     36 N         -24.2620    0.8141   28.3048 N.am    1  UNL1       -0.2750
     37 C         -25.3797   -0.1397   28.8673 C.3     1  UNL1        0.0810
     38 C         -22.2061    1.4250   27.4572 C.3     1  UNL1        0.2532
     39 C         -27.1779   -0.3788   28.9804 C.3     1  UNL1        0.0202
     40 C         -28.8943    2.9464   29.9374 C.3     1  UNL1        0.0006
     41 F         -20.8722    1.6327   27.3800 F       1  UNL1       -0.2260
     42 O         -22.4022    0.6642   29.6685 O.2     1  UNL1       -0.2719
     43 C         -30.8552    1.8512   29.0451 C.3     1  UNL1        0.1140
     44 C         -24.4112    1.4791   27.0932 C.3     1  UNL1        0.1185
     45 C         -23.1118    1.7449   26.4909 C.3     1  UNL1        0.1437
     46 C         -29.9146    2.1546   30.2428 C.3     1  UNL1        0.0113
@<TRIPOS>BOND
     1     1    37    1
     2     2     7    1
     3     2     1    1
     4     3     2    2
     5     4     3    1
     6     4     5    2
     7     5     6    1
     8     6     7    2
     9     8     1    1
    10     8     9    1
    11     8    12    1
    12     9    10    1
    13    10    11    1
    14    12    11    1
    15    14    13    1
    16    14    15    1
    17    15    18    2
    18    16    17    1
    19    16    15    1
    20    19    14    2
    21    20    21    2
    22    20    19    1
    23    21    26    1
    24    22    21    1
    25    23    22    1
    26    24    23    1
    27    24    25    1
    28    26    27    1
    29    26    13    2
    30    28    29    1
    31    28    40    1
    32    29    39    1
    33    29    34    1
    34    30    42    2
    35    33    31   ar
    36    33    43    1
    37    35    33   ar
    38    36    30   am
    39    36    37    1
    40    37    39    1
    41    38    41    1
    42    38    30    1
    43    40    46    1
    44    44    13    1
    45    44    36    1
    46    45    32    1
    47    45    44    1
    48    45    38    1
    49    46    43    1
    50    46    34    1
