@<TRIPOS>MOLECULE
No_973-gen_results/8p0m/2024-11-27-11-27-31/
 14 15 0 0 0
SMALL
GASTEIGER

@<TRIPOS>ATOM
      1 C         -28.0162   -0.8135   28.8779 C.ar    1  UNL1        0.0031
      2 C         -27.0636   -0.1189   28.6079 C.ar    1  UNL1        0.0002
      3 C         -26.9716    0.7139   27.5060 C.ar    1  UNL1        0.0031
      4 C         -28.1053    0.7744   26.6421 C.ar    1  UNL1        0.0369
      5 C         -29.2008    0.1044   27.0527 C.ar    1  UNL1        0.1387
      6 C         -29.2096   -0.6029   28.1853 C.ar    1  UNL1        0.0369
      7 O         -30.2994    0.2279   26.2571 O.3     1  UNL1       -0.4714
      8 C         -25.7189   -0.2206   29.4011 C.ar    1  UNL1        0.0000
      9 C         -25.3784   -1.0981   29.9807 C.ar    1  UNL1        0.0000
     10 C         -24.1016   -1.2301   30.7406 C.ar    1  UNL1        0.0000
     11 C         -23.2011   -0.1756   30.6493 C.ar    1  UNL1        0.0000
     12 C         -23.5747    0.9399   29.8331 C.ar    1  UNL1        0.0000
     13 C         -24.8492    0.9696   29.1691 C.ar    1  UNL1        0.0000
     14 C         -30.2489   -0.2607   25.0270 C.3     1  UNL1        0.2525
@<TRIPOS>BOND
     1     5     7    1
     2     2     8    1
     3     7    14    1
     4     1     2   ar
     5     2     3   ar
     6     3     4   ar
     7     4     5   ar
     8     5     6   ar
     9     6     1   ar
    10     8     9   ar
    11     9    10   ar
    12    10    11   ar
    13    11    12   ar
    14    12    13   ar
    15    13     8   ar
