@<TRIPOS>MOLECULE
outputs/IAG933/test6/raw/output_9730_IAG933_linker_design_.xyz
 59 65 0 0 0
SMALL
GASTEIGER

@<TRIPOS>ATOM
      1 C         -24.8550   -1.0120   30.1430 C.3     1  UNL1        0.0605
      2 C         -24.9730   -2.5050   29.7880 C.2     1  UNL1       -0.0171
      3 C         -23.9060   -3.1730   29.1460 C.2     1  UNL1       -0.0039
      4 C         -23.9890   -4.5490   28.8530 C.2     1  UNL1       -0.0003
      5 C         -25.1370   -5.2800   29.2050 C.2     1  UNL1       -0.0000
      6 C         -26.2320   -4.6110   29.7840 C.2     1  UNL1       -0.0003
      7 C         -26.1550   -3.2320   30.0650 C.2     1  UNL1       -0.0039
      8 C         -25.3870   -0.6790   31.5710 C.3     1  UNL1        0.0808
      9 C         -25.1890    0.7730   32.0280 C.3     1  UNL1        0.0195
     10 C         -25.3360    0.6840   33.5440 C.3     1  UNL1        0.0203
     11 C         -24.8290   -0.7150   33.9050 C.3     1  UNL1        0.0887
     12 N         -24.7580   -1.4810   32.6460 N.3     1  UNL1       -0.2188
     13 C         -25.6880    1.6140   26.4610 C.2     1  UNL1        0.0241
     14 C         -26.2500    2.9200   26.3950 C.2     1  UNL1        0.0732
     15 C         -25.6420    4.0930   27.1230 C.2     1  UNL1        0.2661
     16 N         -25.6140    5.2520   26.4490 N.am    1  UNL1       -0.1997
     17 C         -25.0260    6.4790   26.9630 C.3     1  UNL1        0.1388
     18 O         -25.1430    3.9660   28.2430 O.2     1  UNL1       -0.2683
     19 C         -27.4380    3.0910   25.6450 C.2     1  UNL1        0.1064
     20 N         -28.0750    2.0890   25.0030 N.2     1  UNL1       -0.2081
     21 C         -27.5430    0.8490   25.0790 C.2     1  UNL1        0.2530
     22 O         -28.1930   -0.2080   24.4770 O.2     1  UNL1       -0.4558
     23 C         -29.4600    0.0050   23.8660 C.3     1  UNL1        0.2426
     24 C         -30.0650   -1.3770   23.5730 C.3     1  UNL1        0.2292
     25 O         -30.7290   -1.8780   24.7210 O.3     1  UNL1       -0.2162
     26 C         -26.3540    0.5760   25.7770 C.2     1  UNL1        0.1897
     27 F         -25.8600   -0.6810   25.7950 F       1  UNL1       -0.1996
     28 C         -30.4141    5.3830   36.9371 C.3     1  UNL1        0.0108
     29 C         -23.7528    6.8098   33.2493 C.3     1  UNL1        0.1422
     30 C         -28.8610    5.1852   32.0574 C.3     1  UNL1        0.0026
     31 C         -23.0384    2.6909   25.4134 C.3     1  UNL1        0.0290
     32 C         -25.0039    1.1492   28.6728 C.2     1  UNL1        0.0171
     33 C         -24.5389    1.5508   27.1430 C.3     1  UNL1        0.0740
     34 C         -27.0078    2.6866   29.8264 C.2     1  UNL1        0.1039
     35 C         -23.1760    1.9174   26.7112 C.2     1  UNL1       -0.0118
     36 C         -27.4280    5.1222   29.3702 C.3     1  UNL1        0.0914
     37 F         -20.9119    1.4421   27.7985 F       1  UNL1       -0.2092
     38 C         -27.7194    5.1425   34.0135 C.3     1  UNL1        0.0492
     39 C         -26.3603    4.7801   34.4002 C.3     1  UNL1        0.0110
     40 C         -29.1053    6.0523   31.0403 C.3     1  UNL1        0.0018
     41 C         -21.9728    1.5244   27.5283 C.2     1  UNL1        0.1147
     42 C         -28.0832    6.3969   29.9818 C.3     1  UNL1        0.0214
     43 N         -27.2107    4.0189   30.4284 N.pl3   1  UNL1       -0.3003
     44 C         -24.6435    5.4996   31.6853 C.3     1  UNL1        0.1422
     45 C         -28.9748    5.0132   36.6958 C.3     1  UNL1        0.0393
     46 S         -28.9517    4.1449   35.0266 S.3     1  UNL1       -0.1427
     47 C         -21.8738    1.0636   28.6648 C.3     1  UNL1        0.0815
     48 C         -22.7004    0.1642   29.3364 C.2     1  UNL1       -0.0226
     49 C         -24.4272    6.2576   34.4495 C.3     1  UNL1        0.0322
     50 C         -26.0453    1.8952   29.3639 C.1     1  UNL1       -0.0894
     51 C         -24.1567    0.0914   29.3931 C.2     1  UNL1       -0.0172
     52 C         -28.1699    6.3037   36.6032 C.3     1  UNL1        0.0100
     53 C         -27.4161    5.2147   32.3289 C.3     1  UNL1        0.0298
     54 C         -28.6080    4.0472   37.8457 C.3     1  UNL1        0.0108
     55 C         -25.9707    6.0379   32.3065 C.3     1  UNL1        0.0321
     56 C         -27.0678    3.9098   31.8673 C.3     1  UNL1        0.0922
     57 C         -25.8549    6.0735   33.8786 C.3     1  UNL1        0.0058
     58 C         -28.3273    7.3118   35.4889 C.3     1  UNL1        0.0009
     59 O         -23.5493    5.7713   32.2674 O.3     1  UNL1       -0.3538
@<TRIPOS>BOND
     1     1    51    1
     2     2     7    1
     3     2     1    1
     4     3     2    2
     5     4     3    1
     6     4     5    2
     7     5     6    1
     8     6     7    2
     9     8     1    1
    10     8     9    1
    11     8    12    1
    12     9    10    1
    13    10    11    1
    14    12    11    1
    15    14    13    1
    16    14    15    1
    17    15    18    2
    18    16    17    1
    19    16    15    1
    20    19    14    2
    21    20    21    2
    22    20    19    1
    23    21    26    1
    24    22    21    1
    25    23    22    1
    26    24    23    1
    27    24    25    1
    28    26    27    1
    29    26    13    2
    30    29    49    1
    31    30    53    1
    32    31    35    1
    33    32    50    2
    34    32    51    1
    35    33    13    1
    36    33    32    1
    37    34    43    1
    38    35    33    1
    39    35    41    2
    40    36    42    1
    41    36    43    1
    42    38    39    1
    43    38    46    1
    44    40    30    1
    45    41    37    1
    46    41    47    1
    47    42    40    1
    48    43    56    1
    49    44    59    1
    50    45    28    1
    51    45    54    1
    52    46    45    1
    53    47    48    1
    54    48    51    2
    55    50    34    2
    56    52    45    1
    57    53    56    1
    58    53    38    1
    59    55    44    1
    60    55    53    1
    61    55    57    1
    62    57    39    1
    63    57    49    1
    64    58    52    1
    65    59    29    1
