@<TRIPOS>MOLECULE
outputs/IAG933/test6/raw/output_9740_IAG933_linker_design_.xyz
 42 46 0 0 0
SMALL
GASTEIGER

@<TRIPOS>ATOM
      1 C         -24.8550   -1.0120   30.1430 C.3     1  UNL1        0.0514
      2 C         -24.9730   -2.5050   29.7880 C.2     1  UNL1       -0.0202
      3 C         -23.9060   -3.1730   29.1460 C.2     1  UNL1       -0.0042
      4 C         -23.9890   -4.5490   28.8530 C.2     1  UNL1       -0.0003
      5 C         -25.1370   -5.2800   29.2050 C.2     1  UNL1       -0.0000
      6 C         -26.2320   -4.6110   29.7840 C.2     1  UNL1       -0.0003
      7 C         -26.1550   -3.2320   30.0650 C.2     1  UNL1       -0.0042
      8 C         -25.3870   -0.6790   31.5710 C.3     1  UNL1        0.0777
      9 C         -25.1890    0.7730   32.0280 C.3     1  UNL1        0.0192
     10 C         -25.3360    0.6840   33.5440 C.3     1  UNL1        0.0202
     11 C         -24.8290   -0.7150   33.9050 C.3     1  UNL1        0.0887
     12 N         -24.7580   -1.4810   32.6460 N.3     1  UNL1       -0.2191
     13 C         -25.6880    1.6140   26.4610 C.3     1  UNL1        0.0929
     14 C         -26.2500    2.9200   26.3950 C.2     1  UNL1        0.0589
     15 C         -25.6420    4.0930   27.1230 C.2     1  UNL1        0.2628
     16 N         -25.6140    5.2520   26.4490 N.am    1  UNL1       -0.2000
     17 C         -25.0260    6.4790   26.9630 C.3     1  UNL1        0.1388
     18 O         -25.1430    3.9660   28.2430 O.2     1  UNL1       -0.2686
     19 C         -27.4380    3.0910   25.6450 C.2     1  UNL1        0.1025
     20 N         -28.0750    2.0890   25.0030 N.2     1  UNL1       -0.2118
     21 C         -27.5430    0.8490   25.0790 C.2     1  UNL1        0.2344
     22 O         -28.1930   -0.2080   24.4770 O.2     1  UNL1       -0.4585
     23 C         -29.4600    0.0050   23.8660 C.3     1  UNL1        0.2423
     24 C         -30.0650   -1.3770   23.5730 C.3     1  UNL1        0.2292
     25 O         -30.7290   -1.8780   24.7210 O.3     1  UNL1       -0.2162
     26 C         -26.3540    0.5760   25.7770 C.3     1  UNL1        0.2440
     27 F         -25.8600   -0.6810   25.7950 F       1  UNL1       -0.2265
     28 C         -27.3171    2.7088   31.5408 C.3     1  UNL1        0.1605
     29 C         -23.6381    1.4116   27.9529 C.2     1  UNL1        0.0445
     30 C         -22.2581    1.3181   28.1026 C.2     1  UNL1        0.0077
     31 C         -24.2118    1.5748   26.6968 C.2     1  UNL1       -0.0075
     32 C         -21.4020    1.6195   27.0370 C.2     1  UNL1        0.0005
     33 C         -23.3432    1.7699   25.6241 C.2     1  UNL1       -0.0033
     34 O         -28.0865    3.6597   30.8769 O.3     1  UNL1       -0.3522
     35 N         -25.9323    2.0120   29.8962 N.3     1  UNL1       -0.1504
     36 C         -25.8050    4.3641   31.0129 C.3     1  UNL1        0.0531
     37 S         -24.5215    1.4145   29.3627 S.3     1  UNL1        0.0111
     38 C         -27.2402    4.8121   31.0116 C.3     1  UNL1        0.1438
     39 C         -25.1137   -0.2461   28.9250 C.3     1  UNL1        0.0932
     40 C         -21.9874    1.8964   25.8204 C.2     1  UNL1       -0.0003
     41 O         -23.4662    2.0692   30.4042 O.3     1  UNL1       -0.1515
     42 C         -25.9224    2.8348   31.1048 C.3     1  UNL1        0.1178
@<TRIPOS>BOND
     1     1    39    1
     2     2     7    1
     3     2     1    1
     4     3     2    2
     5     4     3    1
     6     4     5    2
     7     5     6    1
     8     6     7    2
     9     8     1    1
    10     8     9    1
    11     8    12    1
    12     9    10    1
    13    10    11    1
    14    12    11    1
    15    13    31    1
    16    14    13    1
    17    14    15    1
    18    15    18    2
    19    16    17    1
    20    16    15    1
    21    19    14    2
    22    20    21    2
    23    20    19    1
    24    21    26    1
    25    22    21    1
    26    23    22    1
    27    24    23    1
    28    24    25    1
    29    26    27    1
    30    26    13    1
    31    29    30    1
    32    29    37    1
    33    31    29    2
    34    32    30    2
    35    33    40    2
    36    33    31    1
    37    34    38    1
    38    34    28    1
    39    36    42    1
    40    37    35    1
    41    37    41    1
    42    38    36    1
    43    39    37    1
    44    40    32    1
    45    42    35    1
    46    42    28    1
