@<TRIPOS>MOLECULE
outputs/IAG933/test6/raw/output_9741_IAG933_linker_design_.xyz
 45 49 0 0 0
SMALL
GASTEIGER

@<TRIPOS>ATOM
      1 C         -24.8550   -1.0120   30.1430 C.3     1  UNL1        0.0751
      2 C         -24.9730   -2.5050   29.7880 C.2     1  UNL1       -0.0158
      3 C         -23.9060   -3.1730   29.1460 C.2     1  UNL1       -0.0039
      4 C         -23.9890   -4.5490   28.8530 C.2     1  UNL1       -0.0003
      5 C         -25.1370   -5.2800   29.2050 C.2     1  UNL1       -0.0000
      6 C         -26.2320   -4.6110   29.7840 C.2     1  UNL1       -0.0003
      7 C         -26.1550   -3.2320   30.0650 C.2     1  UNL1       -0.0039
      8 C         -25.3870   -0.6790   31.5710 C.3     1  UNL1        0.0821
      9 C         -25.1890    0.7730   32.0280 C.3     1  UNL1        0.0196
     10 C         -25.3360    0.6840   33.5440 C.3     1  UNL1        0.0203
     11 C         -24.8290   -0.7150   33.9050 C.3     1  UNL1        0.0887
     12 N         -24.7580   -1.4810   32.6460 N.3     1  UNL1       -0.2188
     13 C         -25.6880    1.6140   26.4610 C.2     1  UNL1        0.0203
     14 C         -26.2500    2.9200   26.3950 C.2     1  UNL1        0.0729
     15 C         -25.6420    4.0930   27.1230 C.2     1  UNL1        0.2661
     16 N         -25.6140    5.2520   26.4490 N.am    1  UNL1       -0.1997
     17 C         -25.0260    6.4790   26.9630 C.3     1  UNL1        0.1388
     18 O         -25.1430    3.9660   28.2430 O.2     1  UNL1       -0.2683
     19 C         -27.4380    3.0910   25.6450 C.2     1  UNL1        0.1064
     20 N         -28.0750    2.0890   25.0030 N.2     1  UNL1       -0.2081
     21 C         -27.5430    0.8490   25.0790 C.2     1  UNL1        0.2530
     22 O         -28.1930   -0.2080   24.4770 O.2     1  UNL1       -0.4558
     23 C         -29.4600    0.0050   23.8660 C.3     1  UNL1        0.2426
     24 C         -30.0650   -1.3770   23.5730 C.3     1  UNL1        0.2292
     25 O         -30.7290   -1.8780   24.7210 O.3     1  UNL1       -0.2162
     26 C         -26.3540    0.5760   25.7770 C.2     1  UNL1        0.1894
     27 F         -25.8600   -0.6810   25.7950 F       1  UNL1       -0.1996
     28 N         -26.4785   -0.2634   28.4929 N.pl3   1  UNL1       -0.2139
     29 C         -23.1823    2.1522   26.5833 C.3     1  UNL1        0.0688
     30 O         -30.5383    3.0963   28.0303 O.3     1  UNL1       -0.1568
     31 C         -30.7597   -0.2944   29.8365 C.3     1  UNL1        0.1162
     32 C         -30.5550    0.7937   26.7350 C.3     1  UNL1        0.0957
     33 C         -32.6528    1.8332   27.8877 C.3     1  UNL1        0.0957
     34 C         -25.1656   -0.1496   29.0044 C.2     1  UNL1        0.0462
     35 C         -24.3710    1.4196   27.1051 C.3     1  UNL1        0.0582
     36 S         -30.9908    1.7685   28.1213 S.3     1  UNL1       -0.0200
     37 C         -28.5521    0.9465   29.6204 C.3     1  UNL1        0.1363
     38 O         -28.3594   -1.3034   29.6291 O.3     1  UNL1       -0.3338
     39 O         -22.0558   -0.1787   29.1514 O.3     1  UNL1       -0.2064
     40 C         -24.2291    0.7508   28.3395 C.2     1  UNL1        0.0118
     41 C         -22.7951    0.9903   28.7918 C.3     1  UNL1        0.2193
     42 C         -29.8480   -1.4373   29.2981 C.3     1  UNL1        0.1624
     43 C         -27.8034   -0.1969   29.1362 C.3     1  UNL1        0.2254
     44 S         -21.9004    1.5886   27.3948 S.3     1  UNL1       -0.1040
     45 N         -30.0319    0.7838   29.0805 N.3     1  UNL1       -0.2150
@<TRIPOS>BOND
     1     1    34    1
     2     2     7    1
     3     2     1    1
     4     3     2    2
     5     4     3    1
     6     4     5    2
     7     5     6    1
     8     6     7    2
     9     8     1    1
    10     8     9    1
    11     8    12    1
    12     9    10    1
    13    10    11    1
    14    12    11    1
    15    14    13    1
    16    14    15    1
    17    15    18    2
    18    16    17    1
    19    16    15    1
    20    19    14    2
    21    20    21    2
    22    20    19    1
    23    21    26    1
    24    22    21    1
    25    23    22    1
    26    24    23    1
    27    24    25    1
    28    26    27    1
    29    26    13    2
    30    28    34    1
    31    29    35    1
    32    29    44    1
    33    30    36    1
    34    32    36    1
    35    33    36    1
    36    35    13    1
    37    35    40    1
    38    36    45    1
    39    40    41    1
    40    40    34    2
    41    41    39    1
    42    42    38    1
    43    42    31    1
    44    43    28    1
    45    43    37    1
    46    43    38    1
    47    44    41    1
    48    45    37    1
    49    45    31    1
