@<TRIPOS>MOLECULE
outputs/IAG933/test6/raw/output_9743_IAG933_linker_design_.xyz
 45 48 0 0 0
SMALL
GASTEIGER

@<TRIPOS>ATOM
      1 C         -24.8550   -1.0120   30.1430 C.3     1  UNL1        0.1136
      2 C         -24.9730   -2.5050   29.7880 C.2     1  UNL1       -0.0050
      3 C         -23.9060   -3.1730   29.1460 C.2     1  UNL1       -0.0029
      4 C         -23.9890   -4.5490   28.8530 C.2     1  UNL1       -0.0003
      5 C         -25.1370   -5.2800   29.2050 C.2     1  UNL1       -0.0000
      6 C         -26.2320   -4.6110   29.7840 C.2     1  UNL1       -0.0003
      7 C         -26.1550   -3.2320   30.0650 C.2     1  UNL1       -0.0029
      8 C         -25.3870   -0.6790   31.5710 C.3     1  UNL1        0.0930
      9 C         -25.1890    0.7730   32.0280 C.3     1  UNL1        0.0206
     10 C         -25.3360    0.6840   33.5440 C.3     1  UNL1        0.0203
     11 C         -24.8290   -0.7150   33.9050 C.3     1  UNL1        0.0888
     12 N         -24.7580   -1.4810   32.6460 N.3     1  UNL1       -0.2177
     13 C         -25.6880    1.6140   26.4610 C.3     1  UNL1        0.1303
     14 C         -26.2500    2.9200   26.3950 C.2     1  UNL1        0.0697
     15 C         -25.6420    4.0930   27.1230 C.2     1  UNL1        0.2637
     16 N         -25.6140    5.2520   26.4490 N.am    1  UNL1       -0.2000
     17 C         -25.0260    6.4790   26.9630 C.3     1  UNL1        0.1388
     18 O         -25.1430    3.9660   28.2430 O.2     1  UNL1       -0.2686
     19 C         -27.4380    3.0910   25.6450 C.2     1  UNL1        0.1035
     20 N         -28.0750    2.0890   25.0030 N.2     1  UNL1       -0.2118
     21 C         -27.5430    0.8490   25.0790 C.2     1  UNL1        0.2355
     22 O         -28.1930   -0.2080   24.4770 O.2     1  UNL1       -0.4585
     23 C         -29.4600    0.0050   23.8660 C.3     1  UNL1        0.2423
     24 C         -30.0650   -1.3770   23.5730 C.3     1  UNL1        0.2292
     25 O         -30.7290   -1.8780   24.7210 O.3     1  UNL1       -0.2162
     26 C         -26.3540    0.5760   25.7770 C.3     1  UNL1        0.2547
     27 F         -25.8600   -0.6810   25.7950 F       1  UNL1       -0.2254
     28 N         -24.6931    0.0344   29.2870 N.3     1  UNL1       -0.1844
     29 C         -27.6791   -0.6536   28.9386 C.3     1  UNL1        0.0863
     30 C         -21.0443    1.2787   27.7958 C.3     1  UNL1        0.0014
     31 C         -31.3512   -0.0672   26.9759 C.3     1  UNL1        0.0809
     32 C         -22.0426   -0.6473   29.4445 C.3     1  UNL1        0.0000
     33 C         -28.2416   -0.7221   30.3569 C.3     1  UNL1        0.0758
     34 N         -24.8335    1.5104   27.6069 N.3     1  UNL1       -0.2416
     35 N         -27.4664    0.8036   28.9136 N.3     1  UNL1       -0.2445
     36 S         -31.0440   -0.2100   28.6010 S.3     1  UNL1       -0.0603
     37 C         -25.8892    1.1180   28.8089 C.3     1  UNL1        0.1980
     38 O         -30.5214   -1.5558   28.7684 O.3     1  UNL1       -0.1701
     39 C         -23.3973    1.0712   27.0253 C.3     1  UNL1        0.0749
     40 C         -22.8669    0.5966   29.5701 C.3     1  UNL1        0.0014
     41 C         -22.5089    1.5102   28.2950 C.3     1  UNL1        0.0161
     42 C         -28.5911    1.5487   28.5556 C.3     1  UNL1        0.0969
     43 C         -32.3890    0.0338   29.4674 C.3     1  UNL1        0.0809
     44 C         -29.7853    0.8126   29.2105 C.3     1  UNL1        0.1202
     45 S         -29.4295    0.5439   30.9231 S.3     1  UNL1       -0.1265
@<TRIPOS>BOND
     1     1    28    1
     2     2     7    1
     3     2     1    1
     4     3     2    2
     5     4     3    1
     6     4     5    2
     7     5     6    1
     8     6     7    2
     9     8     1    1
    10     8     9    1
    11     8    12    1
    12     9    10    1
    13    10    11    1
    14    12    11    1
    15    13    34    1
    16    14    13    1
    17    14    15    1
    18    15    18    2
    19    16    17    1
    20    16    15    1
    21    19    14    2
    22    20    21    2
    23    20    19    1
    24    21    26    1
    25    22    21    1
    26    23    22    1
    27    24    23    1
    28    24    25    1
    29    26    27    1
    30    26    13    1
    31    29    33    1
    32    31    36    1
    33    32    40    1
    34    33    45    1
    35    34    37    1
    36    35    29    1
    37    36    38    1
    38    36    43    1
    39    37    35    1
    40    37    28    1
    41    39    34    1
    42    39    41    1
    43    41    30    1
    44    41    40    1
    45    42    35    1
    46    42    44    1
    47    44    36    1
    48    44    45    1
