@<TRIPOS>MOLECULE
outputs/IAG933/test6/raw/output_9747_IAG933_linker_design_.xyz
 43 47 0 0 0
SMALL
GASTEIGER

@<TRIPOS>ATOM
      1 C         -24.8550   -1.0120   30.1430 C.3     1  UNL1        0.0725
      2 C         -24.9730   -2.5050   29.7880 C.2     1  UNL1       -0.0181
      3 C         -23.9060   -3.1730   29.1460 C.2     1  UNL1       -0.0041
      4 C         -23.9890   -4.5490   28.8530 C.2     1  UNL1       -0.0003
      5 C         -25.1370   -5.2800   29.2050 C.2     1  UNL1       -0.0000
      6 C         -26.2320   -4.6110   29.7840 C.2     1  UNL1       -0.0003
      7 C         -26.1550   -3.2320   30.0650 C.2     1  UNL1       -0.0041
      8 C         -25.3870   -0.6790   31.5710 C.3     1  UNL1        0.0798
      9 C         -25.1890    0.7730   32.0280 C.3     1  UNL1        0.0193
     10 C         -25.3360    0.6840   33.5440 C.3     1  UNL1        0.0202
     11 C         -24.8290   -0.7150   33.9050 C.3     1  UNL1        0.0887
     12 N         -24.7580   -1.4810   32.6460 N.3     1  UNL1       -0.2190
     13 C         -25.6880    1.6140   26.4610 C.2     1  UNL1        0.0524
     14 C         -26.2500    2.9200   26.3950 C.2     1  UNL1        0.0778
     15 C         -25.6420    4.0930   27.1230 C.2     1  UNL1        0.2665
     16 N         -25.6140    5.2520   26.4490 N.am    1  UNL1       -0.1997
     17 C         -25.0260    6.4790   26.9630 C.3     1  UNL1        0.1388
     18 O         -25.1430    3.9660   28.2430 O.2     1  UNL1       -0.2683
     19 C         -27.4380    3.0910   25.6450 C.2     1  UNL1        0.1068
     20 N         -28.0750    2.0890   25.0030 N.2     1  UNL1       -0.2081
     21 C         -27.5430    0.8490   25.0790 C.2     1  UNL1        0.2533
     22 O         -28.1930   -0.2080   24.4770 O.2     1  UNL1       -0.4558
     23 C         -29.4600    0.0050   23.8660 C.3     1  UNL1        0.2426
     24 C         -30.0650   -1.3770   23.5730 C.3     1  UNL1        0.2292
     25 O         -30.7290   -1.8780   24.7210 O.3     1  UNL1       -0.2162
     26 C         -26.3540    0.5760   25.7770 C.2     1  UNL1        0.1943
     27 F         -25.8600   -0.6810   25.7950 F       1  UNL1       -0.1992
     28 N         -26.7121    0.7467   29.7885 N.3     1  UNL1       -0.2322
     29 C         -23.3945    1.6503   26.7030 C.2     1  UNL1        0.0903
     30 C         -29.1363    2.0318   31.6743 C.3     1  UNL1        0.1439
     31 C         -22.4467    1.2901   27.6612 C.3     1  UNL1        0.2706
     32 C         -28.7736    3.3996   31.0312 C.3     1  UNL1        0.0336
     33 O         -29.0804    0.7878   30.8287 O.3     1  UNL1       -0.3373
     34 C         -25.6605   -0.1199   29.1160 C.3     1  UNL1        0.1476
     35 C         -26.7304    2.2148   30.1415 C.3     1  UNL1        0.0759
     36 N         -24.5982    0.5985   28.3700 N.am    1  UNL1       -0.2429
     37 C         -28.0669    0.1338   29.9452 C.3     1  UNL1        0.2211
     38 C         -27.9544    3.0624   29.7706 C.3     1  UNL1        0.0200
     39 CL        -23.0020    2.6411   25.2882 Cl      1  UNL1       -0.0823
     40 F         -21.1336    1.6037   27.6984 F       1  UNL1       -0.2215
     41 O         -22.5829   -0.0065   29.5730 O.2     1  UNL1       -0.2711
     42 C         -23.0767    0.5682   28.6586 C.2     1  UNL1        0.2683
     43 C         -24.5845    1.2815   27.1367 C.2     1  UNL1        0.0672
@<TRIPOS>BOND
     1     1    34    1
     2     2     7    1
     3     2     1    1
     4     3     2    2
     5     4     3    1
     6     4     5    2
     7     5     6    1
     8     6     7    2
     9     8     1    1
    10     8     9    1
    11     8    12    1
    12     9    10    1
    13    10    11    1
    14    12    11    1
    15    13    43    1
    16    14    13    1
    17    14    15    1
    18    15    18    2
    19    16    17    1
    20    16    15    1
    21    19    14    2
    22    20    21    2
    23    20    19    1
    24    21    26    1
    25    22    21    1
    26    23    22    1
    27    24    23    1
    28    24    25    1
    29    26    27    1
    30    26    13    2
    31    28    37    1
    32    28    35    1
    33    29    43    2
    34    29    31    1
    35    31    40    1
    36    31    42    1
    37    32    30    1
    38    33    30    1
    39    34    36    1
    40    34    28    1
    41    36    42   am
    42    37    33    1
    43    38    35    1
    44    38    32    1
    45    39    29    1
    46    42    41    2
    47    43    36    1
