@<TRIPOS>MOLECULE
outputs/IAG933/test6/raw/output_9749_IAG933_linker_design_.xyz
 48 51 0 0 0
SMALL
GASTEIGER

@<TRIPOS>ATOM
      1 C         -24.8550   -1.0120   30.1430 C.3     1  UNL1        0.1549
      2 C         -24.9730   -2.5050   29.7880 C.2     1  UNL1        0.0060
      3 C         -23.9060   -3.1730   29.1460 C.2     1  UNL1       -0.0019
      4 C         -23.9890   -4.5490   28.8530 C.2     1  UNL1       -0.0002
      5 C         -25.1370   -5.2800   29.2050 C.2     1  UNL1       -0.0000
      6 C         -26.2320   -4.6110   29.7840 C.2     1  UNL1       -0.0002
      7 C         -26.1550   -3.2320   30.0650 C.2     1  UNL1       -0.0019
      8 C         -25.3870   -0.6790   31.5710 C.3     1  UNL1        0.1042
      9 C         -25.1890    0.7730   32.0280 C.3     1  UNL1        0.0217
     10 C         -25.3360    0.6840   33.5440 C.3     1  UNL1        0.0203
     11 C         -24.8290   -0.7150   33.9050 C.3     1  UNL1        0.0888
     12 N         -24.7580   -1.4810   32.6460 N.3     1  UNL1       -0.2166
     13 C         -25.6880    1.6140   26.4610 C.2     1  UNL1        0.0407
     14 C         -26.2500    2.9200   26.3950 C.2     1  UNL1        0.0744
     15 C         -25.6420    4.0930   27.1230 C.2     1  UNL1        0.2218
     16 N         -25.6140    5.2520   26.4490 N.2     1  UNL1       -0.2357
     17 C         -25.0260    6.4790   26.9630 C.3     1  UNL1        0.1550
     18 O         -25.1430    3.9660   28.2430 O.2     1  UNL1       -0.4640
     19 C         -27.4380    3.0910   25.6450 C.2     1  UNL1        0.1068
     20 N         -28.0750    2.0890   25.0030 N.2     1  UNL1       -0.2081
     21 C         -27.5430    0.8490   25.0790 C.2     1  UNL1        0.2533
     22 O         -28.1930   -0.2080   24.4770 O.2     1  UNL1       -0.4558
     23 C         -29.4600    0.0050   23.8660 C.3     1  UNL1        0.2426
     24 C         -30.0650   -1.3770   23.5730 C.3     1  UNL1        0.2292
     25 O         -30.7290   -1.8780   24.7210 O.3     1  UNL1       -0.2162
     26 C         -26.3540    0.5760   25.7770 C.2     1  UNL1        0.1931
     27 F         -25.8600   -0.6810   25.7950 F       1  UNL1       -0.1992
     28 C         -28.6234    3.0996   30.8363 C.3     1  UNL1        0.0984
     29 C         -27.8475    3.0342   29.4996 C.3     1  UNL1        0.0260
     30 C         -27.5664    9.1303   34.2286 C.3     1  UNL1        0.2053
     31 C         -21.4259    0.7163   28.4345 C.3     1  UNL1        0.1959
     32 C         -28.4600    4.3719   32.9853 C.2     1  UNL1        0.0851
     33 C         -26.9448    5.0139   31.4548 C.2     1  UNL1        0.2295
     34 C         -23.6623    0.7301   29.2804 C.3     1  UNL1        0.1942
     35 C         -28.3747    7.7402   34.5155 C.3     1  UNL1        0.1477
     36 C         -25.3814    2.8870   29.0912 C.3     1  UNL1        0.1719
     37 N         -28.3703    7.1425   33.4239 N.pl3   1  UNL1       -0.2322
     38 N         -28.0277    4.1828   31.6694 N.am    1  UNL1       -0.2563
     39 O         -28.2167   10.2321   33.8603 O.3     1  UNL1       -0.2184
     40 N         -21.8642    2.1655   26.5723 N.1     1  UNL1       -0.1944
     41 C         -24.0612    2.2182   29.6483 C.3     1  UNL1        0.0916
     42 O         -24.7381   -0.1355   29.2552 O.3     1  UNL1       -0.3361
     43 C         -26.3959    3.4457   29.8857 C.3     1  UNL1        0.0510
     44 C         -21.6506    1.5825   27.4864 C.1     1  UNL1        0.0926
     45 C         -28.6277    5.6583   33.5784 C.2     1  UNL1        0.0963
     46 N         -22.5321    0.1798   29.1405 N.3     1  UNL1       -0.1753
     47 C         -26.4045    4.9250   30.0638 C.3     1  UNL1        0.0892
     48 O         -26.3712    5.5922   32.3770 O.2     1  UNL1       -0.2745
@<TRIPOS>BOND
     1     1    42    1
     2     2     7    1
     3     2     1    1
     4     3     2    2
     5     4     3    1
     6     4     5    2
     7     5     6    1
     8     6     7    2
     9     8     1    1
    10     8     9    1
    11     8    12    1
    12     9    10    1
    13    10    11    1
    14    12    11    1
    15    14    13    1
    16    14    15    1
    17    15    18    1
    18    16    17    1
    19    16    15    2
    20    18    36    1
    21    19    14    2
    22    20    21    2
    23    20    19    1
    24    21    26    1
    25    22    21    1
    26    23    22    1
    27    24    23    1
    28    24    25    1
    29    26    27    1
    30    26    13    2
    31    28    38    1
    32    29    43    1
    33    29    28    1
    34    30    35    1
    35    31    46    1
    36    32    45    2
    37    33    38   am
    38    33    48    2
    39    34    41    1
    40    36    41    1
    41    37    45    1
    42    37    35    1
    43    38    32    1
    44    39    30    1
    45    40    44    3
    46    42    34    1
    47    43    36    1
    48    43    47    1
    49    44    31    1
    50    46    34    1
    51    47    33    1
