@<TRIPOS>MOLECULE
No_975-gen_results/8p0m/2024-11-27-11-27-31/
 23 23 0 0 0
SMALL
GASTEIGER

@<TRIPOS>ATOM
      1 CL        -28.1493   -0.8198   28.9079 Cl      1  UNL1       -0.0791
      2 C         -26.9116   -0.0797   28.9452 C.ar    1  UNL1        0.0922
      3 C         -26.7384    1.0439   29.2534 C.ar    1  UNL1        0.1578
      4 C         -25.4244    1.5757   29.4244 C.ar    1  UNL1        0.0450
      5 C         -24.2627    0.8479   29.0317 C.ar    1  UNL1        0.0829
      6 C         -24.4866   -0.4397   28.6728 C.ar    1  UNL1        0.0076
      7 C         -25.7216   -0.9285   28.6162 C.ar    1  UNL1        0.0147
      8 C         -22.9146    1.4290   29.0743 C.2     1  UNL1        0.3879
      9 O         -21.8989    0.7266   29.0126 O.co2   1  UNL1       -0.2406
     10 O         -22.7274    2.6896   28.7958 O.co2   1  UNL1       -0.2406
     11 O         -27.7151    1.8728   29.6910 O.3     1  UNL1       -0.4324
     12 C         -27.6101    3.1338   29.6045 C.2     1  UNL1        0.3031
     13 C         -27.5241    3.9831   30.6135 C.3     1  UNL1        0.4696
     14 F         -28.1114    3.5741   31.6879 F       1  UNL1       -0.1619
     15 F         -27.9127    5.2935   30.3828 F       1  UNL1       -0.1619
     16 F         -26.1805    4.1536   31.0201 F       1  UNL1       -0.1619
     17 N         -27.7340    3.6293   28.3090 N.2     1  UNL1       -0.2066
     18 C         -27.6498    2.8084   27.1560 C.2     1  UNL1        0.1020
     19 C         -28.4724    3.1601   26.3032 C.2     1  UNL1        0.0207
     20 C         -28.4810    2.4210   25.1350 C.2     1  UNL1        0.0016
     21 C         -29.5162    2.5053   24.1671 C.2     1  UNL1        0.0000
     22 C         -30.5339    3.5038   24.2846 C.2     1  UNL1        0.0000
     23 C         -30.4767    4.3166   25.4461 C.2     1  UNL1        0.0000
@<TRIPOS>BOND
     1     1     2    1
     2     5     8    1
     3     8     9   ar
     4     8    10   ar
     5     3    11    1
     6    11    12    1
     7    12    13    1
     8    13    14    1
     9    13    15    1
    10    13    16    1
    11    12    17    2
    12    17    18    1
    13    18    19    2
    14    19    20    1
    15    20    21    2
    16    21    22    1
    17    22    23    2
    18     2     3   ar
    19     3     4   ar
    20     4     5   ar
    21     5     6   ar
    22     6     7   ar
    23     7     2   ar
