@<TRIPOS>MOLECULE
outputs/IAG933/test6/raw/output_9750_IAG933_linker_design_.xyz
 41 45 0 0 0
SMALL
GASTEIGER

@<TRIPOS>ATOM
      1 C         -24.8550   -1.0120   30.1430 C.3     1  UNL1        0.0998
      2 C         -24.9730   -2.5050   29.7880 C.2     1  UNL1       -0.0063
      3 C         -23.9060   -3.1730   29.1460 C.2     1  UNL1       -0.0029
      4 C         -23.9890   -4.5490   28.8530 C.2     1  UNL1       -0.0003
      5 C         -25.1370   -5.2800   29.2050 C.2     1  UNL1       -0.0000
      6 C         -26.2320   -4.6110   29.7840 C.2     1  UNL1       -0.0003
      7 C         -26.1550   -3.2320   30.0650 C.2     1  UNL1       -0.0029
      8 C         -25.3870   -0.6790   31.5710 C.3     1  UNL1        0.0917
      9 C         -25.1890    0.7730   32.0280 C.3     1  UNL1        0.0206
     10 C         -25.3360    0.6840   33.5440 C.3     1  UNL1        0.0203
     11 C         -24.8290   -0.7150   33.9050 C.3     1  UNL1        0.0888
     12 N         -24.7580   -1.4810   32.6460 N.3     1  UNL1       -0.2178
     13 C         -25.6880    1.6140   26.4610 C.2     1  UNL1        0.0912
     14 C         -26.2500    2.9200   26.3950 C.2     1  UNL1        0.0902
     15 C         -25.6420    4.0930   27.1230 C.2     1  UNL1        0.2676
     16 N         -25.6140    5.2520   26.4490 N.am    1  UNL1       -0.1997
     17 C         -25.0260    6.4790   26.9630 C.3     1  UNL1        0.1388
     18 O         -25.1430    3.9660   28.2430 O.2     1  UNL1       -0.2683
     19 C         -27.4380    3.0910   25.6450 C.2     1  UNL1        0.1080
     20 N         -28.0750    2.0890   25.0030 N.2     1  UNL1       -0.2080
     21 C         -27.5430    0.8490   25.0790 C.2     1  UNL1        0.2546
     22 O         -28.1930   -0.2080   24.4770 O.2     1  UNL1       -0.4558
     23 C         -29.4600    0.0050   23.8660 C.3     1  UNL1        0.2426
     24 C         -30.0650   -1.3770   23.5730 C.3     1  UNL1        0.2292
     25 O         -30.7290   -1.8780   24.7210 O.3     1  UNL1       -0.2162
     26 C         -26.3540    0.5760   25.7770 C.2     1  UNL1        0.2066
     27 F         -25.8600   -0.6810   25.7950 F       1  UNL1       -0.1979
     28 F         -23.5616    1.9699   24.6408 F       1  UNL1       -0.1614
     29 O         -23.3037    1.7999   30.0192 O.3     1  UNL1       -0.2041
     30 C         -23.1193    0.6918   29.2289 C.3     1  UNL1        0.2010
     31 C         -22.1612   -0.2427   29.7589 C.3     1  UNL1        0.0509
     32 C         -25.2954   -0.1776   28.0716 C.3     1  UNL1        0.1754
     33 N         -24.7671    1.2161   27.2779 N.pl3   1  UNL1       -0.2658
     34 C         -21.1188   -0.5120   28.9119 C.3     1  UNL1        0.0045
     35 N         -24.5579    0.1668   29.3386 N.3     1  UNL1       -0.2263
     36 C         -22.9613    1.8463   25.8263 C.ar    1  UNL1        0.3032
     37 O         -21.6662    2.0926   25.9705 O.2     1  UNL1       -0.4022
     38 C         -23.4431    1.3113   27.0803 C.ar    1  UNL1        0.1221
     39 C         -22.6255    1.2032   27.8847 C.ar    1  UNL1        0.1020
     40 C         -21.4915    1.7005   27.2467 C.ar    1  UNL1        0.2903
     41 F         -20.3029    1.8842   27.7202 F       1  UNL1       -0.1630
@<TRIPOS>BOND
     1     1     2    1
     2     2     7    1
     3     3     2    2
     4     4     3    1
     5     4     5    2
     6     5     6    1
     7     6     7    2
     8     8     1    1
     9     8     9    1
    10     8    12    1
    11     9    10    1
    12    10    11    1
    13    12    11    1
    14    13    33    1
    15    14    13    1
    16    14    15    1
    17    15    18    2
    18    16    17    1
    19    16    15    1
    20    19    14    2
    21    20    21    2
    22    20    19    1
    23    21    26    1
    24    22    21    1
    25    23    22    1
    26    24    23    1
    27    24    25    1
    28    26    27    1
    29    26    13    2
    30    28    36    1
    31    30    35    1
    32    30    31    1
    33    30    29    1
    34    32    35    1
    35    33    32    1
    36    34    31    1
    37    35     1    1
    38    36    37   ar
    39    36    38   ar
    40    37    40   ar
    41    38    33    1
    42    38    39   ar
    43    39    30    1
    44    40    41    1
    45    40    39   ar
