@<TRIPOS>MOLECULE
outputs/IAG933/test6/raw/output_9752_IAG933_linker_design_.xyz
 41 44 0 0 0
SMALL
GASTEIGER

@<TRIPOS>ATOM
      1 C         -24.8550   -1.0120   30.1430 C.3     1  UNL1        0.1109
      2 C         -24.9730   -2.5050   29.7880 C.2     1  UNL1       -0.0051
      3 C         -23.9060   -3.1730   29.1460 C.2     1  UNL1       -0.0029
      4 C         -23.9890   -4.5490   28.8530 C.2     1  UNL1       -0.0003
      5 C         -25.1370   -5.2800   29.2050 C.2     1  UNL1       -0.0000
      6 C         -26.2320   -4.6110   29.7840 C.2     1  UNL1       -0.0003
      7 C         -26.1550   -3.2320   30.0650 C.2     1  UNL1       -0.0029
      8 C         -25.3870   -0.6790   31.5710 C.3     1  UNL1        0.0929
      9 C         -25.1890    0.7730   32.0280 C.3     1  UNL1        0.0206
     10 C         -25.3360    0.6840   33.5440 C.3     1  UNL1        0.0203
     11 C         -24.8290   -0.7150   33.9050 C.3     1  UNL1        0.0888
     12 N         -24.7580   -1.4810   32.6460 N.3     1  UNL1       -0.2177
     13 C         -25.6880    1.6140   26.4610 C.3     1  UNL1        0.1456
     14 C         -26.2500    2.9200   26.3950 C.2     1  UNL1        0.0731
     15 C         -25.6420    4.0930   27.1230 C.2     1  UNL1        0.2640
     16 N         -25.6140    5.2520   26.4490 N.am    1  UNL1       -0.1999
     17 C         -25.0260    6.4790   26.9630 C.3     1  UNL1        0.1388
     18 O         -25.1430    3.9660   28.2430 O.2     1  UNL1       -0.2686
     19 C         -27.4380    3.0910   25.6450 C.2     1  UNL1        0.1038
     20 N         -28.0750    2.0890   25.0030 N.2     1  UNL1       -0.2118
     21 C         -27.5430    0.8490   25.0790 C.2     1  UNL1        0.2358
     22 O         -28.1930   -0.2080   24.4770 O.2     1  UNL1       -0.4585
     23 C         -29.4600    0.0050   23.8660 C.3     1  UNL1        0.2423
     24 C         -30.0650   -1.3770   23.5730 C.3     1  UNL1        0.2292
     25 O         -30.7290   -1.8780   24.7210 O.3     1  UNL1       -0.2162
     26 C         -26.3540    0.5760   25.7770 C.3     1  UNL1        0.2581
     27 F         -25.8600   -0.6810   25.7950 F       1  UNL1       -0.2251
     28 C         -24.1979    0.0950   27.3753 C.3     1  UNL1        0.1117
     29 O         -20.4602    2.3708   27.4292 O.3     1  UNL1       -0.1802
     30 C         -22.6174    2.4056   28.3380 C.3     1  UNL1        0.0824
     31 C         -23.3903    2.0907   26.1782 C.2     1  UNL1        0.2851
     32 N         -24.4027    1.3883   26.7135 N.am    1  UNL1       -0.2683
     33 C         -21.9595    2.2875   26.8144 C.3     1  UNL1        0.3239
     34 O         -21.7885   -0.1966   30.4977 O.2     1  UNL1       -0.2960
     35 O         -23.7739    3.0970   25.4693 O.2     1  UNL1       -0.2692
     36 C         -21.5387    0.1117   29.3698 C.2     1  UNL1        0.1523
     37 N         -24.2010   -0.1799   29.8709 N.3     1  UNL1       -0.2129
     38 F         -21.3019    2.5195   25.5744 F       1  UNL1       -0.1970
     39 C         -22.5709    0.9791   28.8384 C.3     1  UNL1        0.0811
     40 C         -20.3974   -0.1758   28.4852 C.3     1  UNL1        0.0723
     41 C         -23.8517    0.1440   28.9086 C.3     1  UNL1        0.1000
@<TRIPOS>BOND
     1     1    37    1
     2     2     7    1
     3     2     1    1
     4     3     2    2
     5     4     3    1
     6     4     5    2
     7     5     6    1
     8     6     7    2
     9     8     1    1
    10     8     9    1
    11     8    12    1
    12     9    10    1
    13    10    11    1
    14    12    11    1
    15    13    32    1
    16    14    13    1
    17    14    15    1
    18    15    18    2
    19    16    17    1
    20    16    15    1
    21    19    14    2
    22    20    21    2
    23    20    19    1
    24    21    26    1
    25    22    21    1
    26    23    22    1
    27    24    23    1
    28    24    25    1
    29    26    27    1
    30    26    13    1
    31    28    41    1
    32    30    39    1
    33    31    32   am
    34    31    33    1
    35    32    28    1
    36    33    38    1
    37    33    29    1
    38    33    30    1
    39    35    31    2
    40    36    34    2
    41    39    41    1
    42    39    36    1
    43    40    36    1
    44    41    37    1
