@<TRIPOS>MOLECULE
outputs/IAG933/test6/raw/output_977_IAG933_linker_design_.xyz
 44 48 0 0 0
SMALL
GASTEIGER

@<TRIPOS>ATOM
      1 C         -24.8550   -1.0120   30.1430 C.3     1  UNL1        0.0608
      2 C         -24.9730   -2.5050   29.7880 C.2     1  UNL1       -0.0171
      3 C         -23.9060   -3.1730   29.1460 C.2     1  UNL1       -0.0039
      4 C         -23.9890   -4.5490   28.8530 C.2     1  UNL1       -0.0003
      5 C         -25.1370   -5.2800   29.2050 C.2     1  UNL1       -0.0000
      6 C         -26.2320   -4.6110   29.7840 C.2     1  UNL1       -0.0003
      7 C         -26.1550   -3.2320   30.0650 C.2     1  UNL1       -0.0039
      8 C         -25.3870   -0.6790   31.5710 C.3     1  UNL1        0.0808
      9 C         -25.1890    0.7730   32.0280 C.3     1  UNL1        0.0195
     10 C         -25.3360    0.6840   33.5440 C.3     1  UNL1        0.0203
     11 C         -24.8290   -0.7150   33.9050 C.3     1  UNL1        0.0887
     12 N         -24.7580   -1.4810   32.6460 N.3     1  UNL1       -0.2188
     13 C         -25.6880    1.6140   26.4610 C.2     1  UNL1        0.0408
     14 C         -26.2500    2.9200   26.3950 C.2     1  UNL1        0.0766
     15 C         -25.6420    4.0930   27.1230 C.2     1  UNL1        0.2664
     16 N         -25.6140    5.2520   26.4490 N.am    1  UNL1       -0.1997
     17 C         -25.0260    6.4790   26.9630 C.3     1  UNL1        0.1388
     18 O         -25.1430    3.9660   28.2430 O.2     1  UNL1       -0.2683
     19 C         -27.4380    3.0910   25.6450 C.2     1  UNL1        0.1067
     20 N         -28.0750    2.0890   25.0030 N.2     1  UNL1       -0.2081
     21 C         -27.5430    0.8490   25.0790 C.2     1  UNL1        0.2533
     22 O         -28.1930   -0.2080   24.4770 O.2     1  UNL1       -0.4558
     23 C         -29.4600    0.0050   23.8660 C.3     1  UNL1        0.2426
     24 C         -30.0650   -1.3770   23.5730 C.3     1  UNL1        0.2292
     25 O         -30.7290   -1.8780   24.7210 O.3     1  UNL1       -0.2162
     26 C         -26.3540    0.5760   25.7770 C.2     1  UNL1        0.1931
     27 F         -25.8600   -0.6810   25.7950 F       1  UNL1       -0.1992
     28 C         -21.8433    0.5040   28.1005 C.2     1  UNL1        0.2339
     29 C         -23.3080    1.7821   26.7549 C.2     1  UNL1        0.1250
     30 C         -24.6869    1.3968   27.3266 C.2     1  UNL1        0.0357
     31 N         -20.4924    0.2603   28.1173 N.pl3   1  UNL1       -0.0878
     32 C         -22.9002   -0.1482   28.9062 C.2     1  UNL1        0.0528
     33 C         -30.4677    0.2446   29.9480 C.2     1  UNL1        0.0001
     34 C         -29.8851    2.4183   29.3112 C.2     1  UNL1        0.0001
     35 C         -25.3754    0.5003   28.4427 C.2     1  UNL1        0.0382
     36 C         -26.9660   -0.0541   28.6348 C.2     1  UNL1        0.1953
     37 O         -22.1029    1.5202   27.2687 O.2     1  UNL1       -0.4412
     38 O         -27.0962   -1.2047   28.3816 O.2     1  UNL1       -0.2866
     39 C         -28.6144    2.0017   28.9971 C.2     1  UNL1        0.0032
     40 C         -23.2055    2.6100   25.4552 C.3     1  UNL1        0.0725
     41 C         -30.8392    1.5516   29.7963 C.2     1  UNL1        0.0000
     42 C         -29.2076   -0.1677   29.6673 C.2     1  UNL1        0.0032
     43 C         -24.4006   -0.1630   29.0050 C.2     1  UNL1       -0.0094
     44 C         -28.2879    0.6687   29.1071 C.2     1  UNL1        0.0389
@<TRIPOS>BOND
     1     1    43    1
     2     2     7    1
     3     2     1    1
     4     3     2    2
     5     4     3    1
     6     4     5    2
     7     5     6    1
     8     6     7    2
     9     8     1    1
    10     8     9    1
    11     8    12    1
    12     9    10    1
    13    10    11    1
    14    12    11    1
    15    13    30    1
    16    14    13    1
    17    14    15    1
    18    15    18    2
    19    16    17    1
    20    16    15    1
    21    19    14    2
    22    20    21    2
    23    20    19    1
    24    21    26    1
    25    22    21    1
    26    23    22    1
    27    24    23    1
    28    24    25    1
    29    26    27    1
    30    26    13    2
    31    28    31    1
    32    28    32    2
    33    29    37    1
    34    29    30    2
    35    30    35    1
    36    32    43    1
    37    34    41    2
    38    35    36    1
    39    35    43    2
    40    36    44    1
    41    37    28    1
    42    38    36    2
    43    39    44    2
    44    39    34    1
    45    40    29    1
    46    41    33    1
    47    42    33    2
    48    44    42    1
