@<TRIPOS>MOLECULE
outputs/IAG933/test6/raw/output_9772_IAG933_linker_design_.xyz
 45 49 0 0 0
SMALL
GASTEIGER

@<TRIPOS>ATOM
      1 C         -24.8550   -1.0120   30.1430 C.3     1  UNL1        0.1131
      2 C         -24.9730   -2.5050   29.7880 C.2     1  UNL1       -0.0029
      3 C         -23.9060   -3.1730   29.1460 C.2     1  UNL1       -0.0026
      4 C         -23.9890   -4.5490   28.8530 C.2     1  UNL1       -0.0003
      5 C         -25.1370   -5.2800   29.2050 C.2     1  UNL1       -0.0000
      6 C         -26.2320   -4.6110   29.7840 C.2     1  UNL1       -0.0003
      7 C         -26.1550   -3.2320   30.0650 C.2     1  UNL1       -0.0026
      8 C         -25.3870   -0.6790   31.5710 C.3     1  UNL1        0.0951
      9 C         -25.1890    0.7730   32.0280 C.3     1  UNL1        0.0209
     10 C         -25.3360    0.6840   33.5440 C.3     1  UNL1        0.0203
     11 C         -24.8290   -0.7150   33.9050 C.3     1  UNL1        0.0888
     12 N         -24.7580   -1.4810   32.6460 N.3     1  UNL1       -0.2174
     13 C         -25.6880    1.6140   26.4610 C.2     1  UNL1        0.0405
     14 C         -26.2500    2.9200   26.3950 C.2     1  UNL1        0.0764
     15 C         -25.6420    4.0930   27.1230 C.2     1  UNL1        0.2664
     16 N         -25.6140    5.2520   26.4490 N.am    1  UNL1       -0.1997
     17 C         -25.0260    6.4790   26.9630 C.3     1  UNL1        0.1388
     18 O         -25.1430    3.9660   28.2430 O.2     1  UNL1       -0.2683
     19 C         -27.4380    3.0910   25.6450 C.2     1  UNL1        0.1067
     20 N         -28.0750    2.0890   25.0030 N.2     1  UNL1       -0.2081
     21 C         -27.5430    0.8490   25.0790 C.2     1  UNL1        0.2533
     22 O         -28.1930   -0.2080   24.4770 O.2     1  UNL1       -0.4558
     23 C         -29.4600    0.0050   23.8660 C.3     1  UNL1        0.2426
     24 C         -30.0650   -1.3770   23.5730 C.3     1  UNL1        0.2292
     25 O         -30.7290   -1.8780   24.7210 O.3     1  UNL1       -0.2162
     26 C         -26.3540    0.5760   25.7770 C.2     1  UNL1        0.1930
     27 F         -25.8600   -0.6810   25.7950 F       1  UNL1       -0.1992
     28 N         -26.2080    0.8908   29.0751 N.am    1  UNL1       -0.1641
     29 F         -21.0539    1.4190   27.8926 F       1  UNL1       -0.1994
     30 C         -28.9548    4.2348   32.2906 C.2     1  UNL1       -0.0290
     31 C         -30.1080    2.3420   33.2241 C.3     1  UNL1        0.0068
     32 C         -29.5766    1.5110   32.1387 C.3     1  UNL1        0.0266
     33 C         -29.4963    3.6407   33.3694 C.3     1  UNL1        0.0258
     34 O         -28.0994   -0.4217   29.2940 O.2     1  UNL1       -0.2491
     35 C         -24.5571    1.3360   27.3389 C.2     1  UNL1        0.0602
     36 C         -27.4633    0.5370   29.7076 C.2     1  UNL1        0.3412
     37 N         -24.1482   -0.0645   29.1969 N.pl3   1  UNL1       -0.2821
     38 N         -27.7242    1.3644   30.6825 N.am    1  UNL1       -0.1845
     39 O         -22.7847    2.4891   25.9699 O.2     1  UNL1       -0.2843
     40 C         -24.9544    0.7180   28.5413 C.3     1  UNL1        0.1986
     41 C         -23.2230    1.6809   26.9770 C.2     1  UNL1        0.2234
     42 C         -28.4674    3.4973   31.2328 C.2     1  UNL1       -0.0095
     43 C         -28.7652    2.0685   31.0533 C.3     1  UNL1        0.1185
     44 C         -22.7276    0.0684   28.8862 C.2     1  UNL1        0.0963
     45 C         -22.3155    1.0045   27.9652 C.2     1  UNL1        0.1931
@<TRIPOS>BOND
     1     1     2    1
     2     2     7    1
     3     3     2    2
     4     4     3    1
     5     4     5    2
     6     5     6    1
     7     6     7    2
     8     8     1    1
     9     8     9    1
    10     8    12    1
    11     9    10    1
    12    10    11    1
    13    12    11    1
    14    13    35    1
    15    14    13    1
    16    14    15    1
    17    15    18    2
    18    16    17    1
    19    16    15    1
    20    19    14    2
    21    20    21    2
    22    20    19    1
    23    21    26    1
    24    22    21    1
    25    23    22    1
    26    24    23    1
    27    24    25    1
    28    26    27    1
    29    26    13    2
    30    28    36    1
    31    29    45    1
    32    30    33    1
    33    31    33    1
    34    32    31    1
    35    34    36    2
    36    35    40    1
    37    36    38    1
    38    37     1    1
    39    39    41    1
    40    40    28    1
    41    40    37    1
    42    41    35    2
    43    41    45    1
    44    42    30    2
    45    43    38    1
    46    43    42    1
    47    43    32    1
    48    44    37    1
    49    45    44    2
