@<TRIPOS>MOLECULE
outputs/IAG933/test6/raw/output_9773_IAG933_linker_design_.xyz
 42 45 0 0 0
SMALL
GASTEIGER

@<TRIPOS>ATOM
      1 C         -24.8550   -1.0120   30.1430 C.3     1  UNL1        0.0966
      2 C         -24.9730   -2.5050   29.7880 C.2     1  UNL1       -0.0064
      3 C         -23.9060   -3.1730   29.1460 C.2     1  UNL1       -0.0029
      4 C         -23.9890   -4.5490   28.8530 C.2     1  UNL1       -0.0003
      5 C         -25.1370   -5.2800   29.2050 C.2     1  UNL1       -0.0000
      6 C         -26.2320   -4.6110   29.7840 C.2     1  UNL1       -0.0003
      7 C         -26.1550   -3.2320   30.0650 C.2     1  UNL1       -0.0029
      8 C         -25.3870   -0.6790   31.5710 C.3     1  UNL1        0.0916
      9 C         -25.1890    0.7730   32.0280 C.3     1  UNL1        0.0206
     10 C         -25.3360    0.6840   33.5440 C.3     1  UNL1        0.0203
     11 C         -24.8290   -0.7150   33.9050 C.3     1  UNL1        0.0888
     12 N         -24.7580   -1.4810   32.6460 N.3     1  UNL1       -0.2178
     13 C         -25.6880    1.6140   26.4610 C.3     1  UNL1        0.0957
     14 C         -26.2500    2.9200   26.3950 C.2     1  UNL1        0.0590
     15 C         -25.6420    4.0930   27.1230 C.2     1  UNL1        0.2628
     16 N         -25.6140    5.2520   26.4490 N.am    1  UNL1       -0.2000
     17 C         -25.0260    6.4790   26.9630 C.3     1  UNL1        0.1388
     18 O         -25.1430    3.9660   28.2430 O.2     1  UNL1       -0.2686
     19 C         -27.4380    3.0910   25.6450 C.2     1  UNL1        0.1025
     20 N         -28.0750    2.0890   25.0030 N.2     1  UNL1       -0.2118
     21 C         -27.5430    0.8490   25.0790 C.2     1  UNL1        0.2344
     22 O         -28.1930   -0.2080   24.4770 O.2     1  UNL1       -0.4585
     23 C         -29.4600    0.0050   23.8660 C.3     1  UNL1        0.2423
     24 C         -30.0650   -1.3770   23.5730 C.3     1  UNL1        0.2292
     25 O         -30.7290   -1.8780   24.7210 O.3     1  UNL1       -0.2162
     26 C         -26.3540    0.5760   25.7770 C.3     1  UNL1        0.2441
     27 F         -25.8600   -0.6810   25.7950 F       1  UNL1       -0.2265
     28 C         -23.0451    1.4405   27.5134 C.2     1  UNL1        0.0992
     29 C         -27.1756    1.5661   29.1678 C.3     1  UNL1        0.1213
     30 O         -22.0829    2.3885   25.7114 O.2     1  UNL1       -0.4263
     31 C         -28.1059    3.1003   30.8823 C.3     1  UNL1        0.1239
     32 F         -20.6853    1.9320   27.6259 F       1  UNL1       -0.1628
     33 C         -23.3074    0.8172   28.6962 C.2     1  UNL1        0.1942
     34 C         -24.6134    0.4527   28.5394 C.3     1  UNL1        0.1427
     35 C         -24.1625    1.7607   26.4328 C.2     1  UNL1        0.0307
     36 N         -25.4866   -0.1925   29.1400 N.3     1  UNL1       -0.2613
     37 N         -28.0931    1.8410   30.2690 N.3     1  UNL1       -0.1300
     38 C         -23.4174    2.3444   25.4444 C.2     1  UNL1        0.1785
     39 O         -29.1031    1.0968   30.4768 O.3     1  UNL1       -0.1179
     40 C         -21.8631    1.9551   26.9687 C.2     1  UNL1        0.2903
     41 C         -26.9430    0.0738   29.0366 C.3     1  UNL1        0.0928
     42 O         -22.5910    0.6915   29.7436 O.2     1  UNL1       -0.2897
@<TRIPOS>BOND
     1     1    36    1
     2     2     7    1
     3     2     1    1
     4     3     2    2
     5     4     3    1
     6     4     5    2
     7     5     6    1
     8     6     7    2
     9     8     1    1
    10     8     9    1
    11     8    12    1
    12     9    10    1
    13    10    11    1
    14    12    11    1
    15    13    35    1
    16    14    13    1
    17    14    15    1
    18    15    18    2
    19    16    17    1
    20    16    15    1
    21    19    14    2
    22    20    21    2
    23    20    19    1
    24    21    26    1
    25    22    21    1
    26    23    22    1
    27    24    23    1
    28    24    25    1
    29    26    27    1
    30    26    13    1
    31    28    33    1
    32    29    37    1
    33    30    40    1
    34    33    42    2
    35    34    33    1
    36    34    36    1
    37    35    28    1
    38    37    39    1
    39    37    31    1
    40    38    30    1
    41    38    35    2
    42    40    28    2
    43    40    32    1
    44    41    36    1
    45    41    29    1
