@<TRIPOS>MOLECULE
outputs/IAG933/test6/raw/output_9775_IAG933_linker_design_.xyz
 45 49 0 0 0
SMALL
GASTEIGER

@<TRIPOS>ATOM
      1 C         -24.8550   -1.0120   30.1430 C.3     1  UNL1        0.0697
      2 C         -24.9730   -2.5050   29.7880 C.2     1  UNL1       -0.0184
      3 C         -23.9060   -3.1730   29.1460 C.2     1  UNL1       -0.0041
      4 C         -23.9890   -4.5490   28.8530 C.2     1  UNL1       -0.0003
      5 C         -25.1370   -5.2800   29.2050 C.2     1  UNL1       -0.0000
      6 C         -26.2320   -4.6110   29.7840 C.2     1  UNL1       -0.0003
      7 C         -26.1550   -3.2320   30.0650 C.2     1  UNL1       -0.0041
      8 C         -25.3870   -0.6790   31.5710 C.3     1  UNL1        0.0795
      9 C         -25.1890    0.7730   32.0280 C.3     1  UNL1        0.0193
     10 C         -25.3360    0.6840   33.5440 C.3     1  UNL1        0.0202
     11 C         -24.8290   -0.7150   33.9050 C.3     1  UNL1        0.0887
     12 N         -24.7580   -1.4810   32.6460 N.3     1  UNL1       -0.2190
     13 C         -25.6880    1.6140   26.4610 C.2     1  UNL1        0.0387
     14 C         -26.2500    2.9200   26.3950 C.2     1  UNL1        0.0766
     15 C         -25.6420    4.0930   27.1230 C.2     1  UNL1        0.2664
     16 N         -25.6140    5.2520   26.4490 N.am    1  UNL1       -0.1997
     17 C         -25.0260    6.4790   26.9630 C.3     1  UNL1        0.1388
     18 O         -25.1430    3.9660   28.2430 O.2     1  UNL1       -0.2683
     19 C         -27.4380    3.0910   25.6450 C.2     1  UNL1        0.1067
     20 N         -28.0750    2.0890   25.0030 N.2     1  UNL1       -0.2081
     21 C         -27.5430    0.8490   25.0790 C.2     1  UNL1        0.2533
     22 O         -28.1930   -0.2080   24.4770 O.2     1  UNL1       -0.4558
     23 C         -29.4600    0.0050   23.8660 C.3     1  UNL1        0.2426
     24 C         -30.0650   -1.3770   23.5730 C.3     1  UNL1        0.2292
     25 O         -30.7290   -1.8780   24.7210 O.3     1  UNL1       -0.2162
     26 C         -26.3540    0.5760   25.7770 C.2     1  UNL1        0.1931
     27 F         -25.8600   -0.6810   25.7950 F       1  UNL1       -0.1992
     28 C         -28.6170    0.8884   30.3426 C.3     1  UNL1        0.2037
     29 C         -28.9119    2.8389   31.7839 C.2     1  UNL1       -0.0018
     30 C         -27.5826    4.8959   31.6560 C.2     1  UNL1       -0.0000
     31 C         -28.5364    4.0857   32.3327 C.2     1  UNL1       -0.0002
     32 C         -27.9195    0.0630   29.3172 C.3     1  UNL1        0.1798
     33 O         -30.0693    0.7205   30.2116 O.3     1  UNL1       -0.2156
     34 C         -21.6839    0.9647   28.1816 C.2     1  UNL1        0.0006
     35 C         -27.0208    4.4808   30.4128 C.2     1  UNL1       -0.0002
     36 C         -24.3032    1.3237   26.9997 C.2     1  UNL1        0.0114
     37 C         -22.8663    0.3903   28.7999 C.2     1  UNL1       -0.0019
     38 C         -21.8096    1.6511   26.9388 C.2     1  UNL1        0.0114
     39 C         -27.3979    3.1950   29.8611 C.2     1  UNL1       -0.0018
     40 CL        -23.1114    2.2881   24.7200 Cl      1  UNL1       -0.0823
     41 O         -26.6378    0.6381   28.9685 O.3     1  UNL1       -0.3484
     42 C         -23.1382    1.7165   26.2877 C.2     1  UNL1        0.0575
     43 C         -28.2988    2.3442   30.6113 C.2     1  UNL1        0.0102
     44 C         -24.2105    0.5733   28.2786 C.2     1  UNL1        0.0058
     45 C         -25.4001   -0.1840   28.9165 C.3     1  UNL1        0.1428
@<TRIPOS>BOND
     1     1    45    1
     2     2     7    1
     3     2     1    1
     4     3     2    2
     5     4     3    1
     6     4     5    2
     7     5     6    1
     8     6     7    2
     9     8     1    1
    10     8     9    1
    11     8    12    1
    12     9    10    1
    13    10    11    1
    14    12    11    1
    15    13    36    1
    16    14    13    1
    17    14    15    1
    18    15    18    2
    19    16    17    1
    20    16    15    1
    21    19    14    2
    22    20    21    2
    23    20    19    1
    24    21    26    1
    25    22    21    1
    26    23    22    1
    27    24    23    1
    28    24    25    1
    29    26    27    1
    30    26    13    2
    31    28    33    1
    32    28    43    1
    33    29    31    1
    34    30    31    2
    35    32    28    1
    36    34    37    1
    37    35    30    1
    38    36    44    1
    39    38    34    2
    40    39    35    2
    41    39    43    1
    42    40    42    1
    43    41    32    1
    44    42    38    1
    45    42    36    2
    46    43    29    2
    47    44    37    2
    48    44    45    1
    49    45    41    1
