@<TRIPOS>MOLECULE
outputs/IAG933/test6/raw/output_9776_IAG933_linker_design_.xyz
 42 45 0 0 0
SMALL
GASTEIGER

@<TRIPOS>ATOM
      1 C         -24.8550   -1.0120   30.1430 C.3     1  UNL1        0.0437
      2 C         -24.9730   -2.5050   29.7880 C.2     1  UNL1       -0.0208
      3 C         -23.9060   -3.1730   29.1460 C.2     1  UNL1       -0.0042
      4 C         -23.9890   -4.5490   28.8530 C.2     1  UNL1       -0.0003
      5 C         -25.1370   -5.2800   29.2050 C.2     1  UNL1       -0.0000
      6 C         -26.2320   -4.6110   29.7840 C.2     1  UNL1       -0.0003
      7 C         -26.1550   -3.2320   30.0650 C.2     1  UNL1       -0.0042
      8 C         -25.3870   -0.6790   31.5710 C.3     1  UNL1        0.0772
      9 C         -25.1890    0.7730   32.0280 C.3     1  UNL1        0.0214
     10 C         -25.3360    0.6840   33.5440 C.3     1  UNL1        0.0203
     11 C         -24.8290   -0.7150   33.9050 C.3     1  UNL1        0.0887
     12 N         -24.7580   -1.4810   32.6460 N.3     1  UNL1       -0.2191
     13 C         -25.6880    1.6140   26.4610 C.3     1  UNL1        0.1268
     14 C         -26.2500    2.9200   26.3950 C.2     1  UNL1        0.0620
     15 C         -25.6420    4.0930   27.1230 C.2     1  UNL1        0.2629
     16 N         -25.6140    5.2520   26.4490 N.am    1  UNL1       -0.2000
     17 C         -25.0260    6.4790   26.9630 C.3     1  UNL1        0.1388
     18 O         -25.1430    3.9660   28.2430 O.2     1  UNL1       -0.2686
     19 C         -27.4380    3.0910   25.6450 C.2     1  UNL1        0.1026
     20 N         -28.0750    2.0890   25.0030 N.2     1  UNL1       -0.2118
     21 C         -27.5430    0.8490   25.0790 C.2     1  UNL1        0.2345
     22 O         -28.1930   -0.2080   24.4770 O.2     1  UNL1       -0.4585
     23 C         -29.4600    0.0050   23.8660 C.3     1  UNL1        0.2423
     24 C         -30.0650   -1.3770   23.5730 C.3     1  UNL1        0.2292
     25 O         -30.7290   -1.8780   24.7210 O.3     1  UNL1       -0.2162
     26 C         -26.3540    0.5760   25.7770 C.3     1  UNL1        0.2471
     27 F         -25.8600   -0.6810   25.7950 F       1  UNL1       -0.2264
     28 C         -21.7743    1.8528   27.4927 C.2     1  UNL1        0.0500
     29 O         -24.2354    5.6658   32.4503 O.2     1  UNL1       -0.2501
     30 C         -22.6884    1.4174   28.4354 C.2     1  UNL1       -0.0175
     31 O         -25.0768    3.5604   32.2256 O.3     1  UNL1       -0.4485
     32 O         -23.4973    1.9052   25.7980 O.2     1  UNL1       -0.4501
     33 C         -22.2022    2.0570   26.1736 C.3     1  UNL1        0.3504
     34 C         -23.0603    0.7397   30.8838 C.3     1  UNL1        0.0084
     35 C         -23.9746    1.2464   28.0073 C.2     1  UNL1        0.0285
     36 C         -24.0578    1.6331   31.6512 C.3     1  UNL1        0.0456
     37 F         -21.3938    2.4316   25.1606 F       1  UNL1       -0.1833
     38 C         -24.3326    2.9803   31.2647 C.3     1  UNL1        0.2084
     39 C         -26.0693    5.3037   31.0002 C.3     1  UNL1        0.1212
     40 C         -25.0613    4.8999   32.0076 C.2     1  UNL1        0.3176
     41 C         -24.3251    1.5900   26.8047 C.2     1  UNL1        0.1261
     42 C         -22.4842    1.1247   29.8570 C.3     1  UNL1        0.0264
@<TRIPOS>BOND
     1     2     7    1
     2     2     1    1
     3     3     2    2
     4     4     3    1
     5     4     5    2
     6     5     6    1
     7     6     7    2
     8     8     1    1
     9     8     9    1
    10     8    12    1
    11     9    36    1
    12     9    10    1
    13    10    11    1
    14    12    11    1
    15    13    41    1
    16    14    13    1
    17    14    15    1
    18    15    18    2
    19    16    17    1
    20    16    15    1
    21    19    14    2
    22    20    21    2
    23    20    19    1
    24    21    26    1
    25    22    21    1
    26    23    22    1
    27    24    23    1
    28    24    25    1
    29    26    27    1
    30    26    13    1
    31    28    30    2
    32    30    42    1
    33    32    33    1
    34    32    41    1
    35    33    37    1
    36    33    28    1
    37    35    30    1
    38    36    34    1
    39    38    36    1
    40    38    31    1
    41    39    40    1
    42    40    31    1
    43    40    29    2
    44    41    35    2
    45    42    34    1
