@<TRIPOS>MOLECULE
outputs/IAG933/test6/raw/output_9780_IAG933_linker_design_.xyz
 40 43 0 0 0
SMALL
GASTEIGER

@<TRIPOS>ATOM
      1 C         -24.8550   -1.0120   30.1430 C.3     1  UNL1        0.1189
      2 C         -24.9730   -2.5050   29.7880 C.2     1  UNL1       -0.0028
      3 C         -23.9060   -3.1730   29.1460 C.2     1  UNL1       -0.0026
      4 C         -23.9890   -4.5490   28.8530 C.2     1  UNL1       -0.0003
      5 C         -25.1370   -5.2800   29.2050 C.2     1  UNL1       -0.0000
      6 C         -26.2320   -4.6110   29.7840 C.2     1  UNL1       -0.0003
      7 C         -26.1550   -3.2320   30.0650 C.2     1  UNL1       -0.0026
      8 C         -25.3870   -0.6790   31.5710 C.3     1  UNL1        0.0953
      9 C         -25.1890    0.7730   32.0280 C.3     1  UNL1        0.0209
     10 C         -25.3360    0.6840   33.5440 C.3     1  UNL1        0.0203
     11 C         -24.8290   -0.7150   33.9050 C.3     1  UNL1        0.0888
     12 N         -24.7580   -1.4810   32.6460 N.3     1  UNL1       -0.2174
     13 C         -25.6880    1.6140   26.4610 C.2     1  UNL1        0.0925
     14 C         -26.2500    2.9200   26.3950 C.2     1  UNL1        0.0901
     15 C         -25.6420    4.0930   27.1230 C.2     1  UNL1        0.2676
     16 N         -25.6140    5.2520   26.4490 N.am    1  UNL1       -0.1997
     17 C         -25.0260    6.4790   26.9630 C.3     1  UNL1        0.1388
     18 O         -25.1430    3.9660   28.2430 O.2     1  UNL1       -0.2683
     19 C         -27.4380    3.0910   25.6450 C.2     1  UNL1        0.1080
     20 N         -28.0750    2.0890   25.0030 N.2     1  UNL1       -0.2080
     21 C         -27.5430    0.8490   25.0790 C.2     1  UNL1        0.2546
     22 O         -28.1930   -0.2080   24.4770 O.2     1  UNL1       -0.4558
     23 C         -29.4600    0.0050   23.8660 C.3     1  UNL1        0.2426
     24 C         -30.0650   -1.3770   23.5730 C.3     1  UNL1        0.2292
     25 O         -30.7290   -1.8780   24.7210 O.3     1  UNL1       -0.2162
     26 C         -26.3540    0.5760   25.7770 C.2     1  UNL1        0.2064
     27 F         -25.8600   -0.6810   25.7950 F       1  UNL1       -0.1979
     28 F         -23.3687    2.7389   25.4977 F       1  UNL1       -0.1670
     29 C         -23.9996    0.4581   28.2134 C.3     1  UNL1        0.2171
     30 O         -21.9869    1.6761   26.8337 O.2     1  UNL1       -0.4082
     31 F         -20.3383    1.0262   28.2258 F       1  UNL1       -0.1609
     32 C         -26.2821    0.4658   28.8124 C.2     1  UNL1        0.4489
     33 O         -26.2460    1.5922   29.3108 O.co2   1  UNL1       -0.2223
     34 O         -27.2715   -0.0071   28.1566 O.co2   1  UNL1       -0.2223
     35 N         -25.0019   -0.2429   28.9282 N.am    1  UNL1       -0.2186
     36 C         -21.6406    1.0379   27.9014 C.2     1  UNL1        0.3133
     37 C         -23.2695    1.8791   26.4914 C.3     1  UNL1        0.4225
     38 C         -22.6469    0.4312   28.6401 C.2     1  UNL1        0.2180
     39 N         -24.3721    1.2885   27.0743 N.pl3   1  UNL1       -0.2230
     40 F         -22.3203   -0.0989   29.8640 F       1  UNL1       -0.1996
@<TRIPOS>BOND
     1     1    35    1
     2     2     7    1
     3     2     1    1
     4     3     2    2
     5     4     3    1
     6     4     5    2
     7     5     6    1
     8     6     7    2
     9     8     1    1
    10     8     9    1
    11     8    12    1
    12     9    10    1
    13    10    11    1
    14    12    11    1
    15    13    39    1
    16    14    13    1
    17    14    15    1
    18    15    18    2
    19    16    17    1
    20    16    15    1
    21    19    14    2
    22    20    21    2
    23    20    19    1
    24    21    26    1
    25    22    21    1
    26    23    22    1
    27    24    23    1
    28    24    25    1
    29    26    27    1
    30    26    13    2
    31    29    38    1
    32    29    35    1
    33    30    36    1
    34    32    35   am
    35    32    33   ar
    36    34    32   ar
    37    36    31    1
    38    36    38    2
    39    37    28    1
    40    37    30    1
    41    37    39    1
    42    38    40    1
    43    39    29    1
