@<TRIPOS>MOLECULE
outputs/IAG933/test6/raw/output_9782_IAG933_linker_design_.xyz
 44 48 0 0 0
SMALL
GASTEIGER

@<TRIPOS>ATOM
      1 C         -24.8550   -1.0120   30.1430 C.3     1  UNL1        0.0812
      2 C         -24.9730   -2.5050   29.7880 C.2     1  UNL1       -0.0176
      3 C         -23.9060   -3.1730   29.1460 C.2     1  UNL1       -0.0041
      4 C         -23.9890   -4.5490   28.8530 C.2     1  UNL1       -0.0003
      5 C         -25.1370   -5.2800   29.2050 C.2     1  UNL1       -0.0000
      6 C         -26.2320   -4.6110   29.7840 C.2     1  UNL1       -0.0003
      7 C         -26.1550   -3.2320   30.0650 C.2     1  UNL1       -0.0041
      8 C         -25.3870   -0.6790   31.5710 C.3     1  UNL1        0.0804
      9 C         -25.1890    0.7730   32.0280 C.3     1  UNL1        0.0193
     10 C         -25.3360    0.6840   33.5440 C.3     1  UNL1        0.0202
     11 C         -24.8290   -0.7150   33.9050 C.3     1  UNL1        0.0887
     12 N         -24.7580   -1.4810   32.6460 N.3     1  UNL1       -0.2190
     13 C         -25.6880    1.6140   26.4610 C.3     1  UNL1        0.0977
     14 C         -26.2500    2.9200   26.3950 C.2     1  UNL1        0.0572
     15 C         -25.6420    4.0930   27.1230 C.2     1  UNL1        0.2625
     16 N         -25.6140    5.2520   26.4490 N.am    1  UNL1       -0.2000
     17 C         -25.0260    6.4790   26.9630 C.3     1  UNL1        0.1388
     18 O         -25.1430    3.9660   28.2430 O.2     1  UNL1       -0.2687
     19 C         -27.4380    3.0910   25.6450 C.2     1  UNL1        0.1022
     20 N         -28.0750    2.0890   25.0030 N.2     1  UNL1       -0.2119
     21 C         -27.5430    0.8490   25.0790 C.2     1  UNL1        0.2342
     22 O         -28.1930   -0.2080   24.4770 O.2     1  UNL1       -0.4585
     23 C         -29.4600    0.0050   23.8660 C.3     1  UNL1        0.2423
     24 C         -30.0650   -1.3770   23.5730 C.3     1  UNL1        0.2292
     25 O         -30.7290   -1.8780   24.7210 O.3     1  UNL1       -0.2162
     26 C         -26.3540    0.5760   25.7770 C.3     1  UNL1        0.2424
     27 F         -25.8600   -0.6810   25.7950 F       1  UNL1       -0.2268
     28 O         -22.2752    0.5404   29.6995 O.2     1  UNL1       -0.2866
     29 C         -30.8337   -0.9240   28.6370 C.2     1  UNL1        0.0422
     30 C         -24.4827    1.3150   26.6585 C.3     1  UNL1        0.1300
     31 C         -23.2853    2.0381   26.6403 C.3     1  UNL1        0.0896
     32 C         -30.1643   -1.6620   29.5739 C.2     1  UNL1        0.0064
     33 C         -25.2703   -0.2140   29.0681 C.3     1  UNL1        0.2056
     34 C         -22.3876    1.6368   27.6300 C.2     1  UNL1        0.1570
     35 O         -26.8638   -0.6623   28.8887 O.2     1  UNL1       -0.4757
     36 O         -30.8604    0.7443   26.9441 O.2     1  UNL1       -0.2865
     37 C         -28.1576   -0.5961   28.9603 C.2     1  UNL1        0.1417
     38 C         -28.8707    0.2650   28.1769 C.2     1  UNL1        0.0789
     39 C         -24.1735    0.2242   28.2367 C.3     1  UNL1        0.2183
     40 C         -28.8373   -1.4876   29.7734 C.2     1  UNL1        0.0371
     41 C         -22.8698    0.7829   28.5598 C.2     1  UNL1        0.2266
     42 F         -21.1378    2.0849   27.6751 F       1  UNL1       -0.2057
     43 C         -30.1888    0.0518   27.9326 C.2     1  UNL1        0.1988
     44 O         -24.3524    0.1943   27.0614 O.3     1  UNL1       -0.3466
@<TRIPOS>BOND
     1     1    33    1
     2     2     7    1
     3     2     1    1
     4     3     2    2
     5     4     3    1
     6     4     5    2
     7     5     6    1
     8     6     7    2
     9     8     1    1
    10     8     9    1
    11     8    12    1
    12     9    10    1
    13    10    11    1
    14    12    11    1
    15    13    14    1
    16    13    30    1
    17    14    15    1
    18    15    18    2
    19    16    17    1
    20    16    15    1
    21    19    14    2
    22    20    21    2
    23    20    19    1
    24    21    26    1
    25    22    21    1
    26    23    22    1
    27    24    23    1
    28    24    25    1
    29    26    27    1
    30    26    13    1
    31    29    32    1
    32    30    31    1
    33    30    44    1
    34    31    34    1
    35    32    40    2
    36    33    35    1
    37    34    42    1
    38    34    41    2
    39    35    37    1
    40    36    43    1
    41    37    40    1
    42    38    37    2
    43    39    41    1
    44    39    33    1
    45    41    28    1
    46    43    38    1
    47    43    29    2
    48    44    39    1
