@<TRIPOS>MOLECULE
outputs/IAG933/test6/raw/output_9785_IAG933_linker_design_.xyz
 43 46 0 0 0
SMALL
GASTEIGER

@<TRIPOS>ATOM
      1 C         -24.8550   -1.0120   30.1430 C.3     1  UNL1        0.1156
      2 C         -24.9730   -2.5050   29.7880 C.2     1  UNL1       -0.0048
      3 C         -23.9060   -3.1730   29.1460 C.2     1  UNL1       -0.0029
      4 C         -23.9890   -4.5490   28.8530 C.2     1  UNL1       -0.0003
      5 C         -25.1370   -5.2800   29.2050 C.2     1  UNL1       -0.0000
      6 C         -26.2320   -4.6110   29.7840 C.2     1  UNL1       -0.0003
      7 C         -26.1550   -3.2320   30.0650 C.2     1  UNL1       -0.0029
      8 C         -25.3870   -0.6790   31.5710 C.3     1  UNL1        0.0932
      9 C         -25.1890    0.7730   32.0280 C.3     1  UNL1        0.0206
     10 C         -25.3360    0.6840   33.5440 C.3     1  UNL1        0.0203
     11 C         -24.8290   -0.7150   33.9050 C.3     1  UNL1        0.0888
     12 N         -24.7580   -1.4810   32.6460 N.3     1  UNL1       -0.2177
     13 C         -25.6880    1.6140   26.4610 C.2     1  UNL1        0.0170
     14 C         -26.2500    2.9200   26.3950 C.2     1  UNL1        0.0726
     15 C         -25.6420    4.0930   27.1230 C.2     1  UNL1        0.2661
     16 N         -25.6140    5.2520   26.4490 N.am    1  UNL1       -0.1997
     17 C         -25.0260    6.4790   26.9630 C.3     1  UNL1        0.1388
     18 O         -25.1430    3.9660   28.2430 O.2     1  UNL1       -0.2683
     19 C         -27.4380    3.0910   25.6450 C.2     1  UNL1        0.1064
     20 N         -28.0750    2.0890   25.0030 N.2     1  UNL1       -0.2081
     21 C         -27.5430    0.8490   25.0790 C.2     1  UNL1        0.2530
     22 O         -28.1930   -0.2080   24.4770 O.2     1  UNL1       -0.4558
     23 C         -29.4600    0.0050   23.8660 C.3     1  UNL1        0.2426
     24 C         -30.0650   -1.3770   23.5730 C.3     1  UNL1        0.2292
     25 O         -30.7290   -1.8780   24.7210 O.3     1  UNL1       -0.2162
     26 C         -26.3540    0.5760   25.7770 C.2     1  UNL1        0.1891
     27 F         -25.8600   -0.6810   25.7950 F       1  UNL1       -0.1996
     28 N         -21.0340    1.5857   27.5300 N.3     1  UNL1       -0.1329
     29 O         -27.4177    1.3101   29.4846 O.2     1  UNL1       -0.2693
     30 C         -22.4409    1.2327   27.7078 C.3     1  UNL1        0.0935
     31 C         -29.8685    0.7551   30.1646 C.3     1  UNL1        0.0395
     32 C         -30.6142   -0.2013   31.0828 C.3     1  UNL1        0.0031
     33 C         -23.1689    1.5412   25.2005 C.3     1  UNL1        0.0019
     34 N         -26.6876   -0.4878   28.5002 N.am    1  UNL1       -0.1252
     35 C         -23.0790    0.7109   28.8306 C.3     1  UNL1        0.0371
     36 C         -29.3034   -0.1054   28.9047 C.3     1  UNL1        0.1972
     37 C         -27.7224    0.2654   28.9396 C.2     1  UNL1        0.2839
     38 C         -24.5092    0.5716   28.4213 C.3     1  UNL1        0.0835
     39 N         -25.3942   -0.2389   29.0256 N.3     1  UNL1       -0.1813
     40 C         -30.0410    0.5419   27.6697 C.3     1  UNL1        0.0425
     41 C         -23.4876    1.4076   26.7138 C.3     1  UNL1        0.0231
     42 O         -29.6496   -1.5101   28.8098 O.3     1  UNL1       -0.2163
     43 C         -24.5246    1.1922   27.2058 C.3     1  UNL1        0.0427
@<TRIPOS>BOND
     1     1    39    1
     2     2     7    1
     3     2     1    1
     4     3     2    2
     5     4     3    1
     6     4     5    2
     7     5     6    1
     8     6     7    2
     9     8     1    1
    10     8     9    1
    11     8    12    1
    12     9    10    1
    13    10    11    1
    14    12    11    1
    15    14    13    1
    16    14    15    1
    17    15    18    2
    18    16    17    1
    19    16    15    1
    20    19    14    2
    21    20    21    2
    22    20    19    1
    23    21    26    1
    24    22    21    1
    25    23    22    1
    26    24    23    1
    27    24    25    1
    28    26    27    1
    29    26    13    2
    30    30    28    1
    31    30    35    1
    32    31    32    1
    33    34    37    1
    34    34    39    1
    35    36    40    1
    36    36    37    1
    37    36    31    1
    38    37    29    2
    39    38    35    1
    40    38    39    1
    41    41    33    1
    42    41    43    1
    43    41    30    1
    44    42    36    1
    45    43    13    1
    46    43    38    1
