@<TRIPOS>MOLECULE
outputs/IAG933/test6/raw/output_9786_IAG933_linker_design_.xyz
 43 46 0 0 0
SMALL
GASTEIGER

@<TRIPOS>ATOM
      1 C         -24.8550   -1.0120   30.1430 C.3     1  UNL1        0.1557
      2 C         -24.9730   -2.5050   29.7880 C.2     1  UNL1        0.0060
      3 C         -23.9060   -3.1730   29.1460 C.2     1  UNL1       -0.0019
      4 C         -23.9890   -4.5490   28.8530 C.2     1  UNL1       -0.0002
      5 C         -25.1370   -5.2800   29.2050 C.2     1  UNL1       -0.0000
      6 C         -26.2320   -4.6110   29.7840 C.2     1  UNL1       -0.0002
      7 C         -26.1550   -3.2320   30.0650 C.2     1  UNL1       -0.0019
      8 C         -25.3870   -0.6790   31.5710 C.3     1  UNL1        0.1042
      9 C         -25.1890    0.7730   32.0280 C.3     1  UNL1        0.0217
     10 C         -25.3360    0.6840   33.5440 C.3     1  UNL1        0.0203
     11 C         -24.8290   -0.7150   33.9050 C.3     1  UNL1        0.0888
     12 N         -24.7580   -1.4810   32.6460 N.3     1  UNL1       -0.2166
     13 C         -25.6880    1.6140   26.4610 C.2     1  UNL1        0.0181
     14 C         -26.2500    2.9200   26.3950 C.2     1  UNL1        0.0726
     15 C         -25.6420    4.0930   27.1230 C.2     1  UNL1        0.2661
     16 N         -25.6140    5.2520   26.4490 N.am    1  UNL1       -0.1997
     17 C         -25.0260    6.4790   26.9630 C.3     1  UNL1        0.1388
     18 O         -25.1430    3.9660   28.2430 O.2     1  UNL1       -0.2683
     19 C         -27.4380    3.0910   25.6450 C.2     1  UNL1        0.1064
     20 N         -28.0750    2.0890   25.0030 N.2     1  UNL1       -0.2081
     21 C         -27.5430    0.8490   25.0790 C.2     1  UNL1        0.2530
     22 O         -28.1930   -0.2080   24.4770 O.2     1  UNL1       -0.4558
     23 C         -29.4600    0.0050   23.8660 C.3     1  UNL1        0.2426
     24 C         -30.0650   -1.3770   23.5730 C.3     1  UNL1        0.2292
     25 O         -30.7290   -1.8780   24.7210 O.3     1  UNL1       -0.2162
     26 C         -26.3540    0.5760   25.7770 C.2     1  UNL1        0.1892
     27 F         -25.8600   -0.6810   25.7950 F       1  UNL1       -0.1996
     28 N         -26.0100    1.2263   29.0216 N.am    1  UNL1       -0.1881
     29 C         -29.5533    1.2164   29.2125 C.3     1  UNL1        0.0950
     30 C         -24.1718    0.9566   27.2380 C.3     1  UNL1        0.0575
     31 N         -23.2848    1.7656   29.2314 N.3     1  UNL1       -0.0883
     32 O         -23.5209   -0.5470   29.7166 O.3     1  UNL1       -0.3268
     33 C         -30.4498    1.3732   30.2218 C.3     1  UNL1        0.0216
     34 C         -30.5127    2.8467   30.4110 C.3     1  UNL1        0.0035
     35 S         -21.7433    1.3406   27.5666 S.3     1  UNL1       -0.0921
     36 C         -22.6623    0.4484   28.8576 C.3     1  UNL1        0.2578
     37 N         -28.3022    1.4317   29.7404 N.am    1  UNL1       -0.2629
     38 C         -27.2226    0.5969   29.2072 C.2     1  UNL1        0.3232
     39 C         -25.0244    1.0437   28.4087 C.3     1  UNL1        0.1220
     40 C         -23.1540    1.7713   26.4424 C.3     1  UNL1        0.0675
     41 C         -28.0080    2.7913   30.1262 C.3     1  UNL1        0.0950
     42 C         -29.1895    3.4574   30.8387 C.3     1  UNL1        0.0216
     43 O         -27.3626   -0.5686   28.9614 O.2     1  UNL1       -0.2508
@<TRIPOS>BOND
     1     1    32    1
     2     2     7    1
     3     2     1    1
     4     3     2    2
     5     4     3    1
     6     4     5    2
     7     5     6    1
     8     6     7    2
     9     8     1    1
    10     8     9    1
    11     8    12    1
    12     9    10    1
    13    10    11    1
    14    12    11    1
    15    13    30    1
    16    14    13    1
    17    14    15    1
    18    15    18    2
    19    16    17    1
    20    16    15    1
    21    19    14    2
    22    20    21    2
    23    20    19    1
    24    21    26    1
    25    22    21    1
    26    23    22    1
    27    24    23    1
    28    24    25    1
    29    26    27    1
    30    26    13    2
    31    28    38    1
    32    29    37    1
    33    29    33    1
    34    30    40    1
    35    30    39    1
    36    33    34    1
    37    34    42    1
    38    35    36    1
    39    36    31    1
    40    36    32    1
    41    37    41    1
    42    38    37   am
    43    39    28    1
    44    40    35    1
    45    41    42    1
    46    43    38    2
