@<TRIPOS>MOLECULE
outputs/IAG933/test6/raw/output_9792_IAG933_linker_design_.xyz
 42 45 0 0 0
SMALL
GASTEIGER

@<TRIPOS>ATOM
      1 C         -24.8550   -1.0120   30.1430 C.3     1  UNL1        0.0612
      2 C         -24.9730   -2.5050   29.7880 C.2     1  UNL1       -0.0192
      3 C         -23.9060   -3.1730   29.1460 C.2     1  UNL1       -0.0042
      4 C         -23.9890   -4.5490   28.8530 C.2     1  UNL1       -0.0003
      5 C         -25.1370   -5.2800   29.2050 C.2     1  UNL1       -0.0000
      6 C         -26.2320   -4.6110   29.7840 C.2     1  UNL1       -0.0003
      7 C         -26.1550   -3.2320   30.0650 C.2     1  UNL1       -0.0042
      8 C         -25.3870   -0.6790   31.5710 C.3     1  UNL1        0.0788
      9 C         -25.1890    0.7730   32.0280 C.3     1  UNL1        0.0193
     10 C         -25.3360    0.6840   33.5440 C.3     1  UNL1        0.0202
     11 C         -24.8290   -0.7150   33.9050 C.3     1  UNL1        0.0887
     12 N         -24.7580   -1.4810   32.6460 N.3     1  UNL1       -0.2191
     13 C         -25.6880    1.6140   26.4610 C.3     1  UNL1        0.1437
     14 C         -26.2500    2.9200   26.3950 C.2     1  UNL1        0.0730
     15 C         -25.6420    4.0930   27.1230 C.2     1  UNL1        0.2640
     16 N         -25.6140    5.2520   26.4490 N.am    1  UNL1       -0.1999
     17 C         -25.0260    6.4790   26.9630 C.3     1  UNL1        0.1388
     18 O         -25.1430    3.9660   28.2430 O.2     1  UNL1       -0.2686
     19 C         -27.4380    3.0910   25.6450 C.2     1  UNL1        0.1038
     20 N         -28.0750    2.0890   25.0030 N.2     1  UNL1       -0.2118
     21 C         -27.5430    0.8490   25.0790 C.2     1  UNL1        0.2358
     22 O         -28.1930   -0.2080   24.4770 O.2     1  UNL1       -0.4585
     23 C         -29.4600    0.0050   23.8660 C.3     1  UNL1        0.2423
     24 C         -30.0650   -1.3770   23.5730 C.3     1  UNL1        0.2292
     25 O         -30.7290   -1.8780   24.7210 O.3     1  UNL1       -0.2162
     26 C         -26.3540    0.5760   25.7770 C.3     1  UNL1        0.2580
     27 F         -25.8600   -0.6810   25.7950 F       1  UNL1       -0.2251
     28 C         -21.0045    1.4134   27.6925 C.2     1  UNL1        0.0034
     29 C         -21.6395    0.7209   28.7037 C.2     1  UNL1        0.0015
     30 N         -25.1289    1.0054   27.7986 N.pl3   1  UNL1       -0.2968
     31 O         -23.6533    2.2287   25.3938 O.2     1  UNL1       -0.2852
     32 C         -23.8146    1.2295   27.7230 C.2     1  UNL1        0.0878
     33 C         -23.0607    0.7057   28.7265 C.2     1  UNL1        0.0178
     34 C         -27.4522    2.8952   30.2504 C.2     1  UNL1        0.1273
     35 C         -27.1157    3.9333   31.0919 C.2     1  UNL1        0.3955
     36 O         -26.4204    4.8689   30.6708 O.co2   1  UNL1       -0.2399
     37 C         -27.1979    1.6797   29.8562 C.1     1  UNL1       -0.0968
     38 C         -21.7369    1.9678   26.6471 C.2     1  UNL1        0.0433
     39 O         -27.5357    3.7986   32.2967 O.co2   1  UNL1       -0.2399
     40 C         -25.4705   -0.1364   28.8778 C.3     1  UNL1        0.1083
     41 C         -26.8901    0.3420   29.2270 C.2     1  UNL1        0.0353
     42 C         -23.0997    1.8307   26.5642 C.2     1  UNL1        0.2089
@<TRIPOS>BOND
     1     1    40    1
     2     2     7    1
     3     2     1    1
     4     3     2    2
     5     4     3    1
     6     4     5    2
     7     5     6    1
     8     6     7    2
     9     8     1    1
    10     8     9    1
    11     8    12    1
    12     9    10    1
    13    10    11    1
    14    12    11    1
    15    13    30    1
    16    14    13    1
    17    14    15    1
    18    15    18    2
    19    16    17    1
    20    16    15    1
    21    19    14    2
    22    20    21    2
    23    20    19    1
    24    21    26    1
    25    22    21    1
    26    23    22    1
    27    24    23    1
    28    24    25    1
    29    26    27    1
    30    26    13    1
    31    28    29    1
    32    29    33    2
    33    30    40    1
    34    31    42    1
    35    32    30    1
    36    32    33    1
    37    34    35    1
    38    35    39   ar
    39    36    35   ar
    40    37    34    2
    41    38    28    2
    42    40    41    1
    43    41    37    2
    44    42    38    1
    45    42    32    2
