@<TRIPOS>MOLECULE
outputs/IAG933/test6/raw/output_9793_IAG933_linker_design_.xyz
 48 54 0 0 0
SMALL
GASTEIGER

@<TRIPOS>ATOM
      1 C         -24.8550   -1.0120   30.1430 C.3     1  UNL1        0.0607
      2 C         -24.9730   -2.5050   29.7880 C.2     1  UNL1       -0.0171
      3 C         -23.9060   -3.1730   29.1460 C.2     1  UNL1       -0.0039
      4 C         -23.9890   -4.5490   28.8530 C.2     1  UNL1       -0.0003
      5 C         -25.1370   -5.2800   29.2050 C.2     1  UNL1       -0.0000
      6 C         -26.2320   -4.6110   29.7840 C.2     1  UNL1       -0.0003
      7 C         -26.1550   -3.2320   30.0650 C.2     1  UNL1       -0.0039
      8 C         -25.3870   -0.6790   31.5710 C.3     1  UNL1        0.0808
      9 C         -25.1890    0.7730   32.0280 C.3     1  UNL1        0.0195
     10 C         -25.3360    0.6840   33.5440 C.3     1  UNL1        0.0203
     11 C         -24.8290   -0.7150   33.9050 C.3     1  UNL1        0.0887
     12 N         -24.7580   -1.4810   32.6460 N.3     1  UNL1       -0.2188
     13 C         -25.6880    1.6140   26.4610 C.2     1  UNL1        0.0379
     14 C         -26.2500    2.9200   26.3950 C.2     1  UNL1        0.0765
     15 C         -25.6420    4.0930   27.1230 C.2     1  UNL1        0.2664
     16 N         -25.6140    5.2520   26.4490 N.am    1  UNL1       -0.1997
     17 C         -25.0260    6.4790   26.9630 C.3     1  UNL1        0.1388
     18 O         -25.1430    3.9660   28.2430 O.2     1  UNL1       -0.2683
     19 C         -27.4380    3.0910   25.6450 C.2     1  UNL1        0.1067
     20 N         -28.0750    2.0890   25.0030 N.2     1  UNL1       -0.2081
     21 C         -27.5430    0.8490   25.0790 C.2     1  UNL1        0.2533
     22 O         -28.1930   -0.2080   24.4770 O.2     1  UNL1       -0.4558
     23 C         -29.4600    0.0050   23.8660 C.3     1  UNL1        0.2426
     24 C         -30.0650   -1.3770   23.5730 C.3     1  UNL1        0.2292
     25 O         -30.7290   -1.8780   24.7210 O.3     1  UNL1       -0.2162
     26 C         -26.3540    0.5760   25.7770 C.2     1  UNL1        0.1930
     27 F         -25.8600   -0.6810   25.7950 F       1  UNL1       -0.1992
     28 O         -27.6461    3.8848   29.8654 O.3     1  UNL1       -0.3337
     29 C         -27.9052    5.2083   29.5987 C.3     1  UNL1        0.1489
     30 C         -28.9496    5.2106   28.7213 C.3     1  UNL1        0.0579
     31 C         -21.4373    1.7734   26.2527 C.3     1  UNL1        0.0093
     32 C         -25.4657    0.7147   28.4841 C.2     1  UNL1        0.0502
     33 C         -30.8949    2.0103   27.8877 C.3     1  UNL1        0.1112
     34 C         -22.4957    0.9705   28.1477 C.2     1  UNL1       -0.0264
     35 C         -24.7014    1.3161   27.4065 C.2     1  UNL1        0.0023
     36 C         -23.0311    0.3125   29.3346 C.2     1  UNL1       -0.0083
     37 N         -28.5466    1.7646   28.6132 N.am    1  UNL1       -0.1991
     38 O         -27.5248    0.0209   29.4514 O.2     1  UNL1       -0.2694
     39 C         -24.3779   -0.1147   29.3474 C.2     1  UNL1       -0.0130
     40 C         -28.4903    3.0649   29.0640 C.3     1  UNL1        0.2201
     41 C         -29.4956    3.8970   28.5914 C.2     1  UNL1        0.0011
     42 C         -23.4367    1.2455   27.1707 C.2     1  UNL1       -0.0259
     43 C         -22.7749    1.5801   25.9692 C.3     1  UNL1        0.0264
     44 O         -29.7187   -0.0780   27.5808 O.2     1  UNL1       -0.2740
     45 C         -21.2141    1.4559   27.6591 C.3     1  UNL1        0.0264
     46 C         -29.6865    1.1610   27.9927 C.2     1  UNL1        0.2379
     47 C         -27.3419    1.0294   28.8802 C.2     1  UNL1        0.2564
     48 C         -30.8004    3.3922   28.0996 C.2     1  UNL1       -0.0210
@<TRIPOS>BOND
     1     1    39    1
     2     2     7    1
     3     2     1    1
     4     3     2    2
     5     4     3    1
     6     4     5    2
     7     5     6    1
     8     6     7    2
     9     8     1    1
    10     8     9    1
    11     8    12    1
    12     9    10    1
    13    10    11    1
    14    12    11    1
    15    13    35    1
    16    14    13    1
    17    14    15    1
    18    15    18    2
    19    16    17    1
    20    16    15    1
    21    19    14    2
    22    20    21    2
    23    20    19    1
    24    21    26    1
    25    22    21    1
    26    23    22    1
    27    24    23    1
    28    24    25    1
    29    26    27    1
    30    26    13    2
    31    29    28    1
    32    30    29    1
    33    31    45    1
    34    32    47    1
    35    32    39    1
    36    33    46    1
    37    33    48    1
    38    34    36    1
    39    35    32    2
    40    36    39    2
    41    37    47   am
    42    37    40    1
    43    40    41    1
    44    40    28    1
    45    41    30    1
    46    42    35    1
    47    42    34    2
    48    43    31    1
    49    43    42    1
    50    44    46    2
    51    45    34    1
    52    46    37   am
    53    47    38    2
    54    48    41    2
