@<TRIPOS>MOLECULE
outputs/IAG933/test6/raw/output_980_IAG933_linker_design_.xyz
 59 67 0 0 0
SMALL
GASTEIGER

@<TRIPOS>ATOM
      1 C         -24.8550   -1.0120   30.1430 C.3     1  UNL1        0.0463
      2 C         -24.9730   -2.5050   29.7880 C.2     1  UNL1       -0.0207
      3 C         -23.9060   -3.1730   29.1460 C.2     1  UNL1       -0.0042
      4 C         -23.9890   -4.5490   28.8530 C.2     1  UNL1       -0.0003
      5 C         -25.1370   -5.2800   29.2050 C.2     1  UNL1       -0.0000
      6 C         -26.2320   -4.6110   29.7840 C.2     1  UNL1       -0.0003
      7 C         -26.1550   -3.2320   30.0650 C.2     1  UNL1       -0.0042
      8 C         -25.3870   -0.6790   31.5710 C.3     1  UNL1        0.1062
      9 C         -25.1890    0.7730   32.0280 C.3     1  UNL1        0.1552
     10 C         -25.3360    0.6840   33.5440 C.3     1  UNL1        0.0519
     11 C         -24.8290   -0.7150   33.9050 C.3     1  UNL1        0.0914
     12 N         -24.7580   -1.4810   32.6460 N.3     1  UNL1       -0.2165
     13 C         -25.6880    1.6140   26.4610 C.2     1  UNL1        0.0407
     14 C         -26.2500    2.9200   26.3950 C.2     1  UNL1        0.0744
     15 C         -25.6420    4.0930   27.1230 C.2     1  UNL1        0.2219
     16 N         -25.6140    5.2520   26.4490 N.2     1  UNL1       -0.2357
     17 C         -25.0260    6.4790   26.9630 C.3     1  UNL1        0.1550
     18 O         -25.1430    3.9660   28.2430 O.2     1  UNL1       -0.4625
     19 C         -27.4380    3.0910   25.6450 C.2     1  UNL1        0.1068
     20 N         -28.0750    2.0890   25.0030 N.2     1  UNL1       -0.2081
     21 C         -27.5430    0.8490   25.0790 C.2     1  UNL1        0.2533
     22 O         -28.1930   -0.2080   24.4770 O.2     1  UNL1       -0.4558
     23 C         -29.4600    0.0050   23.8660 C.3     1  UNL1        0.2426
     24 C         -30.0650   -1.3770   23.5730 C.3     1  UNL1        0.2292
     25 O         -30.7290   -1.8780   24.7210 O.3     1  UNL1       -0.2162
     26 C         -26.3540    0.5760   25.7770 C.2     1  UNL1        0.1931
     27 F         -25.8600   -0.6810   25.7950 F       1  UNL1       -0.1992
     28 C         -24.1768    9.4179   30.6566 C.2     1  UNL1       -0.0060
     29 C         -23.7234    9.9692   29.5078 C.2     1  UNL1       -0.0030
     30 C         -21.8902    6.8697   34.6279 C.2     1  UNL1       -0.0243
     31 C         -22.6641    1.7701   27.8212 C.3     1  UNL1        0.0198
     32 C         -21.1702    7.1185   35.8977 C.3     1  UNL1        0.0530
     33 C         -24.7216   10.8289   28.7705 C.2     1  UNL1       -0.0002
     34 C         -24.3638   10.2547   37.0832 C.3     1  UNL1        0.1122
     35 C         -22.9918    7.8822   34.7775 C.2     1  UNL1       -0.0094
     36 C         -27.4869    5.9600   30.6814 C.3     1  UNL1        0.0175
     37 C         -28.1554    7.1077   31.5052 C.3     1  UNL1        0.0859
     38 C         -25.1734    6.6718   31.5980 C.3     1  UNL1        0.2012
     39 O         -27.1351    7.9889   33.5397 O.2     1  UNL1       -0.2745
     40 C         -25.9523    6.0386   30.3713 C.3     1  UNL1        0.0892
     41 C         -23.1264    9.3403   31.7162 C.3     1  UNL1        0.0576
     42 C         -26.5002    9.7609   30.0933 C.2     1  UNL1        0.0147
     43 C         -23.1682    8.5213   35.9672 C.2     1  UNL1        0.0397
     44 C         -22.1665    1.1253   29.0857 C.3     1  UNL1        0.0198
     45 N         -23.7810    9.6191   35.8739 N.pl3   1  UNL1       -0.3059
     46 C         -25.6781    4.7394   29.3778 C.3     1  UNL1        0.1898
     47 C         -21.8963    8.1714   36.7539 C.2     1  UNL1       -0.0073
     48 C         -23.5865    1.6514   29.0084 C.3     1  UNL1        0.0843
     49 N         -24.3188    2.5166   30.0036 N.3     1  UNL1       -0.1637
     50 C         -25.5974    3.4950   30.3438 C.3     1  UNL1        0.1444
     51 C         -25.5392    9.0568   30.8456 C.2     1  UNL1        0.0520
     52 C         -27.1199    7.8127   32.3618 C.2     1  UNL1        0.2310
     53 C         -23.7800    8.3469   33.8494 C.3     1  UNL1        0.0705
     54 C         -26.0914   10.6701   29.0673 C.2     1  UNL1        0.0013
     55 C         -23.3737    8.1564   32.5099 C.3     1  UNL1        0.1271
     56 N         -25.9438    7.9666   31.7051 N.am    1  UNL1       -0.2362
     57 O         -23.8301    7.0319   31.8647 O.3     1  UNL1       -0.3389
     58 C         -24.6403    9.2462   34.7739 C.3     1  UNL1        0.0976
     59 O         -24.3010    1.5694   31.2487 O.3     1  UNL1       -0.2833
@<TRIPOS>BOND
     1     2     7    1
     2     2     1    1
     3     3     2    2
     4     4     3    1
     5     4     5    2
     6     5     6    1
     7     6     7    2
     8     8     1    1
     9     8     9    1
    10     8    12    1
    11     9    59    1
    12     9    10    1
    13    10    11    1
    14    12    11    1
    15    14    13    1
    16    14    15    1
    17    15    18    1
    18    16    17    1
    19    16    15    2
    20    18    46    1
    21    19    14    2
    22    20    21    2
    23    20    19    1
    24    21    26    1
    25    22    21    1
    26    23    22    1
    27    24    23    1
    28    24    25    1
    29    26    27    1
    30    26    13    2
    31    28    51    1
    32    28    41    1
    33    29    28    2
    34    30    35    2
    35    30    32    1
    36    31    48    1
    37    31    44    1
    38    32    47    1
    39    33    54    2
    40    33    29    1
    41    35    43    1
    42    36    37    1
    43    37    52    1
    44    38    56    1
    45    38    57    1
    46    40    46    1
    47    40    36    1
    48    40    38    1
    49    42    51    2
    50    43    47    2
    51    45    43    1
    52    45    34    1
    53    46    50    1
    54    48    44    1
    55    48    49    1
    56    49    50    1
    57    49    59    1
    58    51    56    1
    59    52    39    2
    60    53    58    1
    61    53    35    1
    62    54    42    1
    63    55    41    1
    64    55    53    1
    65    56    52   am
    66    57    55    1
    67    58    45    1
