@<TRIPOS>MOLECULE
outputs/IAG933/test6/raw/output_9804_IAG933_linker_design_.xyz
 42 47 0 0 0
SMALL
GASTEIGER

@<TRIPOS>ATOM
      1 C         -24.8550   -1.0120   30.1430 C.3     1  UNL1        0.0982
      2 C         -24.9730   -2.5050   29.7880 C.2     1  UNL1       -0.0141
      3 C         -23.9060   -3.1730   29.1460 C.2     1  UNL1       -0.0038
      4 C         -23.9890   -4.5490   28.8530 C.2     1  UNL1       -0.0003
      5 C         -25.1370   -5.2800   29.2050 C.2     1  UNL1       -0.0000
      6 C         -26.2320   -4.6110   29.7840 C.2     1  UNL1       -0.0003
      7 C         -26.1550   -3.2320   30.0650 C.2     1  UNL1       -0.0038
      8 C         -25.3870   -0.6790   31.5710 C.3     1  UNL1        0.0838
      9 C         -25.1890    0.7730   32.0280 C.3     1  UNL1        0.0196
     10 C         -25.3360    0.6840   33.5440 C.3     1  UNL1        0.0203
     11 C         -24.8290   -0.7150   33.9050 C.3     1  UNL1        0.0887
     12 N         -24.7580   -1.4810   32.6460 N.3     1  UNL1       -0.2187
     13 C         -25.6880    1.6140   26.4610 C.2     1  UNL1        0.0427
     14 C         -26.2500    2.9200   26.3950 C.2     1  UNL1        0.0726
     15 C         -25.6420    4.0930   27.1230 C.2     1  UNL1        0.2217
     16 N         -25.6140    5.2520   26.4490 N.2     1  UNL1       -0.2357
     17 C         -25.0260    6.4790   26.9630 C.3     1  UNL1        0.1550
     18 O         -25.1430    3.9660   28.2430 O.2     1  UNL1       -0.4615
     19 C         -27.4380    3.0910   25.6450 C.2     1  UNL1        0.1065
     20 N         -28.0750    2.0890   25.0030 N.2     1  UNL1       -0.2081
     21 C         -27.5430    0.8490   25.0790 C.2     1  UNL1        0.2530
     22 O         -28.1930   -0.2080   24.4770 O.2     1  UNL1       -0.4558
     23 C         -29.4600    0.0050   23.8660 C.3     1  UNL1        0.2426
     24 C         -30.0650   -1.3770   23.5730 C.3     1  UNL1        0.2292
     25 O         -30.7290   -1.8780   24.7210 O.3     1  UNL1       -0.2162
     26 C         -26.3540    0.5760   25.7770 C.2     1  UNL1        0.1914
     27 F         -25.8600   -0.6810   25.7950 F       1  UNL1       -0.1995
     28 C         -25.4435    4.6648   30.8883 C.3     1  UNL1        0.1855
     29 C         -24.1038    1.6833   27.4625 C.3     1  UNL1        0.1403
     30 C         -27.0633    3.3613   29.6186 C.3     1  UNL1        0.0783
     31 C         -21.9467    1.2886   26.9252 C.3     1  UNL1        0.0029
     32 C         -25.1606   -0.0726   29.0765 C.2     1  UNL1        0.1824
     33 C         -22.0847    1.9520   25.7574 C.3     1  UNL1        0.0029
     34 O         -23.8984    1.8628   28.5234 O.3     1  UNL1       -0.3469
     35 O         -26.2987    4.0133   31.7809 O.3     1  UNL1       -0.3498
     36 C         -23.9144    0.6843   28.7366 C.3     1  UNL1        0.1727
     37 C         -25.6593    3.9401   29.5680 C.3     1  UNL1        0.1994
     38 C         -21.5543    0.8977   28.2243 C.3     1  UNL1        0.0030
     39 C         -23.3127    1.0925   26.2699 C.3     1  UNL1        0.0316
     40 C         -27.5120    3.6574   31.0436 C.3     1  UNL1        0.1461
     41 O         -26.2611   -0.0742   28.5803 O.2     1  UNL1       -0.2931
     42 C         -22.4545    0.0630   29.0843 C.3     1  UNL1        0.0372
@<TRIPOS>BOND
     1     1    32    1
     2     2     7    1
     3     2     1    1
     4     3     2    2
     5     4     3    1
     6     4     5    2
     7     5     6    1
     8     6     7    2
     9     8     1    1
    10     8     9    1
    11     8    12    1
    12     9    10    1
    13    10    11    1
    14    12    11    1
    15    14    13    1
    16    14    15    1
    17    15    18    1
    18    16    17    1
    19    16    15    2
    20    19    14    2
    21    20    21    2
    22    20    19    1
    23    21    26    1
    24    22    21    1
    25    23    22    1
    26    24    23    1
    27    24    25    1
    28    26    27    1
    29    26    13    2
    30    28    35    1
    31    29    13    1
    32    29    34    1
    33    30    40    1
    34    31    33    1
    35    31    38    1
    36    34    36    1
    37    36    32    1
    38    36    42    1
    39    37    18    1
    40    37    30    1
    41    37    28    1
    42    38    42    1
    43    39    33    1
    44    39    31    1
    45    39    29    1
    46    40    35    1
    47    41    32    2
