@<TRIPOS>MOLECULE
outputs/IAG933/test6/raw/output_9806_IAG933_linker_design_.xyz
 45 48 0 0 0
SMALL
GASTEIGER

@<TRIPOS>ATOM
      1 C         -24.8550   -1.0120   30.1430 C.3     1  UNL1        0.0454
      2 C         -24.9730   -2.5050   29.7880 C.2     1  UNL1       -0.0207
      3 C         -23.9060   -3.1730   29.1460 C.2     1  UNL1       -0.0042
      4 C         -23.9890   -4.5490   28.8530 C.2     1  UNL1       -0.0003
      5 C         -25.1370   -5.2800   29.2050 C.2     1  UNL1       -0.0000
      6 C         -26.2320   -4.6110   29.7840 C.2     1  UNL1       -0.0003
      7 C         -26.1550   -3.2320   30.0650 C.2     1  UNL1       -0.0042
      8 C         -25.3870   -0.6790   31.5710 C.3     1  UNL1        0.0963
      9 C         -25.1890    0.7730   32.0280 C.3     1  UNL1        0.1062
     10 C         -25.3360    0.6840   33.5440 C.3     1  UNL1        0.0412
     11 C         -24.8290   -0.7150   33.9050 C.3     1  UNL1        0.0905
     12 N         -24.7580   -1.4810   32.6460 N.3     1  UNL1       -0.2173
     13 C         -25.6880    1.6140   26.4610 C.2     1  UNL1        0.1032
     14 C         -26.2500    2.9200   26.3950 C.2     1  UNL1        0.0914
     15 C         -25.6420    4.0930   27.1230 C.2     1  UNL1        0.2677
     16 N         -25.6140    5.2520   26.4490 N.am    1  UNL1       -0.1997
     17 C         -25.0260    6.4790   26.9630 C.3     1  UNL1        0.1388
     18 O         -25.1430    3.9660   28.2430 O.2     1  UNL1       -0.2683
     19 C         -27.4380    3.0910   25.6450 C.2     1  UNL1        0.1080
     20 N         -28.0750    2.0890   25.0030 N.2     1  UNL1       -0.2080
     21 C         -27.5430    0.8490   25.0790 C.2     1  UNL1        0.2546
     22 O         -28.1930   -0.2080   24.4770 O.2     1  UNL1       -0.4558
     23 C         -29.4600    0.0050   23.8660 C.3     1  UNL1        0.2426
     24 C         -30.0650   -1.3770   23.5730 C.3     1  UNL1        0.2292
     25 O         -30.7290   -1.8780   24.7210 O.3     1  UNL1       -0.2162
     26 C         -26.3540    0.5760   25.7770 C.2     1  UNL1        0.2077
     27 F         -25.8600   -0.6810   25.7950 F       1  UNL1       -0.1979
     28 C         -25.3339    6.5036   33.4337 C.2     1  UNL1       -0.0204
     29 C         -23.7487    7.9029   34.6644 C.2     1  UNL1        0.0888
     30 C         -22.2002    1.1732   27.8933 C.3     1  UNL1        0.0991
     31 C         -23.2818    1.1382   26.7176 C.3     1  UNL1        0.1056
     32 N         -24.6567    1.2881   27.2940 N.pl3   1  UNL1       -0.2357
     33 C         -25.6150    5.5983   32.2217 C.3     1  UNL1        0.0360
     34 C         -25.6189    6.8282   35.8238 C.2     1  UNL1        0.0011
     35 C         -22.9926    1.4859   29.1944 C.1     1  UNL1       -0.0692
     36 C         -26.0472    6.2358   34.6189 C.2     1  UNL1       -0.0042
     37 C         -23.7473    1.6826   30.2366 C.1     1  UNL1        0.0065
     38 N         -24.6221    1.8641   31.3310 N.am    1  UNL1       -0.2191
     39 C         -24.5047    7.6709   35.8243 C.2     1  UNL1        0.0180
     40 O         -26.3833    3.2047   31.0006 O.2     1  UNL1       -0.2739
     41 C         -22.9495    2.2321   25.5777 C.3     1  UNL1        0.0244
     42 C         -24.2342    7.4401   33.4496 C.2     1  UNL1        0.0138
     43 C         -25.3363    3.0989   31.5499 C.2     1  UNL1        0.2364
     44 C         -24.7607    4.3695   32.3293 C.3     1  UNL1        0.0909
     45 N         -22.5080    8.4907   34.7459 N.pl3   1  UNL1       -0.1281
@<TRIPOS>BOND
     1     2     7    1
     2     2     1    1
     3     3     2    2
     4     4     3    1
     5     4     5    2
     6     5     6    1
     7     6     7    2
     8     8     1    1
     9     8     9    1
    10     8    12    1
    11     9    38    1
    12     9    10    1
    13    10    11    1
    14    12    11    1
    15    13    32    1
    16    14    13    1
    17    14    15    1
    18    15    18    2
    19    16    17    1
    20    16    15    1
    21    19    14    2
    22    20    21    2
    23    20    19    1
    24    21    26    1
    25    22    21    1
    26    23    22    1
    27    24    23    1
    28    24    25    1
    29    26    27    1
    30    26    13    2
    31    28    42    2
    32    28    36    1
    33    29    45    1
    34    29    39    2
    35    30    35    1
    36    31    41    1
    37    31    32    1
    38    31    30    1
    39    33    44    1
    40    33    28    1
    41    34    39    1
    42    35    37    3
    43    36    34    2
    44    37    38    1
    45    38    43   am
    46    40    43    2
    47    42    29    1
    48    43    44    1
