@<TRIPOS>MOLECULE
outputs/IAG933/test6/raw/output_9808_IAG933_linker_design_.xyz
 43 46 0 0 0
SMALL
GASTEIGER

@<TRIPOS>ATOM
      1 C         -24.8550   -1.0120   30.1430 C.3     1  UNL1        0.0387
      2 C         -24.9730   -2.5050   29.7880 C.2     1  UNL1       -0.0211
      3 C         -23.9060   -3.1730   29.1460 C.2     1  UNL1       -0.0042
      4 C         -23.9890   -4.5490   28.8530 C.2     1  UNL1       -0.0003
      5 C         -25.1370   -5.2800   29.2050 C.2     1  UNL1       -0.0000
      6 C         -26.2320   -4.6110   29.7840 C.2     1  UNL1       -0.0003
      7 C         -26.1550   -3.2320   30.0650 C.2     1  UNL1       -0.0042
      8 C         -25.3870   -0.6790   31.5710 C.3     1  UNL1        0.0768
      9 C         -25.1890    0.7730   32.0280 C.3     1  UNL1        0.0192
     10 C         -25.3360    0.6840   33.5440 C.3     1  UNL1        0.0202
     11 C         -24.8290   -0.7150   33.9050 C.3     1  UNL1        0.0887
     12 N         -24.7580   -1.4810   32.6460 N.3     1  UNL1       -0.2191
     13 C         -25.6880    1.6140   26.4610 C.3     1  UNL1        0.0745
     14 C         -26.2500    2.9200   26.3950 C.2     1  UNL1        0.0551
     15 C         -25.6420    4.0930   27.1230 C.2     1  UNL1        0.2624
     16 N         -25.6140    5.2520   26.4490 N.am    1  UNL1       -0.2000
     17 C         -25.0260    6.4790   26.9630 C.3     1  UNL1        0.1388
     18 O         -25.1430    3.9660   28.2430 O.2     1  UNL1       -0.2687
     19 C         -27.4380    3.0910   25.6450 C.2     1  UNL1        0.1021
     20 N         -28.0750    2.0890   25.0030 N.2     1  UNL1       -0.2119
     21 C         -27.5430    0.8490   25.0790 C.2     1  UNL1        0.2341
     22 O         -28.1930   -0.2080   24.4770 O.2     1  UNL1       -0.4585
     23 C         -29.4600    0.0050   23.8660 C.3     1  UNL1        0.2423
     24 C         -30.0650   -1.3770   23.5730 C.3     1  UNL1        0.2292
     25 O         -30.7290   -1.8780   24.7210 O.3     1  UNL1       -0.2162
     26 C         -26.3540    0.5760   25.7770 C.3     1  UNL1        0.2403
     27 F         -25.8600   -0.6810   25.7950 F       1  UNL1       -0.2269
     28 C         -26.7833   -0.1083   29.0300 C.3     1  UNL1        0.0328
     29 C         -23.3913    1.2241   27.5958 C.2     1  UNL1        0.0996
     30 N         -26.3117    5.1878   30.3847 N.am    1  UNL1       -0.2014
     31 C         -24.7445    0.9497   27.7928 C.3     1  UNL1        0.0400
     32 C         -25.6216    5.3611   31.6544 C.3     1  UNL1        0.1386
     33 O         -27.2520    2.2536   29.6647 O.3     1  UNL1       -0.3444
     34 C         -25.2012   -0.1864   28.8720 C.3     1  UNL1        0.0127
     35 C         -27.3532    4.2888   30.5280 C.2     1  UNL1        0.2716
     36 O         -21.4506    2.1454   26.8902 O.2     1  UNL1       -0.2803
     37 C         -27.0552    2.8723   30.8935 C.3     1  UNL1        0.2287
     38 C         -22.3177    0.6500   28.4266 C.2     1  UNL1        0.3869
     39 O         -22.3221   -0.1905   29.2943 O.2     1  UNL1       -0.2408
     40 O         -21.1302    1.2145   27.9540 O.3     1  UNL1       -0.2438
     41 C         -22.7456    2.0511   26.6782 C.2     1  UNL1        0.2366
     42 O         -28.5193    4.6579   30.4409 O.2     1  UNL1       -0.2706
     43 C         -27.5490    0.9794   29.0728 C.3     1  UNL1        0.1428
@<TRIPOS>BOND
     1     1    34    1
     2     2     7    1
     3     2     1    1
     4     3     2    2
     5     4     3    1
     6     4     5    2
     7     5     6    1
     8     6     7    2
     9     8     1    1
    10     8     9    1
    11     8    12    1
    12     9    10    1
    13    10    11    1
    14    12    11    1
    15    13    31    1
    16    14    13    1
    17    14    15    1
    18    15    18    2
    19    16    17    1
    20    16    15    1
    21    19    14    2
    22    20    21    2
    23    20    19    1
    24    21    26    1
    25    22    21    1
    26    23    22    1
    27    24    23    1
    28    24    25    1
    29    26    27    1
    30    26    13    1
    31    28    43    1
    32    29    31    1
    33    29    38    1
    34    30    35    1
    35    30    32    1
    36    31    34    1
    37    33    37    1
    38    34    28    1
    39    35    37    1
    40    36    40    1
    41    38    39    2
    42    40    38    1
    43    41    36    1
    44    41    29    2
    45    42    35    2
    46    43    33    1
