@<TRIPOS>MOLECULE
outputs/IAG933/test6/raw/output_9811_IAG933_linker_design_.xyz
 45 48 0 0 0
SMALL
GASTEIGER

@<TRIPOS>ATOM
      1 C         -24.8550   -1.0120   30.1430 C.3     1  UNL1        0.1196
      2 C         -24.9730   -2.5050   29.7880 C.2     1  UNL1       -0.0025
      3 C         -23.9060   -3.1730   29.1460 C.2     1  UNL1       -0.0026
      4 C         -23.9890   -4.5490   28.8530 C.2     1  UNL1       -0.0003
      5 C         -25.1370   -5.2800   29.2050 C.2     1  UNL1       -0.0000
      6 C         -26.2320   -4.6110   29.7840 C.2     1  UNL1       -0.0003
      7 C         -26.1550   -3.2320   30.0650 C.2     1  UNL1       -0.0026
      8 C         -25.3870   -0.6790   31.5710 C.3     1  UNL1        0.0955
      9 C         -25.1890    0.7730   32.0280 C.3     1  UNL1        0.0209
     10 C         -25.3360    0.6840   33.5440 C.3     1  UNL1        0.0203
     11 C         -24.8290   -0.7150   33.9050 C.3     1  UNL1        0.0888
     12 N         -24.7580   -1.4810   32.6460 N.3     1  UNL1       -0.2174
     13 C         -25.6880    1.6140   26.4610 C.2     1  UNL1        0.1085
     14 C         -26.2500    2.9200   26.3950 C.2     1  UNL1        0.0918
     15 C         -25.6420    4.0930   27.1230 C.2     1  UNL1        0.2677
     16 N         -25.6140    5.2520   26.4490 N.am    1  UNL1       -0.1997
     17 C         -25.0260    6.4790   26.9630 C.3     1  UNL1        0.1388
     18 O         -25.1430    3.9660   28.2430 O.2     1  UNL1       -0.2683
     19 C         -27.4380    3.0910   25.6450 C.2     1  UNL1        0.1080
     20 N         -28.0750    2.0890   25.0030 N.2     1  UNL1       -0.2080
     21 C         -27.5430    0.8490   25.0790 C.2     1  UNL1        0.2546
     22 O         -28.1930   -0.2080   24.4770 O.2     1  UNL1       -0.4558
     23 C         -29.4600    0.0050   23.8660 C.3     1  UNL1        0.2426
     24 C         -30.0650   -1.3770   23.5730 C.3     1  UNL1        0.2292
     25 O         -30.7290   -1.8780   24.7210 O.3     1  UNL1       -0.2162
     26 C         -26.3540    0.5760   25.7770 C.2     1  UNL1        0.2082
     27 F         -25.8600   -0.6810   25.7950 F       1  UNL1       -0.1978
     28 O         -27.2519   -0.1254   28.8070 O.2     1  UNL1       -0.2504
     29 F         -22.7318    2.4417   25.6824 F       1  UNL1       -0.2028
     30 C         -26.3678    0.6689   29.0179 C.2     1  UNL1        0.3273
     31 N         -24.9694    0.1018   29.1583 N.am    1  UNL1       -0.2369
     32 C         -22.5727    1.7949   26.8624 C.2     1  UNL1        0.1565
     33 C         -21.1347    0.7836   28.5009 C.2     1  UNL1        0.0037
     34 N         -24.7824    1.3931   27.1298 N.pl3   1  UNL1       -0.2063
     35 O         -30.3210    3.7880   28.1283 O.2     1  UNL1       -0.2717
     36 C         -21.2974    1.5923   27.3805 C.2     1  UNL1        0.0311
     37 C         -30.4526    3.4971   29.3089 C.2     1  UNL1        0.2608
     38 C         -23.6677    1.2550   27.5020 C.2     1  UNL1        0.1116
     39 C         -27.0782    2.6380   30.4167 C.3     1  UNL1        0.1173
     40 N         -31.4974    2.8838   29.7708 N.am    1  UNL1       -0.0878
     41 C         -29.3725    3.8139   30.3407 C.3     1  UNL1        0.0904
     42 C         -28.5768    2.5457   30.6660 C.3     1  UNL1        0.0332
     43 C         -22.2568    0.2546   29.1718 C.2     1  UNL1        0.0164
     44 N         -26.5624    2.0161   29.1709 N.am    1  UNL1       -0.1882
     45 C         -23.5773    0.4900   28.6294 C.2     1  UNL1        0.0730
@<TRIPOS>BOND
     1     1    31    1
     2     2     7    1
     3     2     1    1
     4     3     2    2
     5     4     3    1
     6     4     5    2
     7     5     6    1
     8     6     7    2
     9     8     1    1
    10     8     9    1
    11     8    12    1
    12     9    10    1
    13    10    11    1
    14    12    11    1
    15    13    34    1
    16    14    13    1
    17    14    15    1
    18    15    18    2
    19    16    17    1
    20    16    15    1
    21    19    14    2
    22    20    21    2
    23    20    19    1
    24    21    26    1
    25    22    21    1
    26    23    22    1
    27    24    23    1
    28    24    25    1
    29    26    27    1
    30    26    13    2
    31    28    30    2
    32    29    32    1
    33    30    31   am
    34    30    44    1
    35    32    36    2
    36    32    38    1
    37    33    43    2
    38    34    38    1
    39    35    37    2
    40    36    33    1
    41    37    40    1
    42    37    41    1
    43    38    45    2
    44    39    42    1
    45    41    42    1
    46    44    39    1
    47    45    31    1
    48    45    43    1
