@<TRIPOS>MOLECULE
outputs/IAG933/test6/raw/output_9812_IAG933_linker_design_.xyz
 41 44 0 0 0
SMALL
GASTEIGER

@<TRIPOS>ATOM
      1 C         -24.8550   -1.0120   30.1430 C.3     1  UNL1        0.0928
      2 C         -24.9730   -2.5050   29.7880 C.2     1  UNL1       -0.0163
      3 C         -23.9060   -3.1730   29.1460 C.2     1  UNL1       -0.0041
      4 C         -23.9890   -4.5490   28.8530 C.2     1  UNL1       -0.0003
      5 C         -25.1370   -5.2800   29.2050 C.2     1  UNL1       -0.0000
      6 C         -26.2320   -4.6110   29.7840 C.2     1  UNL1       -0.0003
      7 C         -26.1550   -3.2320   30.0650 C.2     1  UNL1       -0.0041
      8 C         -25.3870   -0.6790   31.5710 C.3     1  UNL1        0.0816
      9 C         -25.1890    0.7730   32.0280 C.3     1  UNL1        0.0194
     10 C         -25.3360    0.6840   33.5440 C.3     1  UNL1        0.0202
     11 C         -24.8290   -0.7150   33.9050 C.3     1  UNL1        0.0887
     12 N         -24.7580   -1.4810   32.6460 N.3     1  UNL1       -0.2190
     13 C         -25.6880    1.6140   26.4610 C.2     1  UNL1        0.1207
     14 C         -26.2500    2.9200   26.3950 C.2     1  UNL1        0.0837
     15 C         -25.6420    4.0930   27.1230 C.2     1  UNL1        0.2667
     16 N         -25.6140    5.2520   26.4490 N.am    1  UNL1       -0.1997
     17 C         -25.0260    6.4790   26.9630 C.3     1  UNL1        0.1388
     18 O         -25.1430    3.9660   28.2430 O.2     1  UNL1       -0.2683
     19 C         -27.4380    3.0910   25.6450 C.2     1  UNL1        0.1070
     20 N         -28.0750    2.0890   25.0030 N.2     1  UNL1       -0.2081
     21 C         -27.5430    0.8490   25.0790 C.2     1  UNL1        0.2535
     22 O         -28.1930   -0.2080   24.4770 O.2     1  UNL1       -0.4558
     23 C         -29.4600    0.0050   23.8660 C.3     1  UNL1        0.2426
     24 C         -30.0650   -1.3770   23.5730 C.3     1  UNL1        0.2292
     25 O         -30.7290   -1.8780   24.7210 O.3     1  UNL1       -0.2162
     26 C         -26.3540    0.5760   25.7770 C.2     1  UNL1        0.2002
     27 F         -25.8600   -0.6810   25.7950 F       1  UNL1       -0.1990
     28 O         -22.5267   -0.4784   29.6888 O.2     1  UNL1       -0.2389
     29 N         -28.4963    4.5268   29.6712 N.3     1  UNL1       -0.1310
     30 S         -27.1767    0.5350   28.8216 S.3     1  UNL1       -0.0718
     31 C         -27.8648    2.0968   29.6443 C.2     1  UNL1        0.0099
     32 C         -27.0622    2.7514   30.5621 C.3     1  UNL1        0.0534
     33 C         -25.4425   -0.0688   29.0544 C.3     1  UNL1        0.2252
     34 C         -22.1568    1.7595   27.0734 C.2     1  UNL1        0.2722
     35 N         -23.3501    1.8954   26.4729 N.2     1  UNL1       -0.0330
     36 C         -24.3832    1.3386   27.0922 C.2     1  UNL1        0.3338
     37 N         -24.2898    0.5697   28.3063 N.am    1  UNL1       -0.1286
     38 C         -27.2662    4.2272   30.5009 C.3     1  UNL1        0.1145
     39 C         -22.0219    1.0820   28.2008 C.2     1  UNL1        0.2642
     40 F         -20.7829    1.0766   28.7174 F       1  UNL1       -0.1928
     41 C         -23.0493    0.3698   28.8353 C.2     1  UNL1        0.3689
@<TRIPOS>BOND
     1     1    33    1
     2     2     7    1
     3     2     1    1
     4     3     2    2
     5     4     3    1
     6     4     5    2
     7     5     6    1
     8     6     7    2
     9     8     1    1
    10     8     9    1
    11     8    12    1
    12     9    10    1
    13    10    11    1
    14    12    11    1
    15    13    36    1
    16    14    13    1
    17    14    15    1
    18    15    18    2
    19    16    17    1
    20    16    15    1
    21    19    14    2
    22    20    21    2
    23    20    19    1
    24    21    26    1
    25    22    21    1
    26    23    22    1
    27    24    23    1
    28    24    25    1
    29    26    27    1
    30    26    13    2
    31    29    38    1
    32    30    31    2
    33    31    32    1
    34    33    30    1
    35    34    39    2
    36    35    34    1
    37    35    36    2
    38    36    37    1
    39    37    41   am
    40    37    33    1
    41    38    32    1
    42    39    40    1
    43    39    41    1
    44    41    28    2
