@<TRIPOS>MOLECULE
outputs/IAG933/test6/raw/output_9818_IAG933_linker_design_.xyz
 45 48 0 0 0
SMALL
GASTEIGER

@<TRIPOS>ATOM
      1 C         -24.8550   -1.0120   30.1430 C.3     1  UNL1        0.0650
      2 C         -24.9730   -2.5050   29.7880 C.2     1  UNL1       -0.0189
      3 C         -23.9060   -3.1730   29.1460 C.2     1  UNL1       -0.0042
      4 C         -23.9890   -4.5490   28.8530 C.2     1  UNL1       -0.0003
      5 C         -25.1370   -5.2800   29.2050 C.2     1  UNL1       -0.0000
      6 C         -26.2320   -4.6110   29.7840 C.2     1  UNL1       -0.0003
      7 C         -26.1550   -3.2320   30.0650 C.2     1  UNL1       -0.0042
      8 C         -25.3870   -0.6790   31.5710 C.3     1  UNL1        0.0790
      9 C         -25.1890    0.7730   32.0280 C.3     1  UNL1        0.0193
     10 C         -25.3360    0.6840   33.5440 C.3     1  UNL1        0.0202
     11 C         -24.8290   -0.7150   33.9050 C.3     1  UNL1        0.0887
     12 N         -24.7580   -1.4810   32.6460 N.3     1  UNL1       -0.2191
     13 C         -25.6880    1.6140   26.4610 C.2     1  UNL1        0.1085
     14 C         -26.2500    2.9200   26.3950 C.2     1  UNL1        0.0918
     15 C         -25.6420    4.0930   27.1230 C.2     1  UNL1        0.2677
     16 N         -25.6140    5.2520   26.4490 N.am    1  UNL1       -0.1997
     17 C         -25.0260    6.4790   26.9630 C.3     1  UNL1        0.1388
     18 O         -25.1430    3.9660   28.2430 O.2     1  UNL1       -0.2683
     19 C         -27.4380    3.0910   25.6450 C.2     1  UNL1        0.1080
     20 N         -28.0750    2.0890   25.0030 N.2     1  UNL1       -0.2080
     21 C         -27.5430    0.8490   25.0790 C.2     1  UNL1        0.2546
     22 O         -28.1930   -0.2080   24.4770 O.2     1  UNL1       -0.4558
     23 C         -29.4600    0.0050   23.8660 C.3     1  UNL1        0.2426
     24 C         -30.0650   -1.3770   23.5730 C.3     1  UNL1        0.2292
     25 O         -30.7290   -1.8780   24.7210 O.3     1  UNL1       -0.2162
     26 C         -26.3540    0.5760   25.7770 C.2     1  UNL1        0.2082
     27 F         -25.8600   -0.6810   25.7950 F       1  UNL1       -0.1978
     28 N         -26.3819    0.8959   29.2060 N.2     1  UNL1       -0.2509
     29 C         -28.9925    3.2238   29.4026 C.3     1  UNL1        0.1108
     30 N         -24.7282    1.2809   27.1068 N.pl3   1  UNL1       -0.2068
     31 C         -23.7242    1.2037   27.5239 C.2     1  UNL1        0.1103
     32 N         -28.7647    1.7913   29.8193 N.pl3   1  UNL1       -0.2626
     33 O         -29.7230    1.3267   31.8208 O.3     1  UNL1       -0.1958
     34 N         -26.0816    3.6656   31.1056 N.1     1  UNL1       -0.1958
     35 C         -22.5734    1.7780   27.0431 C.2     1  UNL1        0.2295
     36 C         -27.0088    3.9764   30.6256 C.1     1  UNL1        0.0750
     37 C         -25.1037   -0.0389   29.0081 C.3     1  UNL1        0.1350
     38 C         -22.4956    0.0381   29.1418 C.2     1  UNL1        0.0980
     39 O         -22.6907    2.6337   26.0688 O.2     1  UNL1       -0.2835
     40 C         -27.8381    0.6743   29.2845 C.2     1  UNL1        0.1609
     41 C         -21.2829    1.4102   27.5963 C.2     1  UNL1        0.1421
     42 C         -29.3079    1.5408   30.8605 C.3     1  UNL1        0.2794
     43 C         -28.1920    4.3786   30.1237 C.3     1  UNL1        0.1269
     44 N         -21.3097    0.5482   28.6354 N.2     1  UNL1       -0.2391
     45 C         -23.7669    0.4386   28.4976 C.2     1  UNL1        0.0378
@<TRIPOS>BOND
     1     1    37    1
     2     2     7    1
     3     2     1    1
     4     3     2    2
     5     4     3    1
     6     4     5    2
     7     5     6    1
     8     6     7    2
     9     8     1    1
    10     8     9    1
    11     8    12    1
    12     9    10    1
    13    10    11    1
    14    12    11    1
    15    13    30    1
    16    14    13    1
    17    14    15    1
    18    15    18    2
    19    16    17    1
    20    16    15    1
    21    19    14    2
    22    20    21    2
    23    20    19    1
    24    21    26    1
    25    22    21    1
    26    23    22    1
    27    24    23    1
    28    24    25    1
    29    26    27    1
    30    26    13    2
    31    28    40    2
    32    29    32    1
    33    29    43    1
    34    30    31    1
    35    31    45    1
    36    32    42    1
    37    35    31    2
    38    35    41    1
    39    36    34    3
    40    37    28    1
    41    39    35    1
    42    40    32    1
    43    41    44    2
    44    42    33    1
    45    43    36    1
    46    44    38    1
    47    45    37    1
    48    45    38    2
