@<TRIPOS>MOLECULE
outputs/IAG933/test6/raw/output_9819_IAG933_linker_design_.xyz
 45 51 0 0 0
SMALL
GASTEIGER

@<TRIPOS>ATOM
      1 C         -24.8550   -1.0120   30.1430 C.3     1  UNL1        0.1577
      2 C         -24.9730   -2.5050   29.7880 C.2     1  UNL1        0.0061
      3 C         -23.9060   -3.1730   29.1460 C.2     1  UNL1       -0.0019
      4 C         -23.9890   -4.5490   28.8530 C.2     1  UNL1       -0.0002
      5 C         -25.1370   -5.2800   29.2050 C.2     1  UNL1       -0.0000
      6 C         -26.2320   -4.6110   29.7840 C.2     1  UNL1       -0.0002
      7 C         -26.1550   -3.2320   30.0650 C.2     1  UNL1       -0.0019
      8 C         -25.3870   -0.6790   31.5710 C.3     1  UNL1        0.1222
      9 C         -25.1890    0.7730   32.0280 C.3     1  UNL1        0.0954
     10 C         -25.3360    0.6840   33.5440 C.3     1  UNL1        0.0401
     11 C         -24.8290   -0.7150   33.9050 C.3     1  UNL1        0.0906
     12 N         -24.7580   -1.4810   32.6460 N.3     1  UNL1       -0.2149
     13 C         -25.6880    1.6140   26.4610 C.3     1  UNL1        0.0922
     14 C         -26.2500    2.9200   26.3950 C.2     1  UNL1        0.0589
     15 C         -25.6420    4.0930   27.1230 C.2     1  UNL1        0.2628
     16 N         -25.6140    5.2520   26.4490 N.am    1  UNL1       -0.2000
     17 C         -25.0260    6.4790   26.9630 C.3     1  UNL1        0.1388
     18 O         -25.1430    3.9660   28.2430 O.2     1  UNL1       -0.2686
     19 C         -27.4380    3.0910   25.6450 C.2     1  UNL1        0.1025
     20 N         -28.0750    2.0890   25.0030 N.2     1  UNL1       -0.2118
     21 C         -27.5430    0.8490   25.0790 C.2     1  UNL1        0.2344
     22 O         -28.1930   -0.2080   24.4770 O.2     1  UNL1       -0.4585
     23 C         -29.4600    0.0050   23.8660 C.3     1  UNL1        0.2423
     24 C         -30.0650   -1.3770   23.5730 C.3     1  UNL1        0.2292
     25 O         -30.7290   -1.8780   24.7210 O.3     1  UNL1       -0.2162
     26 C         -26.3540    0.5760   25.7770 C.3     1  UNL1        0.2440
     27 F         -25.8600   -0.6810   25.7950 F       1  UNL1       -0.2265
     28 C         -23.6380    2.0116   25.5000 C.2     1  UNL1        0.0360
     29 C         -26.4173    3.7531   32.1722 C.3     1  UNL1        0.0870
     30 C         -21.9423    1.4078   27.4801 C.3     1  UNL1        0.3130
     31 N         -25.2730    2.0331   31.3374 N.am    1  UNL1       -0.2796
     32 C         -26.5297    2.1349   30.5454 C.3     1  UNL1        0.0939
     33 O         -20.9009    1.0891   28.3768 O.3     1  UNL1       -0.3144
     34 O         -22.9112    1.0564   30.0137 O.3     1  UNL1       -0.3236
     35 C         -22.3737   -0.0776   29.8171 C.3     1  UNL1        0.2026
     36 C         -24.2334    1.5658   26.6431 C.2     1  UNL1       -0.0094
     37 O         -24.0401    3.7867   32.2207 O.2     1  UNL1       -0.2749
     38 O         -21.4097    1.7835   26.3597 O.2     1  UNL1       -0.4461
     39 C         -23.5935    0.8178   29.0325 C.3     1  UNL1        0.2375
     40 C         -23.3203    1.2630   27.7086 C.2     1  UNL1        0.0746
     41 C         -21.1308   -0.3769   28.7971 C.3     1  UNL1        0.1811
     42 O         -24.7448    0.0070   29.1337 O.3     1  UNL1       -0.3256
     43 C         -25.0516    3.1660   32.0390 C.2     1  UNL1        0.2257
     44 C         -26.7203    3.5077   30.6659 C.3     1  UNL1        0.0311
     45 C         -22.2615    2.1966   25.4788 C.2     1  UNL1        0.1751
@<TRIPOS>BOND
     1     1    42    1
     2     2     7    1
     3     2     1    1
     4     3     2    2
     5     4     3    1
     6     4     5    2
     7     5     6    1
     8     6     7    2
     9     8     1    1
    10     8     9    1
    11     8    12    1
    12     9    31    1
    13     9    10    1
    14    10    11    1
    15    12    11    1
    16    13    36    1
    17    14    13    1
    18    14    15    1
    19    15    18    2
    20    16    17    1
    21    16    15    1
    22    19    14    2
    23    20    21    2
    24    20    19    1
    25    21    26    1
    26    22    21    1
    27    23    22    1
    28    24    23    1
    29    24    25    1
    30    26    27    1
    31    26    13    1
    32    28    36    1
    33    30    38    1
    34    30    40    1
    35    30    33    1
    36    31    43   am
    37    32    44    1
    38    32    31    1
    39    33    41    1
    40    35    41    1
    41    35    34    1
    42    36    40    2
    43    39    42    1
    44    39    35    1
    45    39    34    1
    46    40    39    1
    47    43    29    1
    48    43    37    2
    49    44    29    1
    50    45    28    2
    51    45    38    1
