@<TRIPOS>MOLECULE
outputs/IAG933/test6/raw/output_9822_IAG933_linker_design_.xyz
 49 54 0 0 0
SMALL
GASTEIGER

@<TRIPOS>ATOM
      1 C         -24.8550   -1.0120   30.1430 C.3     1  UNL1        0.0450
      2 C         -24.9730   -2.5050   29.7880 C.2     1  UNL1       -0.0207
      3 C         -23.9060   -3.1730   29.1460 C.2     1  UNL1       -0.0042
      4 C         -23.9890   -4.5490   28.8530 C.2     1  UNL1       -0.0003
      5 C         -25.1370   -5.2800   29.2050 C.2     1  UNL1       -0.0000
      6 C         -26.2320   -4.6110   29.7840 C.2     1  UNL1       -0.0003
      7 C         -26.1550   -3.2320   30.0650 C.2     1  UNL1       -0.0042
      8 C         -25.3870   -0.6790   31.5710 C.3     1  UNL1        0.0772
      9 C         -25.1890    0.7730   32.0280 C.3     1  UNL1        0.0192
     10 C         -25.3360    0.6840   33.5440 C.3     1  UNL1        0.0202
     11 C         -24.8290   -0.7150   33.9050 C.3     1  UNL1        0.0887
     12 N         -24.7580   -1.4810   32.6460 N.3     1  UNL1       -0.2191
     13 C         -25.6880    1.6140   26.4610 C.3     1  UNL1        0.0744
     14 C         -26.2500    2.9200   26.3950 C.2     1  UNL1        0.0551
     15 C         -25.6420    4.0930   27.1230 C.2     1  UNL1        0.2624
     16 N         -25.6140    5.2520   26.4490 N.am    1  UNL1       -0.2000
     17 C         -25.0260    6.4790   26.9630 C.3     1  UNL1        0.1388
     18 O         -25.1430    3.9660   28.2430 O.2     1  UNL1       -0.2687
     19 C         -27.4380    3.0910   25.6450 C.2     1  UNL1        0.1021
     20 N         -28.0750    2.0890   25.0030 N.2     1  UNL1       -0.2119
     21 C         -27.5430    0.8490   25.0790 C.2     1  UNL1        0.2341
     22 O         -28.1930   -0.2080   24.4770 O.2     1  UNL1       -0.4585
     23 C         -29.4600    0.0050   23.8660 C.3     1  UNL1        0.2423
     24 C         -30.0650   -1.3770   23.5730 C.3     1  UNL1        0.2292
     25 O         -30.7290   -1.8780   24.7210 O.3     1  UNL1       -0.2162
     26 C         -26.3540    0.5760   25.7770 C.3     1  UNL1        0.2403
     27 F         -25.8600   -0.6810   25.7950 F       1  UNL1       -0.2269
     28 O         -30.9965    0.4846   33.4388 O.3     1  UNL1       -0.3537
     29 C         -24.7742    1.2161   27.6229 C.3     1  UNL1        0.0371
     30 C         -22.5069    1.7690   26.7740 C.3     1  UNL1        0.2498
     31 C         -29.6408    0.6801   30.1242 C.3     1  UNL1        0.0985
     32 N         -30.3377    1.6167   29.4461 N.am    1  UNL1       -0.2432
     33 C         -28.7299   -0.4385   29.6710 C.3     1  UNL1        0.1086
     34 C         -23.4440    0.2087   28.7818 C.2     1  UNL1        0.0637
     35 C         -31.9133    1.1975   33.1370 C.3     1  UNL1        0.1439
     36 N         -22.3760   -0.0773   29.5618 N.pl3   1  UNL1       -0.1332
     37 C         -31.1408    2.3849   30.1678 C.3     1  UNL1        0.0994
     38 C         -23.4769    1.0895   27.6382 C.2     1  UNL1        0.0143
     39 C         -29.9021    0.4356   32.7033 C.3     1  UNL1        0.1439
     40 C         -31.2638    1.7805   31.4753 C.3     1  UNL1        0.0537
     41 N         -27.7531    0.0435   28.6613 N.3     1  UNL1       -0.2159
     42 O         -21.2122    1.7848   27.4038 O.3     1  UNL1       -0.2005
     43 C         -30.1748    0.8816   31.4587 C.3     1  UNL1        0.0535
     44 C         -30.4103    1.6332   28.0781 C.2     1  UNL1        0.4472
     45 O         -30.5361    0.5458   27.4774 O.co2   1  UNL1       -0.2223
     46 C         -24.9662    0.0341   28.7820 C.3     1  UNL1        0.0592
     47 O         -30.3958    2.7141   27.4665 O.co2   1  UNL1       -0.2223
     48 C         -26.3919    0.1622   29.0931 C.3     1  UNL1        0.0947
     49 CL        -22.7835    2.5533   25.3378 Cl      1  UNL1       -0.0745
@<TRIPOS>BOND
     1     1     2    1
     2     2     7    1
     3     3     2    2
     4     4     3    1
     5     4     5    2
     6     5     6    1
     7     6     7    2
     8     8     1    1
     9     8     9    1
    10     8    12    1
    11     9    10    1
    12    10    11    1
    13    12    11    1
    14    13    14    1
    15    13    29    1
    16    14    15    1
    17    15    18    2
    18    16    17    1
    19    16    15    1
    20    19    14    2
    21    20    21    2
    22    20    19    1
    23    21    26    1
    24    22    21    1
    25    23    22    1
    26    24    23    1
    27    24    25    1
    28    26    27    1
    29    26    13    1
    30    29    38    1
    31    29    46    1
    32    30    49    1
    33    30    42    1
    34    30    38    1
    35    31    33    1
    36    31    43    1
    37    32    31    1
    38    32    37    1
    39    34    46    1
    40    34    36    1
    41    35    28    1
    42    38    34    2
    43    39    28    1
    44    40    37    1
    45    40    35    1
    46    41    48    1
    47    41    33    1
    48    43    40    1
    49    43    39    1
    50    44    32   am
    51    45    44   ar
    52    46    48    1
    53    46     1    1
    54    47    44   ar
