@<TRIPOS>MOLECULE
outputs/IAG933/test6/raw/output_9825_IAG933_linker_design_.xyz
 43 46 0 0 0
SMALL
GASTEIGER

@<TRIPOS>ATOM
      1 C         -24.8550   -1.0120   30.1430 C.3     1  UNL1        0.0697
      2 C         -24.9730   -2.5050   29.7880 C.2     1  UNL1       -0.0184
      3 C         -23.9060   -3.1730   29.1460 C.2     1  UNL1       -0.0041
      4 C         -23.9890   -4.5490   28.8530 C.2     1  UNL1       -0.0003
      5 C         -25.1370   -5.2800   29.2050 C.2     1  UNL1       -0.0000
      6 C         -26.2320   -4.6110   29.7840 C.2     1  UNL1       -0.0003
      7 C         -26.1550   -3.2320   30.0650 C.2     1  UNL1       -0.0041
      8 C         -25.3870   -0.6790   31.5710 C.3     1  UNL1        0.0795
      9 C         -25.1890    0.7730   32.0280 C.3     1  UNL1        0.0193
     10 C         -25.3360    0.6840   33.5440 C.3     1  UNL1        0.0202
     11 C         -24.8290   -0.7150   33.9050 C.3     1  UNL1        0.0887
     12 N         -24.7580   -1.4810   32.6460 N.3     1  UNL1       -0.2190
     13 C         -25.6880    1.6140   26.4610 C.2     1  UNL1        0.0379
     14 C         -26.2500    2.9200   26.3950 C.2     1  UNL1        0.0765
     15 C         -25.6420    4.0930   27.1230 C.2     1  UNL1        0.2664
     16 N         -25.6140    5.2520   26.4490 N.am    1  UNL1       -0.1997
     17 C         -25.0260    6.4790   26.9630 C.3     1  UNL1        0.1388
     18 O         -25.1430    3.9660   28.2430 O.2     1  UNL1       -0.2683
     19 C         -27.4380    3.0910   25.6450 C.2     1  UNL1        0.1067
     20 N         -28.0750    2.0890   25.0030 N.2     1  UNL1       -0.2081
     21 C         -27.5430    0.8490   25.0790 C.2     1  UNL1        0.2533
     22 O         -28.1930   -0.2080   24.4770 O.2     1  UNL1       -0.4558
     23 C         -29.4600    0.0050   23.8660 C.3     1  UNL1        0.2426
     24 C         -30.0650   -1.3770   23.5730 C.3     1  UNL1        0.2292
     25 O         -30.7290   -1.8780   24.7210 O.3     1  UNL1       -0.2162
     26 C         -26.3540    0.5760   25.7770 C.2     1  UNL1        0.1930
     27 F         -25.8600   -0.6810   25.7950 F       1  UNL1       -0.1992
     28 C         -22.2050    1.9581   26.7714 C.2     1  UNL1        0.0296
     29 C         -23.5555    2.0221   26.3650 C.2     1  UNL1        0.0021
     30 C         -31.2209    0.5781   27.8647 C.3     1  UNL1        0.3289
     31 C         -29.5541    1.8158   29.9049 C.3     1  UNL1        0.0027
     32 C         -21.9300    1.1672   27.8398 C.2     1  UNL1        0.1399
     33 O         -30.1477   -0.3476   27.7421 O.3     1  UNL1       -0.3246
     34 C         -29.3486    0.3123   30.0375 C.3     1  UNL1        0.0323
     35 O         -31.9285    0.4335   29.0359 O.3     1  UNL1       -0.1841
     36 C         -24.3064    0.5955   28.2126 C.2     1  UNL1        0.0072
     37 F         -20.6231    1.0772   28.1322 F       1  UNL1       -0.2042
     38 C         -25.4002   -0.1555   28.9826 C.3     1  UNL1        0.1429
     39 C         -29.0984   -0.4294   28.7285 C.3     1  UNL1        0.1475
     40 C         -22.9469    0.5211   28.5422 C.2     1  UNL1        0.0277
     41 C         -24.5204    1.3790   27.0860 C.2     1  UNL1        0.0010
     42 C         -27.7010   -0.1027   28.1844 C.3     1  UNL1        0.1719
     43 O         -26.6899    0.5144   29.0774 O.3     1  UNL1       -0.3489
@<TRIPOS>BOND
     1     1    38    1
     2     2     7    1
     3     2     1    1
     4     3     2    2
     5     4     3    1
     6     4     5    2
     7     5     6    1
     8     6     7    2
     9     8     1    1
    10     8     9    1
    11     8    12    1
    12     9    10    1
    13    10    11    1
    14    12    11    1
    15    13    41    1
    16    14    13    1
    17    14    15    1
    18    15    18    2
    19    16    17    1
    20    16    15    1
    21    19    14    2
    22    20    21    2
    23    20    19    1
    24    21    26    1
    25    22    21    1
    26    23    22    1
    27    24    23    1
    28    24    25    1
    29    26    27    1
    30    26    13    2
    31    28    32    1
    32    29    28    2
    33    29    41    1
    34    30    35    1
    35    31    34    1
    36    32    37    1
    37    32    40    2
    38    33    30    1
    39    33    39    1
    40    36    40    1
    41    36    38    1
    42    38    43    1
    43    39    42    1
    44    39    34    1
    45    41    36    2
    46    42    43    1
