@<TRIPOS>MOLECULE
outputs/IAG933/test6/raw/output_9827_IAG933_linker_design_.xyz
 43 45 0 0 0
SMALL
GASTEIGER

@<TRIPOS>ATOM
      1 C         -24.8550   -1.0120   30.1430 C.3     1  UNL1        0.0558
      2 C         -24.9730   -2.5050   29.7880 C.2     1  UNL1       -0.0197
      3 C         -23.9060   -3.1730   29.1460 C.2     1  UNL1       -0.0042
      4 C         -23.9890   -4.5490   28.8530 C.2     1  UNL1       -0.0003
      5 C         -25.1370   -5.2800   29.2050 C.2     1  UNL1       -0.0000
      6 C         -26.2320   -4.6110   29.7840 C.2     1  UNL1       -0.0003
      7 C         -26.1550   -3.2320   30.0650 C.2     1  UNL1       -0.0042
      8 C         -25.3870   -0.6790   31.5710 C.3     1  UNL1        0.0782
      9 C         -25.1890    0.7730   32.0280 C.3     1  UNL1        0.0192
     10 C         -25.3360    0.6840   33.5440 C.3     1  UNL1        0.0202
     11 C         -24.8290   -0.7150   33.9050 C.3     1  UNL1        0.0887
     12 N         -24.7580   -1.4810   32.6460 N.3     1  UNL1       -0.2191
     13 C         -25.6880    1.6140   26.4610 C.2     1  UNL1        0.0407
     14 C         -26.2500    2.9200   26.3950 C.2     1  UNL1        0.0744
     15 C         -25.6420    4.0930   27.1230 C.2     1  UNL1        0.2231
     16 N         -25.6140    5.2520   26.4490 N.2     1  UNL1       -0.2356
     17 C         -25.0260    6.4790   26.9630 C.3     1  UNL1        0.1550
     18 O         -25.1430    3.9660   28.2430 O.2     1  UNL1       -0.4463
     19 C         -27.4380    3.0910   25.6450 C.2     1  UNL1        0.1068
     20 N         -28.0750    2.0890   25.0030 N.2     1  UNL1       -0.2081
     21 C         -27.5430    0.8490   25.0790 C.2     1  UNL1        0.2533
     22 O         -28.1930   -0.2080   24.4770 O.2     1  UNL1       -0.4558
     23 C         -29.4600    0.0050   23.8660 C.3     1  UNL1        0.2426
     24 C         -30.0650   -1.3770   23.5730 C.3     1  UNL1        0.2292
     25 O         -30.7290   -1.8780   24.7210 O.3     1  UNL1       -0.2162
     26 C         -26.3540    0.5760   25.7770 C.2     1  UNL1        0.1931
     27 F         -25.8600   -0.6810   25.7950 F       1  UNL1       -0.1992
     28 C         -26.2459    4.9474   31.1542 C.3     1  UNL1        0.0282
     29 C         -27.6168    4.5961   29.4484 C.2     1  UNL1       -0.0393
     30 C         -26.4761    6.3188   31.1493 C.3     1  UNL1        0.0924
     31 N         -24.9039    2.0750   29.5205 N.3     1  UNL1       -0.1363
     32 C         -23.7388    1.7075   29.0887 C.3     1  UNL1        0.2765
     33 C         -21.8697    1.8012   27.7931 C.3     1  UNL1        0.3310
     34 O         -23.0496    2.4916   28.1354 O.3     1  UNL1       -0.2951
     35 N         -25.4892    7.0144   31.8204 N.3     1  UNL1       -0.1329
     36 C         -25.5558    3.2778   29.3284 C.3     1  UNL1        0.2495
     37 C         -23.4582   -0.4199   30.3150 C.3     1  UNL1        0.0983
     38 C         -28.8781    3.9113   29.5695 C.3     1  UNL1        0.0265
     39 C         -27.6530    7.2791   30.7388 C.3     1  UNL1        0.0205
     40 N         -22.9671    0.7667   29.6876 N.3     1  UNL1       -0.1754
     41 C         -26.4444    4.1166   30.0608 C.3     1  UNL1        0.0776
     42 C         -27.4997    5.7614   28.7661 C.2     1  UNL1       -0.0090
     43 O         -20.9082    1.3242   27.6192 O.3     1  UNL1       -0.1840
@<TRIPOS>BOND
     1     1    37    1
     2     2     7    1
     3     2     1    1
     4     3     2    2
     5     4     3    1
     6     4     5    2
     7     5     6    1
     8     6     7    2
     9     8     1    1
    10     8     9    1
    11     8    12    1
    12     9    10    1
    13    10    11    1
    14    12    11    1
    15    14    13    1
    16    14    15    1
    17    15    18    1
    18    16    17    1
    19    16    15    2
    20    19    14    2
    21    20    21    2
    22    20    19    1
    23    21    26    1
    24    22    21    1
    25    23    22    1
    26    24    23    1
    27    24    25    1
    28    26    27    1
    29    26    13    2
    30    29    38    1
    31    29    41    1
    32    30    39    1
    33    30    28    1
    34    30    35    1
    35    32    34    1
    36    32    31    1
    37    32    40    1
    38    33    34    1
    39    36    18    1
    40    36    31    1
    41    36    41    1
    42    40    37    1
    43    41    28    1
    44    42    29    2
    45    43    33    1
