@<TRIPOS>MOLECULE
outputs/IAG933/test6/raw/output_983_IAG933_linker_design_.xyz
 46 50 0 0 0
SMALL
GASTEIGER

@<TRIPOS>ATOM
      1 C         -24.8550   -1.0120   30.1430 C.3     1  UNL1        0.1178
      2 C         -24.9730   -2.5050   29.7880 C.2     1  UNL1       -0.0026
      3 C         -23.9060   -3.1730   29.1460 C.2     1  UNL1       -0.0026
      4 C         -23.9890   -4.5490   28.8530 C.2     1  UNL1       -0.0003
      5 C         -25.1370   -5.2800   29.2050 C.2     1  UNL1       -0.0000
      6 C         -26.2320   -4.6110   29.7840 C.2     1  UNL1       -0.0003
      7 C         -26.1550   -3.2320   30.0650 C.2     1  UNL1       -0.0026
      8 C         -25.3870   -0.6790   31.5710 C.3     1  UNL1        0.0954
      9 C         -25.1890    0.7730   32.0280 C.3     1  UNL1        0.0209
     10 C         -25.3360    0.6840   33.5440 C.3     1  UNL1        0.0203
     11 C         -24.8290   -0.7150   33.9050 C.3     1  UNL1        0.0888
     12 N         -24.7580   -1.4810   32.6460 N.3     1  UNL1       -0.2174
     13 C         -25.6880    1.6140   26.4610 C.2     1  UNL1        0.0399
     14 C         -26.2500    2.9200   26.3950 C.2     1  UNL1        0.0766
     15 C         -25.6420    4.0930   27.1230 C.2     1  UNL1        0.2664
     16 N         -25.6140    5.2520   26.4490 N.am    1  UNL1       -0.1997
     17 C         -25.0260    6.4790   26.9630 C.3     1  UNL1        0.1388
     18 O         -25.1430    3.9660   28.2430 O.2     1  UNL1       -0.2683
     19 C         -27.4380    3.0910   25.6450 C.2     1  UNL1        0.1067
     20 N         -28.0750    2.0890   25.0030 N.2     1  UNL1       -0.2081
     21 C         -27.5430    0.8490   25.0790 C.2     1  UNL1        0.2533
     22 O         -28.1930   -0.2080   24.4770 O.2     1  UNL1       -0.4558
     23 C         -29.4600    0.0050   23.8660 C.3     1  UNL1        0.2426
     24 C         -30.0650   -1.3770   23.5730 C.3     1  UNL1        0.2292
     25 O         -30.7290   -1.8780   24.7210 O.3     1  UNL1       -0.2162
     26 C         -26.3540    0.5760   25.7770 C.2     1  UNL1        0.1931
     27 F         -25.8600   -0.6810   25.7950 F       1  UNL1       -0.1992
     28 C         -24.4970    0.5612   28.4569 C.2     1  UNL1        0.0712
     29 O         -27.6668   -0.1455   28.3438 O.2     1  UNL1       -0.2745
     30 C         -28.2525    3.2426   28.9550 C.2     1  UNL1       -0.0048
     31 N         -28.2288    3.3586   31.4081 N.pl3   1  UNL1       -0.2335
     32 C         -23.2213    1.6865   26.8859 C.2     1  UNL1        0.0850
     33 C         -24.5318    1.3235   27.2740 C.2     1  UNL1        0.0277
     34 C         -27.5941    1.2089   30.1987 C.3     1  UNL1        0.1116
     35 C         -23.1349    0.5284   28.7663 C.3     1  UNL1        0.2468
     36 C         -31.1319    5.4094   30.0712 C.3     1  UNL1        0.0324
     37 F         -22.5384   -0.0199   29.8436 F       1  UNL1       -0.2236
     38 C         -29.8613    4.6225   30.1233 C.2     1  UNL1       -0.0060
     39 C         -26.9488    0.3765   29.1635 C.2     1  UNL1        0.2315
     40 C         -22.3605    1.2606   27.8602 C.2     1  UNL1        0.1661
     41 CL        -22.7377    2.5245   25.4488 Cl      1  UNL1       -0.0801
     42 C         -29.2666    4.2238   28.8986 C.2     1  UNL1       -0.0058
     43 C         -27.9655    2.6753   30.2230 C.3     1  UNL1        0.1235
     44 N         -25.5064    0.0246   29.2158 N.am    1  UNL1       -0.2556
     45 F         -21.0578    1.4917   27.9319 F       1  UNL1       -0.2047
     46 C         -29.3061    4.1963   31.3387 C.2     1  UNL1        0.0761
@<TRIPOS>BOND
     1     1    44    1
     2     2     7    1
     3     2     1    1
     4     3     2    2
     5     4     3    1
     6     4     5    2
     7     5     6    1
     8     6     7    2
     9     8     1    1
    10     8     9    1
    11     8    12    1
    12     9    10    1
    13    10    11    1
    14    12    11    1
    15    13    33    1
    16    14    13    1
    17    14    15    1
    18    15    18    2
    19    16    17    1
    20    16    15    1
    21    19    14    2
    22    20    21    2
    23    20    19    1
    24    21    26    1
    25    22    21    1
    26    23    22    1
    27    24    23    1
    28    24    25    1
    29    26    27    1
    30    26    13    2
    31    28    35    1
    32    28    44    1
    33    29    39    2
    34    30    43    1
    35    32    33    1
    36    32    40    2
    37    33    28    2
    38    35    37    1
    39    36    38    1
    40    38    46    2
    41    39    44   am
    42    39    34    1
    43    40    45    1
    44    40    35    1
    45    41    32    1
    46    42    30    2
    47    42    38    1
    48    43    34    1
    49    43    31    1
    50    46    31    1
