@<TRIPOS>MOLECULE
outputs/IAG933/test6/raw/output_9834_IAG933_linker_design_.xyz
 42 48 0 0 0
SMALL
GASTEIGER

@<TRIPOS>ATOM
      1 C         -24.8550   -1.0120   30.1430 C.3     1  UNL1        0.0789
      2 C         -24.9730   -2.5050   29.7880 C.2     1  UNL1       -0.0178
      3 C         -23.9060   -3.1730   29.1460 C.2     1  UNL1       -0.0041
      4 C         -23.9890   -4.5490   28.8530 C.2     1  UNL1       -0.0003
      5 C         -25.1370   -5.2800   29.2050 C.2     1  UNL1       -0.0000
      6 C         -26.2320   -4.6110   29.7840 C.2     1  UNL1       -0.0003
      7 C         -26.1550   -3.2320   30.0650 C.2     1  UNL1       -0.0041
      8 C         -25.3870   -0.6790   31.5710 C.3     1  UNL1        0.0802
      9 C         -25.1890    0.7730   32.0280 C.3     1  UNL1        0.0193
     10 C         -25.3360    0.6840   33.5440 C.3     1  UNL1        0.0202
     11 C         -24.8290   -0.7150   33.9050 C.3     1  UNL1        0.0887
     12 N         -24.7580   -1.4810   32.6460 N.3     1  UNL1       -0.2190
     13 C         -25.6880    1.6140   26.4610 C.3     1  UNL1        0.1112
     14 C         -26.2500    2.9200   26.3950 C.2     1  UNL1        0.0605
     15 C         -25.6420    4.0930   27.1230 C.2     1  UNL1        0.2628
     16 N         -25.6140    5.2520   26.4490 N.am    1  UNL1       -0.2000
     17 C         -25.0260    6.4790   26.9630 C.3     1  UNL1        0.1388
     18 O         -25.1430    3.9660   28.2430 O.2     1  UNL1       -0.2686
     19 C         -27.4380    3.0910   25.6450 C.2     1  UNL1        0.1025
     20 N         -28.0750    2.0890   25.0030 N.2     1  UNL1       -0.2118
     21 C         -27.5430    0.8490   25.0790 C.2     1  UNL1        0.2345
     22 O         -28.1930   -0.2080   24.4770 O.2     1  UNL1       -0.4585
     23 C         -29.4600    0.0050   23.8660 C.3     1  UNL1        0.2423
     24 C         -30.0650   -1.3770   23.5730 C.3     1  UNL1        0.2292
     25 O         -30.7290   -1.8780   24.7210 O.3     1  UNL1       -0.2162
     26 C         -26.3540    0.5760   25.7770 C.3     1  UNL1        0.2456
     27 F         -25.8600   -0.6810   25.7950 F       1  UNL1       -0.2265
     28 C         -27.8535    1.1131   28.9128 C.3     1  UNL1        0.0748
     29 C         -25.6671   -0.2046   29.1258 C.3     1  UNL1        0.1983
     30 C         -22.6688    1.0537   27.8577 C.2     1  UNL1        0.2909
     31 N         -26.9984   -0.2143   28.9514 N.3     1  UNL1       -0.1963
     32 N         -24.7687    0.4873   28.3710 N.3     1  UNL1       -0.1823
     33 C         -29.3301    2.1462   29.8371 C.3     1  UNL1        0.0028
     34 O         -23.4401    0.1842   28.7387 O.2     1  UNL1       -0.3522
     35 C         -30.0776    2.0989   28.4469 C.3     1  UNL1        0.0015
     36 C         -23.4895    1.5204   26.9178 C.2     1  UNL1        0.0978
     37 C         -29.4190    0.9483   29.0997 C.3     1  UNL1        0.0162
     38 O         -21.3873    2.2213   26.5590 O.2     1  UNL1       -0.3696
     39 N         -21.3828    1.5740   27.7151 N.2     1  UNL1       -0.0415
     40 C         -27.7983    1.9569   30.2140 C.3     1  UNL1        0.0175
     41 C         -22.8766    2.2470   25.8423 C.3     1  UNL1        0.2713
     42 C         -24.7927    1.0676   27.4171 C.2     1  UNL1        0.0837
@<TRIPOS>BOND
     1     1    29    1
     2     2     7    1
     3     2     1    1
     4     3     2    2
     5     4     3    1
     6     4     5    2
     7     5     6    1
     8     6     7    2
     9     8     1    1
    10     8     9    1
    11     8    12    1
    12     9    10    1
    13    10    11    1
    14    12    11    1
    15    13    42    1
    16    14    13    1
    17    14    15    1
    18    15    18    2
    19    16    17    1
    20    16    15    1
    21    19    14    2
    22    20    21    2
    23    20    19    1
    24    21    26    1
    25    22    21    1
    26    23    22    1
    27    24    23    1
    28    24    25    1
    29    26    27    1
    30    26    13    1
    31    28    31    1
    32    28    37    1
    33    28    40    1
    34    29    31    1
    35    30    34    1
    36    32    34    1
    37    32    29    1
    38    33    35    1
    39    33    40    1
    40    36    42    2
    41    36    30    1
    42    37    35    1
    43    37    33    1
    44    38    39    1
    45    39    30    2
    46    41    38    1
    47    41    36    1
    48    42    32    1
