@<TRIPOS>MOLECULE
outputs/IAG933/test6/raw/output_9836_IAG933_linker_design_.xyz
 40 44 0 0 0
SMALL
GASTEIGER

@<TRIPOS>ATOM
      1 C         -24.8550   -1.0120   30.1430 C.3     1  UNL1        0.1294
      2 C         -24.9730   -2.5050   29.7880 C.2     1  UNL1       -0.0002
      3 C         -23.9060   -3.1730   29.1460 C.2     1  UNL1       -0.0024
      4 C         -23.9890   -4.5490   28.8530 C.2     1  UNL1       -0.0003
      5 C         -25.1370   -5.2800   29.2050 C.2     1  UNL1       -0.0000
      6 C         -26.2320   -4.6110   29.7840 C.2     1  UNL1       -0.0003
      7 C         -26.1550   -3.2320   30.0650 C.2     1  UNL1       -0.0024
      8 C         -25.3870   -0.6790   31.5710 C.3     1  UNL1        0.0978
      9 C         -25.1890    0.7730   32.0280 C.3     1  UNL1        0.0211
     10 C         -25.3360    0.6840   33.5440 C.3     1  UNL1        0.0203
     11 C         -24.8290   -0.7150   33.9050 C.3     1  UNL1        0.0888
     12 N         -24.7580   -1.4810   32.6460 N.3     1  UNL1       -0.2172
     13 C         -25.6880    1.6140   26.4610 C.3     1  UNL1        0.1600
     14 C         -26.2500    2.9200   26.3950 C.2     1  UNL1        0.0758
     15 C         -25.6420    4.0930   27.1230 C.2     1  UNL1        0.2642
     16 N         -25.6140    5.2520   26.4490 N.am    1  UNL1       -0.1999
     17 C         -25.0260    6.4790   26.9630 C.3     1  UNL1        0.1388
     18 O         -25.1430    3.9660   28.2430 O.2     1  UNL1       -0.2686
     19 C         -27.4380    3.0910   25.6450 C.2     1  UNL1        0.1040
     20 N         -28.0750    2.0890   25.0030 N.2     1  UNL1       -0.2117
     21 C         -27.5430    0.8490   25.0790 C.2     1  UNL1        0.2361
     22 O         -28.1930   -0.2080   24.4770 O.2     1  UNL1       -0.4585
     23 C         -29.4600    0.0050   23.8660 C.3     1  UNL1        0.2423
     24 C         -30.0650   -1.3770   23.5730 C.3     1  UNL1        0.2292
     25 O         -30.7290   -1.8780   24.7210 O.3     1  UNL1       -0.2162
     26 C         -26.3540    0.5760   25.7770 C.3     1  UNL1        0.2608
     27 F         -25.8600   -0.6810   25.7950 F       1  UNL1       -0.2248
     28 C         -23.4809    0.5157   28.6642 C.ar    1  UNL1        0.1513
     29 O         -23.4508    3.2933   26.3989 O.2     1  UNL1       -0.2868
     30 N         -22.1573    0.4506   29.0143 N.pl3   1  UNL1       -0.2202
     31 C         -25.6278    0.7677   28.7380 C.ar    1  UNL1        0.3331
     32 C         -23.8633    1.3329   27.6687 C.ar    1  UNL1        0.1332
     33 C         -21.1886    0.9233   28.2533 C.3     1  UNL1        0.1171
     34 C         -21.1742    1.0763   26.9955 C.3     1  UNL1        0.0668
     35 N         -24.6761   -0.0475   29.1363 N.ar    1  UNL1       -0.2638
     36 C         -22.2361    1.4069   25.9034 C.3     1  UNL1        0.2252
     37 C         -23.2127    2.0689   26.6707 C.2     1  UNL1        0.2238
     38 N         -25.0882    1.3004   27.5611 N.ar    1  UNL1       -0.2707
     39 O         -26.6279    1.1652   29.3884 O.2     1  UNL1       -0.2462
     40 F         -23.0343    1.0686   24.7493 F       1  UNL1       -0.2288
@<TRIPOS>BOND
     1     1     2    1
     2     2     7    1
     3     3     2    2
     4     4     3    1
     5     4     5    2
     6     5     6    1
     7     6     7    2
     8     8     1    1
     9     8     9    1
    10     8    12    1
    11     9    10    1
    12    10    11    1
    13    12    11    1
    14    13    38    1
    15    14    13    1
    16    14    15    1
    17    15    18    2
    18    16    17    1
    19    16    15    1
    20    19    14    2
    21    20    21    2
    22    20    19    1
    23    21    26    1
    24    22    21    1
    25    23    22    1
    26    24    23    1
    27    24    25    1
    28    26    27    1
    29    26    13    1
    30    28    30    1
    31    28    35   ar
    32    29    37    2
    33    31    35   ar
    34    31    39    2
    35    32    28   ar
    36    33    30    1
    37    34    33    1
    38    35     1    1
    39    36    40    1
    40    36    37    1
    41    36    34    1
    42    37    32    1
    43    38    32   ar
    44    38    31   ar
