@<TRIPOS>MOLECULE
outputs/IAG933/test6/raw/output_9837_IAG933_linker_design_.xyz
 45 49 0 0 0
SMALL
GASTEIGER

@<TRIPOS>ATOM
      1 C         -24.8550   -1.0120   30.1430 C.3     1  UNL1        0.0450
      2 C         -24.9730   -2.5050   29.7880 C.2     1  UNL1       -0.0208
      3 C         -23.9060   -3.1730   29.1460 C.2     1  UNL1       -0.0042
      4 C         -23.9890   -4.5490   28.8530 C.2     1  UNL1       -0.0003
      5 C         -25.1370   -5.2800   29.2050 C.2     1  UNL1       -0.0000
      6 C         -26.2320   -4.6110   29.7840 C.2     1  UNL1       -0.0003
      7 C         -26.1550   -3.2320   30.0650 C.2     1  UNL1       -0.0042
      8 C         -25.3870   -0.6790   31.5710 C.3     1  UNL1        0.0772
      9 C         -25.1890    0.7730   32.0280 C.3     1  UNL1        0.0192
     10 C         -25.3360    0.6840   33.5440 C.3     1  UNL1        0.0202
     11 C         -24.8290   -0.7150   33.9050 C.3     1  UNL1        0.0887
     12 N         -24.7580   -1.4810   32.6460 N.3     1  UNL1       -0.2191
     13 C         -25.6880    1.6140   26.4610 C.2     1  UNL1        0.0406
     14 C         -26.2500    2.9200   26.3950 C.2     1  UNL1        0.0766
     15 C         -25.6420    4.0930   27.1230 C.2     1  UNL1        0.2664
     16 N         -25.6140    5.2520   26.4490 N.am    1  UNL1       -0.1997
     17 C         -25.0260    6.4790   26.9630 C.3     1  UNL1        0.1388
     18 O         -25.1430    3.9660   28.2430 O.2     1  UNL1       -0.2683
     19 C         -27.4380    3.0910   25.6450 C.2     1  UNL1        0.1067
     20 N         -28.0750    2.0890   25.0030 N.2     1  UNL1       -0.2081
     21 C         -27.5430    0.8490   25.0790 C.2     1  UNL1        0.2533
     22 O         -28.1930   -0.2080   24.4770 O.2     1  UNL1       -0.4558
     23 C         -29.4600    0.0050   23.8660 C.3     1  UNL1        0.2426
     24 C         -30.0650   -1.3770   23.5730 C.3     1  UNL1        0.2292
     25 O         -30.7290   -1.8780   24.7210 O.3     1  UNL1       -0.2162
     26 C         -26.3540    0.5760   25.7770 C.2     1  UNL1        0.1931
     27 F         -25.8600   -0.6810   25.7950 F       1  UNL1       -0.1992
     28 C         -26.9223    0.6814   29.3043 C.3     1  UNL1        0.1723
     29 C         -25.2665    0.0461   29.2044 C.3     1  UNL1        0.0625
     30 O         -22.4623   -0.2226   29.4977 O.2     1  UNL1       -0.2883
     31 O         -27.7083    1.5452   30.2928 O.3     1  UNL1       -0.2213
     32 C         -23.2690    1.7107   26.6823 C.2     1  UNL1        0.1560
     33 C         -22.3431    1.1905   27.4771 C.3     1  UNL1        0.2770
     34 C         -24.4449    1.3191   27.2052 C.2     1  UNL1        0.0344
     35 C         -24.3613    0.5494   28.2767 C.2     1  UNL1        0.0210
     36 C         -30.2580   -1.0588   29.1533 C.3     1  UNL1        0.1066
     37 C         -31.1482   -0.7110   27.9691 C.3     1  UNL1        0.1612
     38 C         -22.0429    2.3303   24.6897 C.3     1  UNL1        0.2521
     39 O         -23.1850    2.2673   25.4779 O.2     1  UNL1       -0.4725
     40 C         -27.7275   -0.6362   29.1636 C.3     1  UNL1        0.1076
     41 C         -29.3792    0.7414   27.8893 C.3     1  UNL1        0.2201
     42 O         -30.2705   -0.0121   27.0412 O.3     1  UNL1       -0.3358
     43 C         -23.0002    0.4302   28.5120 C.2     1  UNL1        0.2091
     44 F         -21.0126    1.3637   27.3448 F       1  UNL1       -0.2206
     45 N         -29.1050   -0.1254   29.0358 N.3     1  UNL1       -0.2426
@<TRIPOS>BOND
     1     1    29    1
     2     2     7    1
     3     2     1    1
     4     3     2    2
     5     4     3    1
     6     4     5    2
     7     5     6    1
     8     6     7    2
     9     8     1    1
    10     8     9    1
    11     8    12    1
    12     9    10    1
    13    10    11    1
    14    12    11    1
    15    13    34    1
    16    14    13    1
    17    14    15    1
    18    15    18    2
    19    16    17    1
    20    16    15    1
    21    19    14    2
    22    20    21    2
    23    20    19    1
    24    21    26    1
    25    22    21    1
    26    23    22    1
    27    24    23    1
    28    24    25    1
    29    26    27    1
    30    26    13    2
    31    28    31    1
    32    29    28    1
    33    32    34    2
    34    32    33    1
    35    33    44    1
    36    33    43    1
    37    34    35    1
    38    35    43    2
    39    35    29    1
    40    37    36    1
    41    38    39    1
    42    39    32    1
    43    40    28    1
    44    41    45    1
    45    42    41    1
    46    42    37    1
    47    43    30    1
    48    45    36    1
    49    45    40    1
