@<TRIPOS>MOLECULE
outputs/IAG933/test6/raw/output_9839_IAG933_linker_design_.xyz
 45 49 0 0 0
SMALL
GASTEIGER

@<TRIPOS>ATOM
      1 C         -24.8550   -1.0120   30.1430 C.3     1  UNL1        0.0584
      2 C         -24.9730   -2.5050   29.7880 C.2     1  UNL1       -0.0195
      3 C         -23.9060   -3.1730   29.1460 C.2     1  UNL1       -0.0042
      4 C         -23.9890   -4.5490   28.8530 C.2     1  UNL1       -0.0003
      5 C         -25.1370   -5.2800   29.2050 C.2     1  UNL1       -0.0000
      6 C         -26.2320   -4.6110   29.7840 C.2     1  UNL1       -0.0003
      7 C         -26.1550   -3.2320   30.0650 C.2     1  UNL1       -0.0042
      8 C         -25.3870   -0.6790   31.5710 C.3     1  UNL1        0.0785
      9 C         -25.1890    0.7730   32.0280 C.3     1  UNL1        0.0192
     10 C         -25.3360    0.6840   33.5440 C.3     1  UNL1        0.0202
     11 C         -24.8290   -0.7150   33.9050 C.3     1  UNL1        0.0887
     12 N         -24.7580   -1.4810   32.6460 N.3     1  UNL1       -0.2191
     13 C         -25.6880    1.6140   26.4610 C.2     1  UNL1        0.0532
     14 C         -26.2500    2.9200   26.3950 C.2     1  UNL1        0.0778
     15 C         -25.6420    4.0930   27.1230 C.2     1  UNL1        0.2665
     16 N         -25.6140    5.2520   26.4490 N.am    1  UNL1       -0.1997
     17 C         -25.0260    6.4790   26.9630 C.3     1  UNL1        0.1388
     18 O         -25.1430    3.9660   28.2430 O.2     1  UNL1       -0.2683
     19 C         -27.4380    3.0910   25.6450 C.2     1  UNL1        0.1068
     20 N         -28.0750    2.0890   25.0030 N.2     1  UNL1       -0.2081
     21 C         -27.5430    0.8490   25.0790 C.2     1  UNL1        0.2533
     22 O         -28.1930   -0.2080   24.4770 O.2     1  UNL1       -0.4558
     23 C         -29.4600    0.0050   23.8660 C.3     1  UNL1        0.2426
     24 C         -30.0650   -1.3770   23.5730 C.3     1  UNL1        0.2292
     25 O         -30.7290   -1.8780   24.7210 O.3     1  UNL1       -0.2162
     26 C         -26.3540    0.5760   25.7770 C.2     1  UNL1        0.1943
     27 F         -25.8600   -0.6810   25.7950 F       1  UNL1       -0.1992
     28 C         -29.8728   -0.0048   30.0239 C.3     1  UNL1        0.0804
     29 N         -22.9834    0.5108   28.6407 N.2     1  UNL1       -0.1824
     30 N         -30.5699   -2.3962   30.8904 N.3     1  UNL1       -0.2724
     31 C         -24.3379    1.1406   27.0350 C.2     1  UNL1        0.0727
     32 C         -30.7514   -1.3834   33.1078 C.3     1  UNL1        0.0187
     33 C         -29.0040    0.0727   28.8556 C.2     1  UNL1        0.1521
     34 C         -31.1836   -2.5542   32.2279 C.3     1  UNL1        0.0721
     35 O         -29.0848   -0.5497   27.8036 O.2     1  UNL1       -0.2960
     36 N         -24.2582    0.4234   28.2606 N.pl3   1  UNL1       -0.2130
     37 C         -20.7698    1.3837   27.7501 C.3     1  UNL1        0.0538
     38 C         -27.8995    1.1501   28.9855 C.3     1  UNL1        0.0663
     39 C         -29.5535   -1.2720   30.8817 C.3     1  UNL1        0.0649
     40 C         -23.0708    1.6811   26.7377 C.2     1  UNL1        0.0326
     41 C         -31.5380   -2.3782   29.7867 C.3     1  UNL1        0.0896
     42 C         -22.2911    1.4095   27.7771 C.2     1  UNL1        0.0781
     43 C         -26.4511    0.8329   29.4753 C.3     1  UNL1        0.0299
     44 C         -29.5305   -0.8005   32.3729 C.3     1  UNL1        0.0178
     45 C         -25.4234   -0.1911   28.9283 C.3     1  UNL1        0.1020
@<TRIPOS>BOND
     1     1    45    1
     2     2     7    1
     3     2     1    1
     4     3     2    2
     5     4     3    1
     6     4     5    2
     7     5     6    1
     8     6     7    2
     9     8     1    1
    10     8     9    1
    11     8    12    1
    12     9    10    1
    13    10    11    1
    14    12    11    1
    15    13    31    1
    16    14    13    1
    17    14    15    1
    18    15    18    2
    19    16    17    1
    20    16    15    1
    21    19    14    2
    22    20    21    2
    23    20    19    1
    24    21    26    1
    25    22    21    1
    26    23    22    1
    27    24    23    1
    28    24    25    1
    29    26    27    1
    30    26    13    2
    31    30    34    1
    32    31    36    1
    33    33    38    1
    34    33    28    1
    35    34    32    1
    36    35    33    2
    37    36    29    1
    38    36    45    1
    39    37    42    1
    40    38    43    1
    41    39    28    1
    42    39    30    1
    43    39    44    1
    44    40    31    2
    45    40    42    1
    46    41    30    1
    47    42    29    2
    48    44    32    1
    49    45    43    1
