@<TRIPOS>MOLECULE
No_984-gen_results/8p0m/2024-11-27-11-27-31/
 16 17 0 0 0
SMALL
GASTEIGER

@<TRIPOS>ATOM
      1 C         -28.0162   -0.8135   28.8779 C.ar    1  UNL1        0.0027
      2 C         -27.0636   -0.1189   28.6079 C.ar    1  UNL1        0.0001
      3 C         -25.7923   -0.4302   29.0761 C.ar    1  UNL1        0.0000
      4 C         -24.5456    0.3494   28.8225 C.ar    1  UNL1        0.0000
      5 C         -23.2409    0.0217   29.3323 C.ar    1  UNL1        0.0000
      6 C         -27.8820   -1.8995   29.8633 C.ar    1  UNL1        0.0288
      7 C         -26.6706   -2.3272   30.3212 C.ar    1  UNL1        0.0027
      8 C         -25.5433   -1.5852   29.9316 C.ar    1  UNL1        0.0001
      9 C         -22.1884    0.8224   28.9928 C.ar    1  UNL1        0.0000
     10 C         -22.1616    1.7773   28.0238 C.ar    1  UNL1        0.0000
     11 C         -24.6435    1.5915   28.0732 C.ar    1  UNL1        0.0000
     12 C         -23.4377    2.1983   27.6129 C.ar    1  UNL1        0.0000
     13 P         -29.3088   -2.8677   30.4017 P.3     1  UNL1        0.1395
     14 O         -29.4065   -2.8111   31.9195 O.3     1  UNL1       -0.3542
     15 O         -28.9943   -4.3041   30.0915 O.3     1  UNL1       -0.3542
     16 O         -30.5229   -2.4381   29.7651 O.2     1  UNL1       -0.4557
@<TRIPOS>BOND
     1     3     4    1
     2     6    13    1
     3    13    14    1
     4    13    15    1
     5    13    16    2
     6     1     2   ar
     7     2     3   ar
     8     3     8   ar
     9     8     7   ar
    10     7     6   ar
    11     6     1   ar
    12     4     5   ar
    13     5     9   ar
    14     9    10   ar
    15    10    12   ar
    16    12    11   ar
    17    11     4   ar
