@<TRIPOS>MOLECULE
outputs/IAG933/test6/raw/output_9842_IAG933_linker_design_.xyz
 46 49 0 0 0
SMALL
GASTEIGER

@<TRIPOS>ATOM
      1 C         -24.8550   -1.0120   30.1430 C.3     1  UNL1        0.1137
      2 C         -24.9730   -2.5050   29.7880 C.2     1  UNL1       -0.0029
      3 C         -23.9060   -3.1730   29.1460 C.2     1  UNL1       -0.0026
      4 C         -23.9890   -4.5490   28.8530 C.2     1  UNL1       -0.0003
      5 C         -25.1370   -5.2800   29.2050 C.2     1  UNL1       -0.0000
      6 C         -26.2320   -4.6110   29.7840 C.2     1  UNL1       -0.0003
      7 C         -26.1550   -3.2320   30.0650 C.2     1  UNL1       -0.0026
      8 C         -25.3870   -0.6790   31.5710 C.3     1  UNL1        0.0951
      9 C         -25.1890    0.7730   32.0280 C.3     1  UNL1        0.0209
     10 C         -25.3360    0.6840   33.5440 C.3     1  UNL1        0.0203
     11 C         -24.8290   -0.7150   33.9050 C.3     1  UNL1        0.0888
     12 N         -24.7580   -1.4810   32.6460 N.3     1  UNL1       -0.2174
     13 C         -25.6880    1.6140   26.4610 C.3     1  UNL1        0.0897
     14 C         -26.2500    2.9200   26.3950 C.2     1  UNL1        0.0565
     15 C         -25.6420    4.0930   27.1230 C.2     1  UNL1        0.2625
     16 N         -25.6140    5.2520   26.4490 N.am    1  UNL1       -0.2000
     17 C         -25.0260    6.4790   26.9630 C.3     1  UNL1        0.1388
     18 O         -25.1430    3.9660   28.2430 O.2     1  UNL1       -0.2687
     19 C         -27.4380    3.0910   25.6450 C.2     1  UNL1        0.1022
     20 N         -28.0750    2.0890   25.0030 N.2     1  UNL1       -0.2119
     21 C         -27.5430    0.8490   25.0790 C.2     1  UNL1        0.2341
     22 O         -28.1930   -0.2080   24.4770 O.2     1  UNL1       -0.4585
     23 C         -29.4600    0.0050   23.8660 C.3     1  UNL1        0.2423
     24 C         -30.0650   -1.3770   23.5730 C.3     1  UNL1        0.2292
     25 O         -30.7290   -1.8780   24.7210 O.3     1  UNL1       -0.2162
     26 C         -26.3540    0.5760   25.7770 C.3     1  UNL1        0.2416
     27 F         -25.8600   -0.6810   25.7950 F       1  UNL1       -0.2268
     28 C         -30.0014    0.6927   28.5550 C.3     1  UNL1        0.0469
     29 O         -31.9425    2.7078   27.9558 O.3     1  UNL1       -0.1916
     30 N         -34.1787    0.0620   28.0558 N.2     1  UNL1       -0.1514
     31 C         -30.8126    2.1840   28.7930 C.3     1  UNL1        0.1578
     32 C         -30.4532    0.4475   27.1667 C.3     1  UNL1        0.0103
     33 C         -31.8444   -0.0470   27.2097 C.3     1  UNL1        0.0491
     34 C         -21.4365    1.3975   27.4057 C.3     1  UNL1        0.0101
     35 C         -28.4949    0.1840   28.5397 C.3     1  UNL1        0.0746
     36 C         -26.3312    1.3687   29.0138 C.3     1  UNL1        0.0926
     37 N         -27.7661    1.4882   29.0440 N.3     1  UNL1       -0.2711
     38 O         -31.7224    3.3169   26.8592 O.3     1  UNL1       -0.0347
     39 C         -29.6839    3.2058   29.0293 C.3     1  UNL1        0.0503
     40 C         -32.9407   -0.0131   28.3531 C.2     1  UNL1        0.0957
     41 C         -28.5142    2.5848   29.7835 C.3     1  UNL1        0.0748
     42 C         -25.3524    0.8817   28.1365 C.3     1  UNL1        0.0989
     43 C         -23.1036    0.0398   29.0189 C.2     1  UNL1        0.2259
     44 O         -22.2154   -0.2706   29.6864 O.2     1  UNL1       -0.2749
     45 C         -22.8259    1.1646   27.9765 C.3     1  UNL1        0.0853
     46 N         -24.4597    0.0100   29.1559 N.am    1  UNL1       -0.2759
@<TRIPOS>BOND
     1     1    46    1
     2     2     7    1
     3     2     1    1
     4     3     2    2
     5     4     3    1
     6     4     5    2
     7     5     6    1
     8     6     7    2
     9     8     1    1
    10     8     9    1
    11     8    12    1
    12     9    10    1
    13    10    11    1
    14    12    11    1
    15    13    42    1
    16    14    13    1
    17    14    15    1
    18    15    18    2
    19    16    17    1
    20    16    15    1
    21    19    14    2
    22    20    21    2
    23    20    19    1
    24    21    26    1
    25    22    21    1
    26    23    22    1
    27    24    23    1
    28    24    25    1
    29    26    27    1
    30    26    13    1
    31    28    32    1
    32    28    31    1
    33    30    40    2
    34    31    29    1
    35    31    39    1
    36    32    33    1
    37    33    40    1
    38    34    45    1
    39    35    28    1
    40    35    37    1
    41    36    37    1
    42    37    41    1
    43    38    29    1
    44    39    41    1
    45    42    36    1
    46    42    46    1
    47    43    46   am
    48    43    44    2
    49    45    43    1
