@<TRIPOS>MOLECULE
outputs/IAG933/test6/raw/output_9845_IAG933_linker_design_.xyz
 42 45 0 0 0
SMALL
GASTEIGER

@<TRIPOS>ATOM
      1 C         -24.8550   -1.0120   30.1430 C.3     1  UNL1        0.1497
      2 C         -24.9730   -2.5050   29.7880 C.2     1  UNL1       -0.0094
      3 C         -23.9060   -3.1730   29.1460 C.2     1  UNL1       -0.0037
      4 C         -23.9890   -4.5490   28.8530 C.2     1  UNL1       -0.0003
      5 C         -25.1370   -5.2800   29.2050 C.2     1  UNL1       -0.0000
      6 C         -26.2320   -4.6110   29.7840 C.2     1  UNL1       -0.0003
      7 C         -26.1550   -3.2320   30.0650 C.2     1  UNL1       -0.0037
      8 C         -25.3870   -0.6790   31.5710 C.3     1  UNL1        0.0887
      9 C         -25.1890    0.7730   32.0280 C.3     1  UNL1        0.0198
     10 C         -25.3360    0.6840   33.5440 C.3     1  UNL1        0.0203
     11 C         -24.8290   -0.7150   33.9050 C.3     1  UNL1        0.0887
     12 N         -24.7580   -1.4810   32.6460 N.3     1  UNL1       -0.2185
     13 C         -25.6880    1.6140   26.4610 C.2     1  UNL1        0.0407
     14 C         -26.2500    2.9200   26.3950 C.2     1  UNL1        0.0744
     15 C         -25.6420    4.0930   27.1230 C.2     1  UNL1        0.2223
     16 N         -25.6140    5.2520   26.4490 N.2     1  UNL1       -0.2356
     17 C         -25.0260    6.4790   26.9630 C.3     1  UNL1        0.1550
     18 O         -25.1430    3.9660   28.2430 O.2     1  UNL1       -0.4531
     19 C         -27.4380    3.0910   25.6450 C.2     1  UNL1        0.1068
     20 N         -28.0750    2.0890   25.0030 N.2     1  UNL1       -0.2081
     21 C         -27.5430    0.8490   25.0790 C.2     1  UNL1        0.2533
     22 O         -28.1930   -0.2080   24.4770 O.2     1  UNL1       -0.4558
     23 C         -29.4600    0.0050   23.8660 C.3     1  UNL1        0.2426
     24 C         -30.0650   -1.3770   23.5730 C.3     1  UNL1        0.2292
     25 O         -30.7290   -1.8780   24.7210 O.3     1  UNL1       -0.2162
     26 C         -26.3540    0.5760   25.7770 C.2     1  UNL1        0.1931
     27 F         -25.8600   -0.6810   25.7950 F       1  UNL1       -0.1992
     28 C         -22.2942    0.6465   28.3403 C.3     1  UNL1        0.4083
     29 C         -23.1005    1.7013   27.9869 C.3     1  UNL1        0.3045
     30 C         -24.1296    1.9181   28.8542 C.2     1  UNL1        0.2284
     31 C         -24.1236   -0.1473   29.4922 C.2     1  UNL1        0.3536
     32 C         -25.2302    3.0518   29.1273 C.3     1  UNL1        0.2634
     33 O         -24.8938    4.8161   31.1266 O.3     1  UNL1       -0.1862
     34 N         -22.8522   -0.3659   29.1186 N.2     1  UNL1       -0.0276
     35 C         -26.2615    4.3563   31.0827 C.3     1  UNL1        0.2222
     36 O         -23.0304    2.1505   26.6755 O.3     1  UNL1       -0.1660
     37 O         -27.5126    2.8788   29.5674 O.3     1  UNL1       -0.2159
     38 N         -24.5609    1.0611   29.5742 N.2     1  UNL1       -0.0409
     39 F         -21.8818    1.8045   25.9863 F       1  UNL1       -0.0463
     40 F         -21.0125    0.6289   27.9948 F       1  UNL1       -0.1761
     41 C         -26.3541    3.2364   30.0119 C.3     1  UNL1        0.2324
     42 O         -23.9591    4.0063   31.7272 O.3     1  UNL1       -0.0346
@<TRIPOS>BOND
     1     1    31    1
     2     2     7    1
     3     2     1    1
     4     3     2    2
     5     4     3    1
     6     4     5    2
     7     5     6    1
     8     6     7    2
     9     8     1    1
    10     8     9    1
    11     8    12    1
    12     9    10    1
    13    10    11    1
    14    12    11    1
    15    14    13    1
    16    14    15    1
    17    15    18    1
    18    16    17    1
    19    16    15    2
    20    19    14    2
    21    20    21    2
    22    20    19    1
    23    21    26    1
    24    22    21    1
    25    23    22    1
    26    24    23    1
    27    24    25    1
    28    26    27    1
    29    26    13    2
    30    28    40    1
    31    28    34    1
    32    29    36    1
    33    29    28    1
    34    29    30    1
    35    30    32    1
    36    30    38    2
    37    31    38    1
    38    32    18    1
    39    32    41    1
    40    33    42    1
    41    34    31    2
    42    35    33    1
    43    39    36    1
    44    41    37    1
    45    41    35    1
