@<TRIPOS>MOLECULE
outputs/IAG933/test6/raw/output_9847_IAG933_linker_design_.xyz
 59 66 0 0 0
SMALL
GASTEIGER

@<TRIPOS>ATOM
      1 C         -24.8550   -1.0120   30.1430 C.3     1  UNL1        0.0437
      2 C         -24.9730   -2.5050   29.7880 C.2     1  UNL1       -0.0208
      3 C         -23.9060   -3.1730   29.1460 C.2     1  UNL1       -0.0042
      4 C         -23.9890   -4.5490   28.8530 C.2     1  UNL1       -0.0003
      5 C         -25.1370   -5.2800   29.2050 C.2     1  UNL1       -0.0000
      6 C         -26.2320   -4.6110   29.7840 C.2     1  UNL1       -0.0003
      7 C         -26.1550   -3.2320   30.0650 C.2     1  UNL1       -0.0042
      8 C         -25.3870   -0.6790   31.5710 C.3     1  UNL1        0.0772
      9 C         -25.1890    0.7730   32.0280 C.3     1  UNL1        0.0203
     10 C         -25.3360    0.6840   33.5440 C.3     1  UNL1        0.0203
     11 C         -24.8290   -0.7150   33.9050 C.3     1  UNL1        0.0887
     12 N         -24.7580   -1.4810   32.6460 N.3     1  UNL1       -0.2191
     13 C         -25.6880    1.6140   26.4610 C.2     1  UNL1        0.0320
     14 C         -26.2500    2.9200   26.3950 C.2     1  UNL1        0.0739
     15 C         -25.6420    4.0930   27.1230 C.2     1  UNL1        0.2662
     16 N         -25.6140    5.2520   26.4490 N.am    1  UNL1       -0.1997
     17 C         -25.0260    6.4790   26.9630 C.3     1  UNL1        0.1388
     18 O         -25.1430    3.9660   28.2430 O.2     1  UNL1       -0.2683
     19 C         -27.4380    3.0910   25.6450 C.2     1  UNL1        0.1065
     20 N         -28.0750    2.0890   25.0030 N.2     1  UNL1       -0.2081
     21 C         -27.5430    0.8490   25.0790 C.2     1  UNL1        0.2530
     22 O         -28.1930   -0.2080   24.4770 O.2     1  UNL1       -0.4558
     23 C         -29.4600    0.0050   23.8660 C.3     1  UNL1        0.2426
     24 C         -30.0650   -1.3770   23.5730 C.3     1  UNL1        0.2292
     25 O         -30.7290   -1.8780   24.7210 O.3     1  UNL1       -0.2162
     26 C         -26.3540    0.5760   25.7770 C.2     1  UNL1        0.1904
     27 F         -25.8600   -0.6810   25.7950 F       1  UNL1       -0.1995
     28 C         -22.3798    0.5104   28.8659 C.3     1  UNL1        0.0494
     29 C         -27.5096    5.6091   34.3992 C.3     1  UNL1        0.0407
     30 C         -25.2647    2.1594   31.5510 C.3     1  UNL1        0.0335
     31 C         -29.6990    2.3966   31.1901 C.2     1  UNL1        0.0031
     32 O         -29.7672    4.9763   33.8339 O.2     1  UNL1       -0.4795
     33 C         -24.7680    7.2414   30.5311 C.3     1  UNL1        0.0001
     34 C         -24.7380    1.3043   27.1861 C.3     1  UNL1        0.1018
     35 C         -25.0820    4.8665   32.3220 C.3     1  UNL1        0.1546
     36 C         -22.1331    1.6134   27.7933 C.3     1  UNL1        0.0750
     37 C         -25.5534    7.2945   31.8386 C.3     1  UNL1        0.0028
     38 C         -27.7358    6.0274   37.1553 C.3     1  UNL1        0.0037
     39 O         -23.8668    2.2667   29.7851 O.3     1  UNL1       -0.3561
     40 O         -23.8370    5.1858   32.5198 O.3     1  UNL1       -0.2231
     41 C         -28.1964    4.4738   32.1012 C.2     1  UNL1        0.0116
     42 C         -25.5165    3.4889   31.8606 C.3     1  UNL1        0.0600
     43 C         -30.0075    3.1244   32.3232 C.2     1  UNL1        0.0366
     44 C         -29.2553    4.2104   32.7699 C.2     1  UNL1        0.1343
     45 C         -27.1593    4.7643   36.8694 C.3     1  UNL1        0.0002
     46 C         -24.5505    3.0504   30.8322 C.3     1  UNL1        0.1178
     47 C         -22.8471    1.2195   30.2182 C.3     1  UNL1        0.1435
     48 C         -26.9297    4.4316   35.3142 C.3     1  UNL1        0.0038
     49 C         -27.9302    3.9301   30.8465 C.2     1  UNL1       -0.0013
     50 C         -26.1731    5.8893   32.0756 C.3     1  UNL1        0.0348
     51 C         -23.0300    2.3242   25.6380 C.3     1  UNL1        0.0899
     52 N         -23.3972    1.9050   26.9352 N.3     1  UNL1       -0.2676
     53 C         -29.0740    6.2244   36.4370 C.3     1  UNL1        0.0435
     54 C         -29.0009    5.7253   34.8957 C.3     1  UNL1        0.1660
     55 C         -25.4453    6.8606   34.2992 C.3     1  UNL1        0.0001
     56 C         -27.3010    5.3122   32.8986 C.3     1  UNL1        0.0311
     57 C         -28.6683    2.8062   30.4353 C.2     1  UNL1       -0.0001
     58 C         -26.8558    7.0221   34.6523 C.3     1  UNL1        0.0038
     59 C         -24.7958    7.6861   33.1339 C.3     1  UNL1        0.0001
@<TRIPOS>BOND
     1     2     7    1
     2     2     1    1
     3     3     2    2
     4     4     3    1
     5     4     5    2
     6     5     6    1
     7     6     7    2
     8     8     1    1
     9     8     9    1
    10     8    12    1
    11     9    10    1
    12    10    11    1
    13    12    11    1
    14    13    34    1
    15    14    13    1
    16    14    15    1
    17    15    18    2
    18    16    17    1
    19    16    15    1
    20    19    14    2
    21    20    21    2
    22    20    19    1
    23    21    26    1
    24    22    21    1
    25    23    22    1
    26    24    23    1
    27    24    25    1
    28    26    27    1
    29    26    13    2
    30    28    47    1
    31    29    58    1
    32    29    54    1
    33    29    48    1
    34    30    42    1
    35    30     9    1
    36    31    43    1
    37    32    54    1
    38    35    40    1
    39    36    28    1
    40    37    33    1
    41    37    50    1
    42    37    59    1
    43    39    47    1
    44    41    44    1
    45    42    35    1
    46    43    44    2
    47    44    32    1
    48    45    38    1
    49    46    39    1
    50    46    30    1
    51    46    42    1
    52    48    45    1
    53    49    41    2
    54    50    35    1
    55    50    56    1
    56    51    52    1
    57    52    34    1
    58    52    36    1
    59    53    38    1
    60    54    53    1
    61    55    58    1
    62    56    41    1
    63    56    29    1
    64    57    49    1
    65    57    31    2
    66    59    55    1
