@<TRIPOS>MOLECULE
No_985-gen_results/8p0m/2024-11-27-11-27-31/
 24 26 0 0 0
SMALL
GASTEIGER

@<TRIPOS>ATOM
      1 C         -28.0162   -0.8135   28.8779 C.ar    1  UNL1       -0.0038
      2 C         -27.0636   -0.1189   28.6079 C.ar    1  UNL1       -0.0181
      3 C         -26.9287    1.1713   29.0083 C.ar    1  UNL1       -0.0080
      4 C         -27.9560    1.7411   29.7840 C.ar    1  UNL1       -0.0177
      5 C         -29.0569   -0.3271   29.7466 C.ar    1  UNL1        0.0039
      6 C         -28.9828    0.9722   30.1516 C.ar    1  UNL1        0.0514
      7 C         -25.8815   -0.6260   27.7945 C.3     1  UNL1        0.0526
      8 C         -24.6972   -1.0572   28.6241 C.ar    1  UNL1       -0.0178
      9 C         -23.5810   -0.2730   28.8246 C.ar    1  UNL1       -0.0039
     10 C         -22.4967   -0.7886   29.5688 C.ar    1  UNL1       -0.0003
     11 C         -24.7363   -2.3397   29.2314 C.ar    1  UNL1       -0.0039
     12 C         -23.6092   -2.8367   29.8761 C.ar    1  UNL1       -0.0003
     13 C         -22.5153   -2.0095   30.0911 C.ar    1  UNL1       -0.0000
     14 C         -30.1355    1.5124   31.0020 C.2     1  UNL1        0.2687
     15 N         -29.8818    2.3593   31.8601 N.am    1  UNL1       -0.1758
     16 O         -31.1380    0.8023   31.0486 O.2     1  UNL1       -0.2680
     17 C         -28.6787    3.1292   32.0772 C.ar    1  UNL1        0.0697
     18 C         -28.6074    4.1579   32.7948 C.ar    1  UNL1        0.0163
     19 C         -27.3496    4.8696   32.8948 C.ar    1  UNL1        0.0013
     20 C         -26.1681    4.4509   32.2163 C.ar    1  UNL1       -0.0002
     21 C         -26.2913    3.2956   31.5313 C.ar    1  UNL1       -0.0030
     22 C         -27.4787    2.6552   31.4586 C.ar    1  UNL1       -0.0065
     23 C         -27.0163    1.2407   32.2423 C.3     1  UNL1        0.0324
     24 C         -28.4444    3.0692   29.0650 C.3     1  UNL1        0.0312
@<TRIPOS>BOND
     1     2     7    1
     2     7     8    1
     3     6    14    1
     4    14    15   am
     5    14    16    2
     6    15    17    1
     7    22    23    1
     8     4    24    1
     9    17    18   ar
    10    18    19   ar
    11    19    20   ar
    12    20    21   ar
    13    21    22   ar
    14    22    17   ar
    15     8     9   ar
    16     9    10   ar
    17    10    13   ar
    18    13    12   ar
    19    12    11   ar
    20    11     8   ar
    21     1     2   ar
    22     2     3   ar
    23     3     4   ar
    24     4     6   ar
    25     6     5   ar
    26     5     1   ar
