@<TRIPOS>MOLECULE
outputs/IAG933/test6/raw/output_9862_IAG933_linker_design_.xyz
 45 50 0 0 0
SMALL
GASTEIGER

@<TRIPOS>ATOM
      1 C         -24.8550   -1.0120   30.1430 C.3     1  UNL1        0.0618
      2 C         -24.9730   -2.5050   29.7880 C.2     1  UNL1       -0.0170
      3 C         -23.9060   -3.1730   29.1460 C.2     1  UNL1       -0.0039
      4 C         -23.9890   -4.5490   28.8530 C.2     1  UNL1       -0.0003
      5 C         -25.1370   -5.2800   29.2050 C.2     1  UNL1       -0.0000
      6 C         -26.2320   -4.6110   29.7840 C.2     1  UNL1       -0.0003
      7 C         -26.1550   -3.2320   30.0650 C.2     1  UNL1       -0.0039
      8 C         -25.3870   -0.6790   31.5710 C.3     1  UNL1        0.0809
      9 C         -25.1890    0.7730   32.0280 C.3     1  UNL1        0.0195
     10 C         -25.3360    0.6840   33.5440 C.3     1  UNL1        0.0203
     11 C         -24.8290   -0.7150   33.9050 C.3     1  UNL1        0.0887
     12 N         -24.7580   -1.4810   32.6460 N.3     1  UNL1       -0.2188
     13 C         -25.6880    1.6140   26.4610 C.2     1  UNL1        0.0407
     14 C         -26.2500    2.9200   26.3950 C.2     1  UNL1        0.0744
     15 C         -25.6420    4.0930   27.1230 C.2     1  UNL1        0.2223
     16 N         -25.6140    5.2520   26.4490 N.2     1  UNL1       -0.2356
     17 C         -25.0260    6.4790   26.9630 C.3     1  UNL1        0.1550
     18 O         -25.1430    3.9660   28.2430 O.2     1  UNL1       -0.4552
     19 C         -27.4380    3.0910   25.6450 C.2     1  UNL1        0.1068
     20 N         -28.0750    2.0890   25.0030 N.2     1  UNL1       -0.2081
     21 C         -27.5430    0.8490   25.0790 C.2     1  UNL1        0.2533
     22 O         -28.1930   -0.2080   24.4770 O.2     1  UNL1       -0.4558
     23 C         -29.4600    0.0050   23.8660 C.3     1  UNL1        0.2426
     24 C         -30.0650   -1.3770   23.5730 C.3     1  UNL1        0.2292
     25 O         -30.7290   -1.8780   24.7210 O.3     1  UNL1       -0.2162
     26 C         -26.3540    0.5760   25.7770 C.2     1  UNL1        0.1931
     27 F         -25.8600   -0.6810   25.7950 F       1  UNL1       -0.1992
     28 C         -23.9122   -0.0385   29.5667 C.2     1  UNL1       -0.0017
     29 C         -27.4622    5.2551   32.1316 C.3     1  UNL1        0.3071
     30 C         -27.6489    5.6352   28.9127 C.3     1  UNL1        0.2235
     31 C         -25.4379    3.2894   30.6349 C.2     1  UNL1        0.1064
     32 N         -27.6007    4.7528   30.8343 N.3     1  UNL1       -0.2004
     33 C         -26.7658    3.9357   30.0814 C.2     1  UNL1        0.1223
     34 C         -21.6759    0.2388   28.5510 C.2     1  UNL1        0.0294
     35 N         -25.3264    2.0110   29.7996 N.pl3   1  UNL1       -0.2098
     36 C         -25.2428    4.1464   32.0191 C.2     1  UNL1        0.1145
     37 C         -26.1915    4.8224   29.1644 C.3     1  UNL1        0.2407
     38 O         -28.4982    5.2452   29.9882 O.3     1  UNL1       -0.2501
     39 N         -26.2104    4.9699   32.6347 N.2     1  UNL1       -0.2280
     40 N         -28.3508    5.9948   32.7989 N.3     1  UNL1       -0.0800
     41 F         -21.2592    2.2195   27.3280 F       1  UNL1       -0.2041
     42 C         -22.5969   -0.5061   29.2579 C.2     1  UNL1       -0.0003
     43 C         -23.2718    2.0596   28.5176 C.2     1  UNL1        0.0458
     44 C         -24.1463    1.3245   29.2838 C.2     1  UNL1        0.0692
     45 C         -22.1022    1.5067   28.1318 C.2     1  UNL1        0.1414
@<TRIPOS>BOND
     1     1    28    1
     2     2     7    1
     3     2     1    1
     4     3     2    2
     5     4     3    1
     6     4     5    2
     7     5     6    1
     8     6     7    2
     9     8     1    1
    10     8     9    1
    11     8    12    1
    12     9    10    1
    13    10    11    1
    14    12    11    1
    15    14    13    1
    16    14    15    1
    17    15    18    1
    18    16    17    1
    19    16    15    2
    20    19    14    2
    21    20    21    2
    22    20    19    1
    23    21    26    1
    24    22    21    1
    25    23    22    1
    26    24    23    1
    27    24    25    1
    28    26    27    1
    29    26    13    2
    30    29    39    1
    31    29    40    1
    32    30    37    1
    33    30    38    1
    34    31    36    1
    35    32    29    1
    36    33    31    2
    37    33    32    1
    38    34    42    1
    39    35    31    1
    40    36    39    2
    41    37    18    1
    42    37    33    1
    43    38    32    1
    44    41    45    1
    45    42    28    2
    46    43    44    2
    47    44    28    1
    48    44    35    1
    49    45    43    1
    50    45    34    2
