@<TRIPOS>MOLECULE
outputs/IAG933/test6/raw/output_9868_IAG933_linker_design_.xyz
 43 47 0 0 0
SMALL
GASTEIGER

@<TRIPOS>ATOM
      1 C         -24.8550   -1.0120   30.1430 C.3     1  UNL1        0.0462
      2 C         -24.9730   -2.5050   29.7880 C.2     1  UNL1       -0.0205
      3 C         -23.9060   -3.1730   29.1460 C.2     1  UNL1       -0.0042
      4 C         -23.9890   -4.5490   28.8530 C.2     1  UNL1       -0.0003
      5 C         -25.1370   -5.2800   29.2050 C.2     1  UNL1       -0.0000
      6 C         -26.2320   -4.6110   29.7840 C.2     1  UNL1       -0.0003
      7 C         -26.1550   -3.2320   30.0650 C.2     1  UNL1       -0.0042
      8 C         -25.3870   -0.6790   31.5710 C.3     1  UNL1        0.0774
      9 C         -25.1890    0.7730   32.0280 C.3     1  UNL1        0.0192
     10 C         -25.3360    0.6840   33.5440 C.3     1  UNL1        0.0202
     11 C         -24.8290   -0.7150   33.9050 C.3     1  UNL1        0.0887
     12 N         -24.7580   -1.4810   32.6460 N.3     1  UNL1       -0.2191
     13 C         -25.6880    1.6140   26.4610 C.2     1  UNL1        0.0398
     14 C         -26.2500    2.9200   26.3950 C.2     1  UNL1        0.0766
     15 C         -25.6420    4.0930   27.1230 C.2     1  UNL1        0.2664
     16 N         -25.6140    5.2520   26.4490 N.am    1  UNL1       -0.1997
     17 C         -25.0260    6.4790   26.9630 C.3     1  UNL1        0.1388
     18 O         -25.1430    3.9660   28.2430 O.2     1  UNL1       -0.2683
     19 C         -27.4380    3.0910   25.6450 C.2     1  UNL1        0.1067
     20 N         -28.0750    2.0890   25.0030 N.2     1  UNL1       -0.2081
     21 C         -27.5430    0.8490   25.0790 C.2     1  UNL1        0.2533
     22 O         -28.1930   -0.2080   24.4770 O.2     1  UNL1       -0.4558
     23 C         -29.4600    0.0050   23.8660 C.3     1  UNL1        0.2426
     24 C         -30.0650   -1.3770   23.5730 C.3     1  UNL1        0.2292
     25 O         -30.7290   -1.8780   24.7210 O.3     1  UNL1       -0.2162
     26 C         -26.3540    0.5760   25.7770 C.2     1  UNL1        0.1931
     27 F         -25.8600   -0.6810   25.7950 F       1  UNL1       -0.1992
     28 C         -27.3045    1.4451   29.4626 C.2     1  UNL1       -0.0040
     29 C         -24.1904    0.6205   28.2578 C.2     1  UNL1        0.0175
     30 C         -21.9574    1.8684   25.9881 C.2     1  UNL1        0.0499
     31 C         -27.8668   -0.8796   28.6639 C.2     1  UNL1       -0.0040
     32 C         -29.2651   -0.5775   28.8017 C.2     1  UNL1       -0.0003
     33 F         -22.5806    0.2858   30.0025 F       1  UNL1       -0.2055
     34 C         -22.9365    0.8346   28.8879 C.3     1  UNL1        0.2830
     35 C         -28.7390    1.7197   29.7306 C.2     1  UNL1       -0.0003
     36 C         -24.3548    1.1238   26.9310 C.2     1  UNL1        0.0269
     37 N         -21.7954    1.6017   28.4887 N.2     1  UNL1       -0.2336
     38 C         -23.3139    1.4202   25.8179 C.2     1  UNL1        0.1412
     39 C         -29.7055    0.7219   29.3587 C.2     1  UNL1       -0.0000
     40 C         -26.8058    0.1369   29.0464 C.2     1  UNL1       -0.0182
     41 C         -25.2886   -0.0994   29.0771 C.3     1  UNL1        0.0505
     42 C         -21.2909    1.9737   27.2076 C.2     1  UNL1        0.0987
     43 F         -23.6536    1.1971   24.5676 F       1  UNL1       -0.2041
@<TRIPOS>BOND
     1     1    41    1
     2     2     7    1
     3     2     1    1
     4     3     2    2
     5     4     3    1
     6     4     5    2
     7     5     6    1
     8     6     7    2
     9     8     1    1
    10     8     9    1
    11     8    12    1
    12     9    10    1
    13    10    11    1
    14    12    11    1
    15    13    36    1
    16    14    13    1
    17    14    15    1
    18    15    18    2
    19    16    17    1
    20    16    15    1
    21    19    14    2
    22    20    21    2
    23    20    19    1
    24    21    26    1
    25    22    21    1
    26    23    22    1
    27    24    23    1
    28    24    25    1
    29    26    27    1
    30    26    13    2
    31    28    35    1
    32    29    34    1
    33    30    42    1
    34    31    32    2
    35    31    40    1
    36    32    39    1
    37    34    33    1
    38    36    29    2
    39    37    34    1
    40    38    30    2
    41    38    36    1
    42    39    35    2
    43    40    41    1
    44    40    28    2
    45    41    29    1
    46    42    37    2
    47    43    38    1
