@<TRIPOS>MOLECULE
outputs/IAG933/test6/raw/output_9877_IAG933_linker_design_.xyz
 45 48 0 0 0
SMALL
GASTEIGER

@<TRIPOS>ATOM
      1 C         -24.8550   -1.0120   30.1430 C.3     1  UNL1        0.0497
      2 C         -24.9730   -2.5050   29.7880 C.2     1  UNL1       -0.0206
      3 C         -23.9060   -3.1730   29.1460 C.2     1  UNL1       -0.0042
      4 C         -23.9890   -4.5490   28.8530 C.2     1  UNL1       -0.0003
      5 C         -25.1370   -5.2800   29.2050 C.2     1  UNL1       -0.0000
      6 C         -26.2320   -4.6110   29.7840 C.2     1  UNL1       -0.0003
      7 C         -26.1550   -3.2320   30.0650 C.2     1  UNL1       -0.0042
      8 C         -25.3870   -0.6790   31.5710 C.3     1  UNL1        0.0774
      9 C         -25.1890    0.7730   32.0280 C.3     1  UNL1        0.0192
     10 C         -25.3360    0.6840   33.5440 C.3     1  UNL1        0.0202
     11 C         -24.8290   -0.7150   33.9050 C.3     1  UNL1        0.0887
     12 N         -24.7580   -1.4810   32.6460 N.3     1  UNL1       -0.2191
     13 C         -25.6880    1.6140   26.4610 C.3     1  UNL1        0.0747
     14 C         -26.2500    2.9200   26.3950 C.2     1  UNL1        0.0551
     15 C         -25.6420    4.0930   27.1230 C.2     1  UNL1        0.2624
     16 N         -25.6140    5.2520   26.4490 N.am    1  UNL1       -0.2000
     17 C         -25.0260    6.4790   26.9630 C.3     1  UNL1        0.1388
     18 O         -25.1430    3.9660   28.2430 O.2     1  UNL1       -0.2687
     19 C         -27.4380    3.0910   25.6450 C.2     1  UNL1        0.1021
     20 N         -28.0750    2.0890   25.0030 N.2     1  UNL1       -0.2119
     21 C         -27.5430    0.8490   25.0790 C.2     1  UNL1        0.2341
     22 O         -28.1930   -0.2080   24.4770 O.2     1  UNL1       -0.4585
     23 C         -29.4600    0.0050   23.8660 C.3     1  UNL1        0.2423
     24 C         -30.0650   -1.3770   23.5730 C.3     1  UNL1        0.2292
     25 O         -30.7290   -1.8780   24.7210 O.3     1  UNL1       -0.2162
     26 C         -26.3540    0.5760   25.7770 C.3     1  UNL1        0.2403
     27 F         -25.8600   -0.6810   25.7950 F       1  UNL1       -0.2269
     28 C         -28.4489    4.1940   30.4250 C.3     1  UNL1        0.3066
     29 O         -27.4370    6.1842   30.9558 O.3     1  UNL1       -0.2167
     30 F         -29.1538    4.1567   31.5588 F       1  UNL1       -0.2209
     31 C         -23.2709    0.5127   28.7490 C.2     1  UNL1       -0.0046
     32 C         -22.9816    2.5695   25.8787 C.3     1  UNL1        0.0307
     33 N         -27.1633    2.1337   29.6419 N.am    1  UNL1        0.0343
     34 N         -26.1094    3.8050   30.8155 N.2     1  UNL1        0.1955
     35 C         -21.5019    1.5003   27.5087 C.2     1  UNL1       -0.0046
     36 C         -22.3240    0.0870   29.2758 C.2     1  UNL1       -0.0003
     37 C         -25.1941    1.0065   27.6423 C.3     1  UNL1        0.0408
     38 C         -27.0911    0.7949   29.0763 C.2     1  UNL1        0.3524
     39 C         -28.2469    5.6295   29.9708 C.3     1  UNL1        0.2302
     40 O         -28.0209    0.2449   28.6191 O.2     1  UNL1       -0.2429
     41 C         -27.3282    3.3905   30.3834 C.2     1  UNL1        0.4321
     42 C         -22.7990    1.7552   27.1277 C.2     1  UNL1       -0.0258
     43 C         -23.8388    1.1773   27.8314 C.2     1  UNL1       -0.0255
     44 C         -21.4262    0.6737   28.5814 C.2     1  UNL1       -0.0003
     45 C         -25.7531   -0.0687   29.1896 C.3     1  UNL1        0.1154
@<TRIPOS>BOND
     1     1    45    1
     2     2     7    1
     3     2     1    1
     4     3     2    2
     5     4     3    1
     6     4     5    2
     7     5     6    1
     8     6     7    2
     9     8     1    1
    10     8     9    1
    11     8    12    1
    12     9    10    1
    13    10    11    1
    14    12    11    1
    15    13    37    1
    16    14    13    1
    17    14    15    1
    18    15    18    2
    19    16    17    1
    20    16    15    1
    21    19    14    2
    22    20    21    2
    23    20    19    1
    24    21    26    1
    25    22    21    1
    26    23    22    1
    27    24    23    1
    28    24    25    1
    29    26    27    1
    30    26    13    1
    31    28    30    1
    32    31    36    1
    33    32    42    1
    34    33    41    1
    35    35    44    1
    36    37    43    1
    37    37    45    1
    38    38    33    1
    39    39    28    1
    40    39    29    1
    41    40    38    2
    42    41    28    1
    43    41    34    2
    44    42    35    2
    45    42    43    1
    46    43    31    2
    47    44    36    2
    48    45    38    1
