@<TRIPOS>MOLECULE
outputs/IAG933/test6/raw/output_988_IAG933_linker_design_.xyz
 39 42 0 0 0
SMALL
GASTEIGER

@<TRIPOS>ATOM
      1 C         -24.8550   -1.0120   30.1430 C.3     1  UNL1        0.1164
      2 C         -24.9730   -2.5050   29.7880 C.2     1  UNL1       -0.0028
      3 C         -23.9060   -3.1730   29.1460 C.2     1  UNL1       -0.0026
      4 C         -23.9890   -4.5490   28.8530 C.2     1  UNL1       -0.0003
      5 C         -25.1370   -5.2800   29.2050 C.2     1  UNL1       -0.0000
      6 C         -26.2320   -4.6110   29.7840 C.2     1  UNL1       -0.0003
      7 C         -26.1550   -3.2320   30.0650 C.2     1  UNL1       -0.0026
      8 C         -25.3870   -0.6790   31.5710 C.3     1  UNL1        0.0952
      9 C         -25.1890    0.7730   32.0280 C.3     1  UNL1        0.0209
     10 C         -25.3360    0.6840   33.5440 C.3     1  UNL1        0.0203
     11 C         -24.8290   -0.7150   33.9050 C.3     1  UNL1        0.0888
     12 N         -24.7580   -1.4810   32.6460 N.3     1  UNL1       -0.2174
     13 C         -25.6880    1.6140   26.4610 C.3     1  UNL1        0.1269
     14 C         -26.2500    2.9200   26.3950 C.2     1  UNL1        0.0620
     15 C         -25.6420    4.0930   27.1230 C.2     1  UNL1        0.2629
     16 N         -25.6140    5.2520   26.4490 N.am    1  UNL1       -0.2000
     17 C         -25.0260    6.4790   26.9630 C.3     1  UNL1        0.1388
     18 O         -25.1430    3.9660   28.2430 O.2     1  UNL1       -0.2686
     19 C         -27.4380    3.0910   25.6450 C.2     1  UNL1        0.1026
     20 N         -28.0750    2.0890   25.0030 N.2     1  UNL1       -0.2118
     21 C         -27.5430    0.8490   25.0790 C.2     1  UNL1        0.2345
     22 O         -28.1930   -0.2080   24.4770 O.2     1  UNL1       -0.4585
     23 C         -29.4600    0.0050   23.8660 C.3     1  UNL1        0.2423
     24 C         -30.0650   -1.3770   23.5730 C.3     1  UNL1        0.2292
     25 O         -30.7290   -1.8780   24.7210 O.3     1  UNL1       -0.2162
     26 C         -26.3540    0.5760   25.7770 C.3     1  UNL1        0.2471
     27 F         -25.8600   -0.6810   25.7950 F       1  UNL1       -0.2264
     28 C         -23.7041    0.7477   28.9822 C.2     1  UNL1        0.2559
     29 C         -25.8226    0.1511   28.9326 C.3     1  UNL1        0.2808
     30 O         -23.7634    1.7269   25.3185 O.2     1  UNL1       -0.4742
     31 O         -26.7941   -0.4901   28.3040 O.3     1  UNL1       -0.1958
     32 C         -23.3274    1.1985   27.6315 C.2     1  UNL1        0.1109
     33 C         -22.5233    2.0560   25.1304 C.3     1  UNL1        0.2336
     34 C         -21.6046    1.9757   26.0802 C.2     1  UNL1        0.0505
     35 F         -20.9614    1.2664   28.1695 F       1  UNL1       -0.2041
     36 C         -21.9660    1.4645   27.3160 C.2     1  UNL1        0.1464
     37 O         -23.0454    1.1419   29.9463 O.2     1  UNL1       -0.2697
     38 C         -24.2045    1.4526   26.5722 C.2     1  UNL1        0.1300
     39 N         -24.7712   -0.0704   29.2538 N.am    1  UNL1       -0.2445
@<TRIPOS>BOND
     1     1    39    1
     2     2     7    1
     3     2     1    1
     4     3     2    2
     5     4     3    1
     6     4     5    2
     7     5     6    1
     8     6     7    2
     9     8     1    1
    10     8     9    1
    11     8    12    1
    12     9    10    1
    13    10    11    1
    14    12    11    1
    15    13    38    1
    16    14    13    1
    17    14    15    1
    18    15    18    2
    19    16    17    1
    20    16    15    1
    21    19    14    2
    22    20    21    2
    23    20    19    1
    24    21    26    1
    25    22    21    1
    26    23    22    1
    27    24    23    1
    28    24    25    1
    29    26    27    1
    30    26    13    1
    31    28    39   am
    32    28    37    2
    33    29    39    1
    34    30    38    1
    35    31    29    1
    36    32    28    1
    37    33    30    1
    38    33    34    1
    39    34    36    2
    40    36    32    1
    41    36    35    1
    42    38    32    2
