@<TRIPOS>MOLECULE
outputs/IAG933/test6/raw/output_9880_IAG933_linker_design_.xyz
 43 46 0 0 0
SMALL
GASTEIGER

@<TRIPOS>ATOM
      1 C         -24.8550   -1.0120   30.1430 C.3     1  UNL1        0.0641
      2 C         -24.9730   -2.5050   29.7880 C.2     1  UNL1       -0.0169
      3 C         -23.9060   -3.1730   29.1460 C.2     1  UNL1       -0.0039
      4 C         -23.9890   -4.5490   28.8530 C.2     1  UNL1       -0.0003
      5 C         -25.1370   -5.2800   29.2050 C.2     1  UNL1       -0.0000
      6 C         -26.2320   -4.6110   29.7840 C.2     1  UNL1       -0.0003
      7 C         -26.1550   -3.2320   30.0650 C.2     1  UNL1       -0.0039
      8 C         -25.3870   -0.6790   31.5710 C.3     1  UNL1        0.0810
      9 C         -25.1890    0.7730   32.0280 C.3     1  UNL1        0.0195
     10 C         -25.3360    0.6840   33.5440 C.3     1  UNL1        0.0203
     11 C         -24.8290   -0.7150   33.9050 C.3     1  UNL1        0.0887
     12 N         -24.7580   -1.4810   32.6460 N.3     1  UNL1       -0.2188
     13 C         -25.6880    1.6140   26.4610 C.3     1  UNL1        0.0944
     14 C         -26.2500    2.9200   26.3950 C.2     1  UNL1        0.0590
     15 C         -25.6420    4.0930   27.1230 C.2     1  UNL1        0.2628
     16 N         -25.6140    5.2520   26.4490 N.am    1  UNL1       -0.2000
     17 C         -25.0260    6.4790   26.9630 C.3     1  UNL1        0.1388
     18 O         -25.1430    3.9660   28.2430 O.2     1  UNL1       -0.2686
     19 C         -27.4380    3.0910   25.6450 C.2     1  UNL1        0.1025
     20 N         -28.0750    2.0890   25.0030 N.2     1  UNL1       -0.2118
     21 C         -27.5430    0.8490   25.0790 C.2     1  UNL1        0.2344
     22 O         -28.1930   -0.2080   24.4770 O.2     1  UNL1       -0.4585
     23 C         -29.4600    0.0050   23.8660 C.3     1  UNL1        0.2423
     24 C         -30.0650   -1.3770   23.5730 C.3     1  UNL1        0.2292
     25 O         -30.7290   -1.8780   24.7210 O.3     1  UNL1       -0.2162
     26 C         -26.3540    0.5760   25.7770 C.3     1  UNL1        0.2441
     27 F         -25.8600   -0.6810   25.7950 F       1  UNL1       -0.2265
     28 O         -28.3848    1.8554   29.7005 O.2     1  UNL1       -0.2242
     29 C         -25.1750    0.9183   28.7179 C.ar    1  UNL1        0.0725
     30 N         -23.1273    3.1029   25.2183 N.1     1  UNL1       -0.1907
     31 C         -24.2984    0.0828   29.3362 C.ar    1  UNL1        0.0287
     32 C         -22.9555    0.2738   29.0904 C.ar    1  UNL1        0.1763
     33 C         -23.1831    2.3747   26.1016 C.1     1  UNL1        0.1034
     34 N         -26.3025    1.3032   29.3291 N.am    1  UNL1       -0.1430
     35 C         -22.4506    1.0510   28.0187 C.ar    1  UNL1        0.2250
     36 F         -22.0046   -0.2032   29.8149 F       1  UNL1       -0.2011
     37 C         -25.7851    3.5740   31.3077 C.3     1  UNL1        0.2574
     38 C         -23.4815    1.5199   27.2342 C.ar    1  UNL1        0.1065
     39 O         -21.1082    1.1199   27.8656 O.3     1  UNL1       -0.2889
     40 F         -20.4958    2.2530   27.7035 F       1  UNL1        0.0139
     41 C         -24.7957    1.3239   27.4490 C.ar    1  UNL1        0.0130
     42 C         -27.2137    1.9216   30.0914 C.2     1  UNL1        0.4255
     43 O         -26.8672    2.6721   31.1464 O.3     1  UNL1       -0.4292
@<TRIPOS>BOND
     1     1    31    1
     2     2     7    1
     3     2     1    1
     4     3     2    2
     5     4     3    1
     6     4     5    2
     7     5     6    1
     8     6     7    2
     9     8     1    1
    10     8     9    1
    11     8    12    1
    12     9    10    1
    13    10    11    1
    14    12    11    1
    15    13    41    1
    16    14    13    1
    17    14    15    1
    18    15    18    2
    19    16    17    1
    20    16    15    1
    21    19    14    2
    22    20    21    2
    23    20    19    1
    24    21    26    1
    25    22    21    1
    26    23    22    1
    27    24    23    1
    28    24    25    1
    29    26    27    1
    30    26    13    1
    31    28    42    2
    32    29    34    1
    33    29    31   ar
    34    30    33    3
    35    32    31   ar
    36    32    36    1
    37    33    38    1
    38    34    42    1
    39    35    32   ar
    40    38    41   ar
    41    38    35   ar
    42    39    35    1
    43    40    39    1
    44    41    29   ar
    45    42    43    1
    46    43    37    1
