@<TRIPOS>MOLECULE
outputs/IAG933/test6/raw/output_9883_IAG933_linker_design_.xyz
 42 45 0 0 0
SMALL
GASTEIGER

@<TRIPOS>ATOM
      1 C         -24.8550   -1.0120   30.1430 C.3     1  UNL1        0.0619
      2 C         -24.9730   -2.5050   29.7880 C.2     1  UNL1       -0.0170
      3 C         -23.9060   -3.1730   29.1460 C.2     1  UNL1       -0.0039
      4 C         -23.9890   -4.5490   28.8530 C.2     1  UNL1       -0.0003
      5 C         -25.1370   -5.2800   29.2050 C.2     1  UNL1       -0.0000
      6 C         -26.2320   -4.6110   29.7840 C.2     1  UNL1       -0.0003
      7 C         -26.1550   -3.2320   30.0650 C.2     1  UNL1       -0.0039
      8 C         -25.3870   -0.6790   31.5710 C.3     1  UNL1        0.0809
      9 C         -25.1890    0.7730   32.0280 C.3     1  UNL1        0.0195
     10 C         -25.3360    0.6840   33.5440 C.3     1  UNL1        0.0203
     11 C         -24.8290   -0.7150   33.9050 C.3     1  UNL1        0.0887
     12 N         -24.7580   -1.4810   32.6460 N.3     1  UNL1       -0.2188
     13 C         -25.6880    1.6140   26.4610 C.2     1  UNL1        0.0416
     14 C         -26.2500    2.9200   26.3950 C.2     1  UNL1        0.0767
     15 C         -25.6420    4.0930   27.1230 C.2     1  UNL1        0.2664
     16 N         -25.6140    5.2520   26.4490 N.am    1  UNL1       -0.1997
     17 C         -25.0260    6.4790   26.9630 C.3     1  UNL1        0.1388
     18 O         -25.1430    3.9660   28.2430 O.2     1  UNL1       -0.2683
     19 C         -27.4380    3.0910   25.6450 C.2     1  UNL1        0.1067
     20 N         -28.0750    2.0890   25.0030 N.2     1  UNL1       -0.2081
     21 C         -27.5430    0.8490   25.0790 C.2     1  UNL1        0.2533
     22 O         -28.1930   -0.2080   24.4770 O.2     1  UNL1       -0.4558
     23 C         -29.4600    0.0050   23.8660 C.3     1  UNL1        0.2426
     24 C         -30.0650   -1.3770   23.5730 C.3     1  UNL1        0.2292
     25 O         -30.7290   -1.8780   24.7210 O.3     1  UNL1       -0.2162
     26 C         -26.3540    0.5760   25.7770 C.2     1  UNL1        0.1932
     27 F         -25.8600   -0.6810   25.7950 F       1  UNL1       -0.1992
     28 F         -23.0023    2.1261   25.8088 F       1  UNL1       -0.2018
     29 C         -22.4313    0.9758   27.8785 C.2     1  UNL1        0.1672
     30 C         -29.3386    0.8635   29.3151 C.3     1  UNL1        0.1606
     31 C         -28.3303    3.0497   30.1056 C.3     1  UNL1        0.0900
     32 C         -24.6988    1.3548   27.2962 C.2     1  UNL1        0.0473
     33 C         -22.8690    0.1724   28.9651 C.2     1  UNL1        0.0293
     34 C         -30.6011    2.5737   30.8822 C.3     1  UNL1        0.0900
     35 F         -21.0926    1.3766   27.7074 F       1  UNL1       -0.2018
     36 N         -26.7262    1.2441   29.1296 N.am    1  UNL1       -0.1783
     37 C         -23.3590    1.4930   26.9833 C.2     1  UNL1        0.1686
     38 C         -24.3038    0.0480   29.2479 C.2     1  UNL1        0.0006
     39 C         -27.9289    0.4025   28.9177 C.2     1  UNL1        0.2619
     40 C         -25.2869    0.9139   28.5846 C.2     1  UNL1        0.0721
     41 O         -27.6223   -0.6913   28.4490 O.2     1  UNL1       -0.2715
     42 N         -29.3731    2.0091   30.2741 N.3     1  UNL1       -0.2625
@<TRIPOS>BOND
     1     1    38    1
     2     2     7    1
     3     2     1    1
     4     3     2    2
     5     4     3    1
     6     4     5    2
     7     5     6    1
     8     6     7    2
     9     8     1    1
    10     8     9    1
    11     8    12    1
    12     9    10    1
    13    10    11    1
    14    12    11    1
    15    13    32    1
    16    14    13    1
    17    14    15    1
    18    15    18    2
    19    16    17    1
    20    16    15    1
    21    19    14    2
    22    20    21    2
    23    20    19    1
    24    21    26    1
    25    22    21    1
    26    23    22    1
    27    24    23    1
    28    24    25    1
    29    26    27    1
    30    26    13    2
    31    28    37    1
    32    29    33    1
    33    30    42    1
    34    31    42    1
    35    32    40    2
    36    33    38    2
    37    35    29    1
    38    37    32    1
    39    37    29    2
    40    39    36    1
    41    39    30    1
    42    40    36    1
    43    40    38    1
    44    41    39    2
    45    42    34    1
