@<TRIPOS>MOLECULE
outputs/IAG933/test6/raw/output_9884_IAG933_linker_design_.xyz
 40 44 0 0 0
SMALL
GASTEIGER

@<TRIPOS>ATOM
      1 C         -24.8550   -1.0120   30.1430 C.3     1  UNL1        0.1186
      2 C         -24.9730   -2.5050   29.7880 C.2     1  UNL1       -0.0026
      3 C         -23.9060   -3.1730   29.1460 C.2     1  UNL1       -0.0026
      4 C         -23.9890   -4.5490   28.8530 C.2     1  UNL1       -0.0003
      5 C         -25.1370   -5.2800   29.2050 C.2     1  UNL1       -0.0000
      6 C         -26.2320   -4.6110   29.7840 C.2     1  UNL1       -0.0003
      7 C         -26.1550   -3.2320   30.0650 C.2     1  UNL1       -0.0026
      8 C         -25.3870   -0.6790   31.5710 C.3     1  UNL1        0.0955
      9 C         -25.1890    0.7730   32.0280 C.3     1  UNL1        0.0209
     10 C         -25.3360    0.6840   33.5440 C.3     1  UNL1        0.0203
     11 C         -24.8290   -0.7150   33.9050 C.3     1  UNL1        0.0888
     12 N         -24.7580   -1.4810   32.6460 N.3     1  UNL1       -0.2174
     13 C         -25.6880    1.6140   26.4610 C.2     1  UNL1        0.0552
     14 C         -26.2500    2.9200   26.3950 C.2     1  UNL1        0.0780
     15 C         -25.6420    4.0930   27.1230 C.2     1  UNL1        0.2665
     16 N         -25.6140    5.2520   26.4490 N.am    1  UNL1       -0.1997
     17 C         -25.0260    6.4790   26.9630 C.3     1  UNL1        0.1388
     18 O         -25.1430    3.9660   28.2430 O.2     1  UNL1       -0.2683
     19 C         -27.4380    3.0910   25.6450 C.2     1  UNL1        0.1068
     20 N         -28.0750    2.0890   25.0030 N.2     1  UNL1       -0.2081
     21 C         -27.5430    0.8490   25.0790 C.2     1  UNL1        0.2533
     22 O         -28.1930   -0.2080   24.4770 O.2     1  UNL1       -0.4558
     23 C         -29.4600    0.0050   23.8660 C.3     1  UNL1        0.2426
     24 C         -30.0650   -1.3770   23.5730 C.3     1  UNL1        0.2292
     25 O         -30.7290   -1.8780   24.7210 O.3     1  UNL1       -0.2162
     26 C         -26.3540    0.5760   25.7770 C.2     1  UNL1        0.1945
     27 F         -25.8600   -0.6810   25.7950 F       1  UNL1       -0.1992
     28 C         -23.0275    2.6498   25.4207 C.3     1  UNL1        0.3044
     29 N         -21.7306   -0.0872   28.9863 N.2     1  UNL1       -0.2628
     30 N         -23.2627    1.8036   26.6099 N.ar    1  UNL1       -0.2949
     31 C         -24.1056    0.4715   28.1413 C.ar    1  UNL1        0.0892
     32 C         -20.7735    1.3846   27.4699 C.2     1  UNL1        0.0188
     33 C         -26.4481   -0.5794   28.2893 C.2     1  UNL1        0.3073
     34 C         -24.4059    1.2795   27.0089 C.ar    1  UNL1        0.0799
     35 C         -20.5343    0.4124   28.4467 C.3     1  UNL1        0.1532
     36 C         -22.7456    0.4767   28.3242 C.ar    1  UNL1        0.1069
     37 C         -22.2478    1.3611   27.3842 C.ar    1  UNL1        0.0783
     38 F         -21.7132    2.2838   25.0022 F       1  UNL1       -0.2064
     39 O         -27.3749    0.0624   28.5311 O.2     1  UNL1       -0.2646
     40 N         -25.1632   -0.2344   28.9925 N.am    1  UNL1       -0.2450
@<TRIPOS>BOND
     1     1    40    1
     2     2     7    1
     3     2     1    1
     4     3     2    2
     5     4     3    1
     6     4     5    2
     7     5     6    1
     8     6     7    2
     9     8     1    1
    10     8     9    1
    11     8    12    1
    12     9    10    1
    13    10    11    1
    14    12    11    1
    15    13    34    1
    16    14    13    1
    17    14    15    1
    18    15    18    2
    19    16    17    1
    20    16    15    1
    21    19    14    2
    22    20    21    2
    23    20    19    1
    24    21    26    1
    25    22    21    1
    26    23    22    1
    27    24    23    1
    28    24    25    1
    29    26    27    1
    30    26    13    2
    31    28    30    1
    32    30    34   ar
    33    30    37   ar
    34    31    36   ar
    35    31    40    1
    36    32    35    1
    37    33    39    2
    38    33    40   am
    39    34    31   ar
    40    35    29    1
    41    36    29    2
    42    37    32    2
    43    37    36   ar
    44    38    28    1
