@<TRIPOS>MOLECULE
outputs/IAG933/test6/raw/output_9885_IAG933_linker_design_.xyz
 46 50 0 0 0
SMALL
GASTEIGER

@<TRIPOS>ATOM
      1 C         -24.8550   -1.0120   30.1430 C.3     1  UNL1        0.0698
      2 C         -24.9730   -2.5050   29.7880 C.2     1  UNL1       -0.0184
      3 C         -23.9060   -3.1730   29.1460 C.2     1  UNL1       -0.0041
      4 C         -23.9890   -4.5490   28.8530 C.2     1  UNL1       -0.0003
      5 C         -25.1370   -5.2800   29.2050 C.2     1  UNL1       -0.0000
      6 C         -26.2320   -4.6110   29.7840 C.2     1  UNL1       -0.0003
      7 C         -26.1550   -3.2320   30.0650 C.2     1  UNL1       -0.0041
      8 C         -25.3870   -0.6790   31.5710 C.3     1  UNL1        0.0795
      9 C         -25.1890    0.7730   32.0280 C.3     1  UNL1        0.0193
     10 C         -25.3360    0.6840   33.5440 C.3     1  UNL1        0.0202
     11 C         -24.8290   -0.7150   33.9050 C.3     1  UNL1        0.0887
     12 N         -24.7580   -1.4810   32.6460 N.3     1  UNL1       -0.2190
     13 C         -25.6880    1.6140   26.4610 C.2     1  UNL1        0.0380
     14 C         -26.2500    2.9200   26.3950 C.2     1  UNL1        0.0765
     15 C         -25.6420    4.0930   27.1230 C.2     1  UNL1        0.2664
     16 N         -25.6140    5.2520   26.4490 N.am    1  UNL1       -0.1997
     17 C         -25.0260    6.4790   26.9630 C.3     1  UNL1        0.1388
     18 O         -25.1430    3.9660   28.2430 O.2     1  UNL1       -0.2683
     19 C         -27.4380    3.0910   25.6450 C.2     1  UNL1        0.1067
     20 N         -28.0750    2.0890   25.0030 N.2     1  UNL1       -0.2081
     21 C         -27.5430    0.8490   25.0790 C.2     1  UNL1        0.2533
     22 O         -28.1930   -0.2080   24.4770 O.2     1  UNL1       -0.4558
     23 C         -29.4600    0.0050   23.8660 C.3     1  UNL1        0.2426
     24 C         -30.0650   -1.3770   23.5730 C.3     1  UNL1        0.2292
     25 O         -30.7290   -1.8780   24.7210 O.3     1  UNL1       -0.2162
     26 C         -26.3540    0.5760   25.7770 C.2     1  UNL1        0.1930
     27 F         -25.8600   -0.6810   25.7950 F       1  UNL1       -0.1992
     28 C         -22.3403    1.8177   26.0708 C.2     1  UNL1        0.1415
     29 C         -29.3688    3.8432   29.8348 C.3     1  UNL1        0.0035
     30 O         -26.6239   -0.2631   28.6508 O.3     1  UNL1       -0.3420
     31 C         -25.1303   -0.0726   28.8880 C.3     1  UNL1        0.1446
     32 C         -29.6948    1.9892   28.1208 C.3     1  UNL1        0.0935
     33 C         -24.4269    1.3026   26.8342 C.2     1  UNL1        0.0043
     34 C         -29.1920    2.6255   30.7584 C.3     1  UNL1        0.0216
     35 C         -27.8151   -0.8091   29.4405 C.3     1  UNL1        0.2274
     36 C         -28.1261    1.6785   30.1469 C.3     1  UNL1        0.0935
     37 C         -29.3739    3.4685   28.3310 C.3     1  UNL1        0.0216
     38 C         -23.5881    1.7543   25.8539 C.2     1  UNL1        0.0296
     39 C         -22.6761    0.8830   28.1967 C.2     1  UNL1        0.0896
     40 C         -21.8455    1.4247   27.2368 C.2     1  UNL1        0.0474
     41 C         -28.9467   -0.2405   28.7856 C.2     1  UNL1        0.2559
     42 N         -22.0265    0.3970   29.2932 N.pl3   1  UNL1       -0.1282
     43 F         -21.5369    2.3300   24.9909 F       1  UNL1       -0.2041
     44 N         -28.8143    1.1165   28.9162 N.am    1  UNL1       -0.2775
     45 O         -29.8283   -0.8792   28.2957 O.2     1  UNL1       -0.2721
     46 C         -24.0568    0.7629   28.0044 C.2     1  UNL1        0.0219
@<TRIPOS>BOND
     1     1    31    1
     2     2     7    1
     3     2     1    1
     4     3     2    2
     5     4     3    1
     6     4     5    2
     7     5     6    1
     8     6     7    2
     9     8     1    1
    10     8     9    1
    11     8    12    1
    12     9    10    1
    13    10    11    1
    14    12    11    1
    15    13    33    1
    16    14    13    1
    17    14    15    1
    18    15    18    2
    19    16    17    1
    20    16    15    1
    21    19    14    2
    22    20    21    2
    23    20    19    1
    24    21    26    1
    25    22    21    1
    26    23    22    1
    27    24    23    1
    28    24    25    1
    29    26    27    1
    30    26    13    2
    31    28    40    1
    32    29    34    1
    33    30    35    1
    34    31    30    1
    35    32    37    1
    36    32    44    1
    37    33    46    2
    38    36    34    1
    39    37    29    1
    40    38    28    2
    41    38    33    1
    42    39    42    1
    43    40    39    2
    44    41    44   am
    45    41    35    1
    46    43    28    1
    47    44    36    1
    48    45    41    2
    49    46    39    1
    50    46    31    1
