@<TRIPOS>MOLECULE
outputs/IAG933/test6/raw/output_9886_IAG933_linker_design_.xyz
 46 49 0 0 0
SMALL
GASTEIGER

@<TRIPOS>ATOM
      1 C         -24.8550   -1.0120   30.1430 C.3     1  UNL1        0.0438
      2 C         -24.9730   -2.5050   29.7880 C.2     1  UNL1       -0.0208
      3 C         -23.9060   -3.1730   29.1460 C.2     1  UNL1       -0.0042
      4 C         -23.9890   -4.5490   28.8530 C.2     1  UNL1       -0.0003
      5 C         -25.1370   -5.2800   29.2050 C.2     1  UNL1       -0.0000
      6 C         -26.2320   -4.6110   29.7840 C.2     1  UNL1       -0.0003
      7 C         -26.1550   -3.2320   30.0650 C.2     1  UNL1       -0.0042
      8 C         -25.3870   -0.6790   31.5710 C.3     1  UNL1        0.0808
      9 C         -25.1890    0.7730   32.0280 C.3     1  UNL1        0.0644
     10 C         -25.3360    0.6840   33.5440 C.3     1  UNL1        0.0240
     11 C         -24.8290   -0.7150   33.9050 C.3     1  UNL1        0.0888
     12 N         -24.7580   -1.4810   32.6460 N.3     1  UNL1       -0.2190
     13 C         -25.6880    1.6140   26.4610 C.2     1  UNL1        0.1501
     14 C         -26.2500    2.9200   26.3950 C.2     1  UNL1        0.1054
     15 C         -25.6420    4.0930   27.1230 C.2     1  UNL1        0.2690
     16 N         -25.6140    5.2520   26.4490 N.am    1  UNL1       -0.1997
     17 C         -25.0260    6.4790   26.9630 C.3     1  UNL1        0.1388
     18 O         -25.1430    3.9660   28.2430 O.2     1  UNL1       -0.2682
     19 C         -27.4380    3.0910   25.6450 C.2     1  UNL1        0.1094
     20 N         -28.0750    2.0890   25.0030 N.2     1  UNL1       -0.2079
     21 C         -27.5430    0.8490   25.0790 C.2     1  UNL1        0.2560
     22 O         -28.1930   -0.2080   24.4770 O.2     1  UNL1       -0.4558
     23 C         -29.4600    0.0050   23.8660 C.3     1  UNL1        0.2426
     24 C         -30.0650   -1.3770   23.5730 C.3     1  UNL1        0.2292
     25 O         -30.7290   -1.8780   24.7210 O.3     1  UNL1       -0.2162
     26 C         -26.3540    0.5760   25.7770 C.2     1  UNL1        0.2216
     27 F         -25.8600   -0.6810   25.7950 F       1  UNL1       -0.1964
     28 C         -23.3822    5.7860   33.0291 C.3     1  UNL1        0.1959
     29 C         -25.6038    5.5729   31.8471 C.3     1  UNL1        0.1868
     30 N         -24.4230    1.5577   26.9838 N.pl3   1  UNL1       -0.1690
     31 O         -25.9838    6.9175   31.9209 O.3     1  UNL1       -0.2206
     32 C         -22.0425    1.6034   27.0223 C.3     1  UNL1        0.2603
     33 O         -25.8392    6.4385   34.9374 O.co2   1  UNL1       -0.2455
     34 C         -23.2951    1.9349   26.1199 C.3     1  UNL1        0.2192
     35 O         -26.5030    4.4034   34.7778 O.co2   1  UNL1       -0.2455
     36 C         -24.8400    5.1837   33.1485 C.3     1  UNL1        0.1682
     37 O         -24.4822    3.4278   30.8918 O.2     1  UNL1       -0.2698
     38 N         -22.6501    1.3105   28.3383 N.2     1  UNL1       -0.0949
     39 C         -26.9026    4.7548   31.8627 C.3     1  UNL1        0.1486
     40 C         -25.8051    5.3462   34.3868 C.2     1  UNL1        0.3695
     41 C         -25.5168    3.0910   31.2463 C.2     1  UNL1        0.2791
     42 N         -26.5008    3.5466   32.0191 N.am    1  UNL1       -0.1999
     43 N         -24.9659    1.3563   29.3995 N.pl3   1  UNL1       -0.0597
     44 O         -22.4710    4.7824   32.5917 O.3     1  UNL1       -0.2197
     45 C         -25.5873    1.5901   30.7589 C.3     1  UNL1        0.2481
     46 C         -24.0894    1.3578   28.3886 C.cat   1  UNL1        0.4081
@<TRIPOS>BOND
     1     2     7    1
     2     2     1    1
     3     3     2    2
     4     4     3    1
     5     4     5    2
     6     5     6    1
     7     6     7    2
     8     8     1    1
     9     8     9    1
    10     8    12    1
    11     9    45    1
    12     9    10    1
    13    10    11    1
    14    12    11    1
    15    13    30    1
    16    14    13    1
    17    14    15    1
    18    15    18    2
    19    16    17    1
    20    16    15    1
    21    19    14    2
    22    20    21    2
    23    20    19    1
    24    21    26    1
    25    22    21    1
    26    23    22    1
    27    24    23    1
    28    24    25    1
    29    26    27    1
    30    26    13    2
    31    29    39    1
    32    29    31    1
    33    29    36    1
    34    30    46    1
    35    32    38    1
    36    34    30    1
    37    34    32    1
    38    36    28    1
    39    36    40    1
    40    37    41    2
    41    38    46    2
    42    39    42    1
    43    40    35   ar
    44    40    33   ar
    45    41    42    1
    46    44    28    1
    47    45    43    1
    48    45    41    1
    49    46    43    1
