@<TRIPOS>MOLECULE
outputs/IAG933/test6/raw/output_9888_IAG933_linker_design_.xyz
 45 48 0 0 0
SMALL
GASTEIGER

@<TRIPOS>ATOM
      1 C         -24.8550   -1.0120   30.1430 C.3     1  UNL1        0.1136
      2 C         -24.9730   -2.5050   29.7880 C.2     1  UNL1       -0.0050
      3 C         -23.9060   -3.1730   29.1460 C.2     1  UNL1       -0.0029
      4 C         -23.9890   -4.5490   28.8530 C.2     1  UNL1       -0.0003
      5 C         -25.1370   -5.2800   29.2050 C.2     1  UNL1       -0.0000
      6 C         -26.2320   -4.6110   29.7840 C.2     1  UNL1       -0.0003
      7 C         -26.1550   -3.2320   30.0650 C.2     1  UNL1       -0.0029
      8 C         -25.3870   -0.6790   31.5710 C.3     1  UNL1        0.0930
      9 C         -25.1890    0.7730   32.0280 C.3     1  UNL1        0.0206
     10 C         -25.3360    0.6840   33.5440 C.3     1  UNL1        0.0203
     11 C         -24.8290   -0.7150   33.9050 C.3     1  UNL1        0.0888
     12 N         -24.7580   -1.4810   32.6460 N.3     1  UNL1       -0.2177
     13 C         -25.6880    1.6140   26.4610 C.3     1  UNL1        0.0862
     14 C         -26.2500    2.9200   26.3950 C.2     1  UNL1        0.0562
     15 C         -25.6420    4.0930   27.1230 C.2     1  UNL1        0.2625
     16 N         -25.6140    5.2520   26.4490 N.am    1  UNL1       -0.2000
     17 C         -25.0260    6.4790   26.9630 C.3     1  UNL1        0.1388
     18 O         -25.1430    3.9660   28.2430 O.2     1  UNL1       -0.2687
     19 C         -27.4380    3.0910   25.6450 C.2     1  UNL1        0.1022
     20 N         -28.0750    2.0890   25.0030 N.2     1  UNL1       -0.2119
     21 C         -27.5430    0.8490   25.0790 C.2     1  UNL1        0.2341
     22 O         -28.1930   -0.2080   24.4770 O.2     1  UNL1       -0.4585
     23 C         -29.4600    0.0050   23.8660 C.3     1  UNL1        0.2423
     24 C         -30.0650   -1.3770   23.5730 C.3     1  UNL1        0.2292
     25 O         -30.7290   -1.8780   24.7210 O.3     1  UNL1       -0.2162
     26 C         -26.3540    0.5760   25.7770 C.3     1  UNL1        0.2413
     27 F         -25.8600   -0.6810   25.7950 F       1  UNL1       -0.2268
     28 N         -24.9528    1.3051   29.1173 N.3     1  UNL1       -0.0693
     29 N         -33.9769    0.6671   28.7026 N.3     1  UNL1       -0.1314
     30 C         -24.2512    1.3901   26.9056 C.3     1  UNL1        0.0829
     31 N         -25.4751   -0.0382   29.1829 N.3     1  UNL1       -0.1823
     32 C         -29.9621   -1.0156   29.2410 C.3     1  UNL1        0.1423
     33 C         -23.4546    1.4825   25.6491 C.3     1  UNL1        0.0180
     34 C         -22.0616    0.7809   29.1936 C.3     1  UNL1        0.1994
     35 C         -26.8232   -0.3328   28.5556 C.3     1  UNL1        0.1238
     36 N         -23.9049    1.3681   28.1315 N.3     1  UNL1       -0.1887
     37 C         -22.0125    2.0644   25.7652 C.3     1  UNL1        0.0030
     38 C         -33.4733   -0.1596   27.5819 C.3     1  UNL1        0.1094
     39 C         -31.3631   -1.2972   28.6149 C.3     1  UNL1        0.0336
     40 O         -22.3722   -0.3536   28.7452 O.3     1  UNL1       -0.2189
     41 C         -22.4841    1.8599   28.1863 C.3     1  UNL1        0.1083
     42 C         -21.5892    1.5038   27.1818 C.3     1  UNL1        0.0202
     43 C         -27.9674    0.5620   28.9962 C.3     1  UNL1        0.1610
     44 C         -31.9185   -0.1348   27.7614 C.3     1  UNL1        0.0231
     45 O         -29.1900   -0.0111   28.5023 O.3     1  UNL1       -0.3522
@<TRIPOS>BOND
     1     1    31    1
     2     2     7    1
     3     2     1    1
     4     3     2    2
     5     4     3    1
     6     4     5    2
     7     5     6    1
     8     6     7    2
     9     8     1    1
    10     8     9    1
    11     8    12    1
    12     9    10    1
    13    10    11    1
    14    12    11    1
    15    13    14    1
    16    13    30    1
    17    14    15    1
    18    15    18    2
    19    16    17    1
    20    16    15    1
    21    19    14    2
    22    20    21    2
    23    20    19    1
    24    21    26    1
    25    22    21    1
    26    23    22    1
    27    24    23    1
    28    24    25    1
    29    26    27    1
    30    26    13    1
    31    28    31    1
    32    30    33    1
    33    30    36    1
    34    33    37    1
    35    35    43    1
    36    35    31    1
    37    36    41    1
    38    36    28    1
    39    37    42    1
    40    38    44    1
    41    38    29    1
    42    39    32    1
    43    40    34    1
    44    41    34    1
    45    42    41    1
    46    44    39    1
    47    45    43    1
    48    45    32    1
