@<TRIPOS>MOLECULE
No_989-gen_results/8p0m/2024-11-27-11-27-31/
 31 33 0 0 0
SMALL
GASTEIGER

@<TRIPOS>ATOM
      1 C         -28.0162   -0.8135   28.8779 C.ar    1  UNL1        0.0369
      2 C         -27.0636   -0.1189   28.6079 C.ar    1  UNL1        0.0031
      3 C         -25.7923   -0.4302   29.0761 C.ar    1  UNL1        0.0002
      4 C         -25.5756   -1.5654   29.9363 C.ar    1  UNL1        0.0031
      5 C         -26.7354   -2.3004   30.2173 C.ar    1  UNL1        0.0369
      6 C         -27.9184   -1.9537   29.7629 C.ar    1  UNL1        0.1387
      7 O         -29.0001   -2.7012   30.1151 O.3     1  UNL1       -0.4727
      8 C         -24.5290    0.3490   28.7998 C.ar    1  UNL1        0.0000
      9 C         -23.3442    0.0060   29.1658 C.ar    1  UNL1        0.0000
     10 C         -22.1770    0.6792   28.8009 C.ar    1  UNL1        0.0000
     11 C         -22.1905    1.6482   27.8069 C.ar    1  UNL1        0.0000
     12 C         -24.6178    1.3510   27.7309 C.ar    1  UNL1        0.0000
     13 C         -23.4037    2.0339   27.3553 C.ar    1  UNL1        0.0000
     14 C         -30.1228   -2.1341   30.5874 C.3     1  UNL1        0.2393
     15 C         -30.5759   -2.8409   31.6821 C.3     1  UNL1        0.1980
     16 C         -29.7869   -3.6840   32.3598 C.3     1  UNL1        0.0723
     17 O         -31.1466   -1.9118   32.6817 O.3     1  UNL1       -0.2190
     18 C         -30.4333   -4.7787   33.1763 C.3     1  UNL1        0.1849
     19 O         -29.7560   -5.8153   33.1899 O.3     1  UNL1       -0.2203
     20 C         -31.1007   -1.9209   29.5012 C.3     1  UNL1        0.2512
     21 O         -31.2025   -0.7669   29.0121 O.3     1  UNL1       -0.4715
     22 C         -31.8496    0.1998   29.4921 C.ar    1  UNL1        0.1385
     23 C         -32.2150    1.0864   28.6000 C.ar    1  UNL1        0.0369
     24 C         -32.9322    2.1989   29.0887 C.ar    1  UNL1        0.0028
     25 C         -33.1669    2.2079   30.4517 C.ar    1  UNL1       -0.0024
     26 C         -32.7122    1.3064   31.3496 C.ar    1  UNL1        0.0024
     27 C         -32.0160    0.3026   30.8825 C.ar    1  UNL1        0.0343
     28 C         -32.9688    1.5106   32.7901 C.3     1  UNL1        0.1387
     29 N         -32.0166    1.7792   33.5618 N.pl3   1  UNL1       -0.2315
     30 C         -31.0593    2.4735   33.2971 C.2     1  UNL1        0.0805
     31 C         -29.9356    2.6142   34.2478 C.2     1  UNL1        0.0188
@<TRIPOS>BOND
     1     6     7    1
     2     3     8    1
     3     7    14    1
     4    14    15    1
     5    15    16    1
     6    15    17    1
     7    16    18    1
     8    18    19    1
     9    14    20    1
    10    20    21    1
    11    21    22    1
    12    26    28    1
    13    28    29    1
    14    29    30    1
    15    30    31    2
    16     1     2   ar
    17     2     3   ar
    18     3     4   ar
    19     4     5   ar
    20     5     6   ar
    21     6     1   ar
    22    22    23   ar
    23    23    24   ar
    24    24    25   ar
    25    25    26   ar
    26    26    27   ar
    27    27    22   ar
    28     8     9   ar
    29     9    10   ar
    30    10    11   ar
    31    11    13   ar
    32    13    12   ar
    33    12     8   ar
