@<TRIPOS>MOLECULE
outputs/IAG933/test6/raw/output_9890_IAG933_linker_design_.xyz
 40 43 0 0 0
SMALL
GASTEIGER

@<TRIPOS>ATOM
      1 C         -24.8550   -1.0120   30.1430 C.3     1  UNL1        0.0565
      2 C         -24.9730   -2.5050   29.7880 C.2     1  UNL1       -0.0197
      3 C         -23.9060   -3.1730   29.1460 C.2     1  UNL1       -0.0042
      4 C         -23.9890   -4.5490   28.8530 C.2     1  UNL1       -0.0003
      5 C         -25.1370   -5.2800   29.2050 C.2     1  UNL1       -0.0000
      6 C         -26.2320   -4.6110   29.7840 C.2     1  UNL1       -0.0003
      7 C         -26.1550   -3.2320   30.0650 C.2     1  UNL1       -0.0042
      8 C         -25.3870   -0.6790   31.5710 C.3     1  UNL1        0.0782
      9 C         -25.1890    0.7730   32.0280 C.3     1  UNL1        0.0192
     10 C         -25.3360    0.6840   33.5440 C.3     1  UNL1        0.0202
     11 C         -24.8290   -0.7150   33.9050 C.3     1  UNL1        0.0887
     12 N         -24.7580   -1.4810   32.6460 N.3     1  UNL1       -0.2191
     13 C         -25.6880    1.6140   26.4610 C.3     1  UNL1        0.0756
     14 C         -26.2500    2.9200   26.3950 C.2     1  UNL1        0.0552
     15 C         -25.6420    4.0930   27.1230 C.2     1  UNL1        0.2625
     16 N         -25.6140    5.2520   26.4490 N.am    1  UNL1       -0.2000
     17 C         -25.0260    6.4790   26.9630 C.3     1  UNL1        0.1388
     18 O         -25.1430    3.9660   28.2430 O.2     1  UNL1       -0.2687
     19 C         -27.4380    3.0910   25.6450 C.2     1  UNL1        0.1021
     20 N         -28.0750    2.0890   25.0030 N.2     1  UNL1       -0.2119
     21 C         -27.5430    0.8490   25.0790 C.2     1  UNL1        0.2341
     22 O         -28.1930   -0.2080   24.4770 O.2     1  UNL1       -0.4585
     23 C         -29.4600    0.0050   23.8660 C.3     1  UNL1        0.2423
     24 C         -30.0650   -1.3770   23.5730 C.3     1  UNL1        0.2292
     25 O         -30.7290   -1.8780   24.7210 O.3     1  UNL1       -0.2162
     26 C         -26.3540    0.5760   25.7770 C.3     1  UNL1        0.2404
     27 F         -25.8600   -0.6810   25.7950 F       1  UNL1       -0.2269
     28 C         -23.6531    1.0758   27.5292 C.2     1  UNL1       -0.0207
     29 C         -22.0559    2.1697   26.2866 C.2     1  UNL1       -0.0003
     30 C         -23.3109    1.7238   26.3876 C.2     1  UNL1       -0.0042
     31 C         -25.4281   -0.0920   28.9227 C.3     1  UNL1        0.1070
     32 C         -21.4304    1.0615   28.2505 C.2     1  UNL1       -0.0003
     33 O         -28.3643    0.0741   27.7601 O.2     1  UNL1       -0.1561
     34 C         -29.0842    1.4289   29.9137 C.3     1  UNL1        0.1975
     35 C         -22.7087    0.6515   28.4216 C.2     1  UNL1       -0.0042
     36 N         -26.5905    0.5723   29.4918 N.3     1  UNL1       -0.0828
     37 S         -28.1334    0.1350   29.2455 S.O2    1  UNL1        0.0592
     38 O         -28.2600   -1.2170   29.5628 O.2     1  UNL1       -0.1561
     39 C         -25.1009    1.0118   27.7741 C.3     1  UNL1        0.0480
     40 C         -21.1136    1.8644   27.2011 C.2     1  UNL1       -0.0000
@<TRIPOS>BOND
     1     1    31    1
     2     2     7    1
     3     2     1    1
     4     3     2    2
     5     4     3    1
     6     4     5    2
     7     5     6    1
     8     6     7    2
     9     8     1    1
    10     8     9    1
    11     8    12    1
    12     9    10    1
    13    10    11    1
    14    12    11    1
    15    13    39    1
    16    14    13    1
    17    14    15    1
    18    15    18    2
    19    16    17    1
    20    16    15    1
    21    19    14    2
    22    20    21    2
    23    20    19    1
    24    21    26    1
    25    22    21    1
    26    23    22    1
    27    24    23    1
    28    24    25    1
    29    26    27    1
    30    26    13    1
    31    28    39    1
    32    28    35    1
    33    29    30    1
    34    29    40    2
    35    30    28    2
    36    31    36    1
    37    32    35    2
    38    33    37    2
    39    37    36    1
    40    37    38    2
    41    37    34    1
    42    39    31    1
    43    40    32    1
