@<TRIPOS>MOLECULE
outputs/IAG933/test6/raw/output_9893_IAG933_linker_design_.xyz
 45 48 0 0 0
SMALL
GASTEIGER

@<TRIPOS>ATOM
      1 C         -24.8550   -1.0120   30.1430 C.3     1  UNL1        0.0695
      2 C         -24.9730   -2.5050   29.7880 C.2     1  UNL1       -0.0185
      3 C         -23.9060   -3.1730   29.1460 C.2     1  UNL1       -0.0041
      4 C         -23.9890   -4.5490   28.8530 C.2     1  UNL1       -0.0003
      5 C         -25.1370   -5.2800   29.2050 C.2     1  UNL1       -0.0000
      6 C         -26.2320   -4.6110   29.7840 C.2     1  UNL1       -0.0003
      7 C         -26.1550   -3.2320   30.0650 C.2     1  UNL1       -0.0041
      8 C         -25.3870   -0.6790   31.5710 C.3     1  UNL1        0.0795
      9 C         -25.1890    0.7730   32.0280 C.3     1  UNL1        0.0193
     10 C         -25.3360    0.6840   33.5440 C.3     1  UNL1        0.0202
     11 C         -24.8290   -0.7150   33.9050 C.3     1  UNL1        0.0887
     12 N         -24.7580   -1.4810   32.6460 N.3     1  UNL1       -0.2190
     13 C         -25.6880    1.6140   26.4610 C.3     1  UNL1        0.0984
     14 C         -26.2500    2.9200   26.3950 C.2     1  UNL1        0.0594
     15 C         -25.6420    4.0930   27.1230 C.2     1  UNL1        0.2628
     16 N         -25.6140    5.2520   26.4490 N.am    1  UNL1       -0.2000
     17 C         -25.0260    6.4790   26.9630 C.3     1  UNL1        0.1388
     18 O         -25.1430    3.9660   28.2430 O.2     1  UNL1       -0.2686
     19 C         -27.4380    3.0910   25.6450 C.2     1  UNL1        0.1025
     20 N         -28.0750    2.0890   25.0030 N.2     1  UNL1       -0.2118
     21 C         -27.5430    0.8490   25.0790 C.2     1  UNL1        0.2344
     22 O         -28.1930   -0.2080   24.4770 O.2     1  UNL1       -0.4585
     23 C         -29.4600    0.0050   23.8660 C.3     1  UNL1        0.2423
     24 C         -30.0650   -1.3770   23.5730 C.3     1  UNL1        0.2292
     25 O         -30.7290   -1.8780   24.7210 O.3     1  UNL1       -0.2162
     26 C         -26.3540    0.5760   25.7770 C.3     1  UNL1        0.2445
     27 F         -25.8600   -0.6810   25.7950 F       1  UNL1       -0.2265
     28 C         -31.6440    1.8371   29.6464 C.3     1  UNL1        0.0643
     29 C         -30.2061    2.4227   29.9798 C.3     1  UNL1        0.1449
     30 O         -26.6121    0.7373   29.2904 O.3     1  UNL1       -0.3490
     31 S         -23.0537    1.9472   25.8076 S.3     1  UNL1       -0.0554
     32 C         -24.3104    1.4183   26.8694 C.2     1  UNL1        0.0173
     33 C         -23.9166    0.7949   28.2371 C.2     1  UNL1        0.0154
     34 O         -29.9932   -0.5800   27.1023 O.3     1  UNL1       -0.2178
     35 O         -29.2210    1.3829   30.2506 O.3     1  UNL1       -0.3509
     36 C         -22.3727    0.9156   28.5267 C.3     1  UNL1        0.1729
     37 O         -32.4486    0.7816   27.5639 O.3     1  UNL1       -0.3508
     38 C         -30.1424    0.4873   28.1608 C.3     1  UNL1        0.2083
     39 C         -27.8436   -0.2350   28.9326 C.3     1  UNL1        0.1746
     40 C         -25.0900    0.3801   29.4438 C.3     1  UNL1        0.1414
     41 O         -22.2086    0.1411   29.6194 O.3     1  UNL1       -0.2186
     42 C         -31.5472    0.6085   28.6883 C.3     1  UNL1        0.1506
     43 C         -29.2082    0.2715   29.4233 C.3     1  UNL1        0.1773
     44 C         -33.6864    1.5712   27.7407 C.3     1  UNL1        0.1741
     45 C         -21.1803    1.3932   27.6906 C.3     1  UNL1        0.0402
@<TRIPOS>BOND
     1     1    40    1
     2     2     7    1
     3     2     1    1
     4     3     2    2
     5     4     3    1
     6     4     5    2
     7     5     6    1
     8     6     7    2
     9     8     1    1
    10     8     9    1
    11     8    12    1
    12     9    10    1
    13    10    11    1
    14    12    11    1
    15    13    32    1
    16    14    13    1
    17    14    15    1
    18    15    18    2
    19    16    17    1
    20    16    15    1
    21    19    14    2
    22    20    21    2
    23    20    19    1
    24    21    26    1
    25    22    21    1
    26    23    22    1
    27    24    23    1
    28    24    25    1
    29    26    27    1
    30    26    13    1
    31    28    29    1
    32    29    35    1
    33    30    40    1
    34    31    32    1
    35    32    33    2
    36    33    36    1
    37    36    45    1
    38    36    41    1
    39    37    44    1
    40    38    34    1
    41    38    42    1
    42    38    43    1
    43    39    30    1
    44    40    33    1
    45    42    37    1
    46    42    28    1
    47    43    39    1
    48    43    35    1
