@<TRIPOS>MOLECULE
No_99-gen_results/8p0m/2024-11-27-11-27-31/
 18 19 0 0 0
SMALL
GASTEIGER

@<TRIPOS>ATOM
      1 C         -28.0162   -0.8135   28.8779 C.ar    1  UNL1        0.0152
      2 C         -27.0636   -0.1189   28.6079 C.ar    1  UNL1        0.0723
      3 C         -25.7647   -0.3897   29.0360 C.ar    1  UNL1        0.0042
      4 C         -25.5296   -1.5302   29.9014 C.ar    1  UNL1        0.0008
      5 C         -26.6888   -2.2893   30.1810 C.ar    1  UNL1        0.0114
      6 C         -27.8727   -1.9508   29.7373 C.ar    1  UNL1        0.0576
      7 CL        -29.1941   -2.9228   30.2191 Cl      1  UNL1       -0.0823
      8 C         -24.5326    0.4193   28.7249 C.ar    1  UNL1        0.0079
      9 C         -23.3426    0.1084   29.1746 C.ar    1  UNL1        0.0975
     10 C         -23.1956   -1.1870   29.8223 C.ar    1  UNL1        0.0080
     11 C         -24.2588   -1.9382   30.2802 C.ar    1  UNL1        0.0003
     12 C         -22.1176    0.7912   28.7781 C.2     1  UNL1        0.4766
     13 N         -22.2273    2.0098   28.2035 N.pl3   1  UNL1        0.2047
     14 N         -20.9108    0.1366   28.7935 N.pl3   1  UNL1        0.2047
     15 C         -27.1860    1.0720   27.6573 C.3     1  UNL1        0.4186
     16 F         -27.5451    0.6671   26.5432 F       1  UNL1       -0.1659
     17 F         -28.1923    1.8662   28.2331 F       1  UNL1       -0.1659
     18 F         -26.4163    2.0379   27.8400 F       1  UNL1       -0.1659
@<TRIPOS>BOND
     1     6     7    1
     2     9    12    1
     3    12    13    2
     4    12    14    1
     5     2    15    1
     6    15    16    1
     7    15    17    1
     8    15    18    1
     9     1     2   ar
    10     2     3   ar
    11     4     5   ar
    12     5     6   ar
    13     6     1   ar
    14     3     4   ar
    15     4    11   ar
    16    11    10   ar
    17    10     9   ar
    18     9     8   ar
    19     8     3   ar
