@<TRIPOS>MOLECULE
outputs/IAG933/test6/raw/output_9901_IAG933_linker_design_.xyz
 42 45 0 0 0
SMALL
GASTEIGER

@<TRIPOS>ATOM
      1 C         -24.8550   -1.0120   30.1430 C.3     1  UNL1        0.0449
      2 C         -24.9730   -2.5050   29.7880 C.2     1  UNL1       -0.0208
      3 C         -23.9060   -3.1730   29.1460 C.2     1  UNL1       -0.0042
      4 C         -23.9890   -4.5490   28.8530 C.2     1  UNL1       -0.0003
      5 C         -25.1370   -5.2800   29.2050 C.2     1  UNL1       -0.0000
      6 C         -26.2320   -4.6110   29.7840 C.2     1  UNL1       -0.0003
      7 C         -26.1550   -3.2320   30.0650 C.2     1  UNL1       -0.0042
      8 C         -25.3870   -0.6790   31.5710 C.3     1  UNL1        0.0772
      9 C         -25.1890    0.7730   32.0280 C.3     1  UNL1        0.0192
     10 C         -25.3360    0.6840   33.5440 C.3     1  UNL1        0.0202
     11 C         -24.8290   -0.7150   33.9050 C.3     1  UNL1        0.0887
     12 N         -24.7580   -1.4810   32.6460 N.3     1  UNL1       -0.2191
     13 C         -25.6880    1.6140   26.4610 C.3     1  UNL1        0.0761
     14 C         -26.2500    2.9200   26.3950 C.2     1  UNL1        0.0552
     15 C         -25.6420    4.0930   27.1230 C.2     1  UNL1        0.2625
     16 N         -25.6140    5.2520   26.4490 N.am    1  UNL1       -0.2000
     17 C         -25.0260    6.4790   26.9630 C.3     1  UNL1        0.1388
     18 O         -25.1430    3.9660   28.2430 O.2     1  UNL1       -0.2687
     19 C         -27.4380    3.0910   25.6450 C.2     1  UNL1        0.1021
     20 N         -28.0750    2.0890   25.0030 N.2     1  UNL1       -0.2119
     21 C         -27.5430    0.8490   25.0790 C.2     1  UNL1        0.2341
     22 O         -28.1930   -0.2080   24.4770 O.2     1  UNL1       -0.4585
     23 C         -29.4600    0.0050   23.8660 C.3     1  UNL1        0.2423
     24 C         -30.0650   -1.3770   23.5730 C.3     1  UNL1        0.2292
     25 O         -30.7290   -1.8780   24.7210 O.3     1  UNL1       -0.2162
     26 C         -26.3540    0.5760   25.7770 C.3     1  UNL1        0.2404
     27 F         -25.8600   -0.6810   25.7950 F       1  UNL1       -0.2269
     28 C         -29.8935    1.9899   31.3491 C.3     1  UNL1        0.0028
     29 C         -22.7075    0.1903   29.1290 C.2     1  UNL1        0.0009
     30 C         -29.4407    1.0604   30.1607 C.3     1  UNL1        0.0356
     31 F         -20.3596    2.4737   27.4690 F       1  UNL1       -0.1832
     32 C         -23.7574    1.5276   27.5530 C.2     1  UNL1        0.0579
     33 C         -21.5108    0.7890   28.6921 C.2     1  UNL1        0.0493
     34 O         -27.6204    2.9319   29.6190 O.3     1  UNL1       -0.2204
     35 C         -25.2841    0.0233   29.0657 C.3     1  UNL1        0.0618
     36 C         -27.9914    1.4962   29.6370 C.3     1  UNL1        0.1824
     37 O         -28.0567   -0.5345   28.7035 O.3     1  UNL1       -0.2201
     38 C         -26.9863    0.4068   28.9572 C.3     1  UNL1        0.1864
     39 C         -24.5566    1.7138   26.6579 C.3     1  UNL1        0.0534
     40 C         -23.9422    0.6149   28.5681 C.2     1  UNL1       -0.0058
     41 C         -21.5007    1.8818   27.7823 C.2     1  UNL1        0.2220
     42 N         -22.5940    2.3480   27.1328 N.2     1  UNL1       -0.2227
@<TRIPOS>BOND
     1     1    35    1
     2     2     7    1
     3     2     1    1
     4     3     2    2
     5     4     3    1
     6     4     5    2
     7     5     6    1
     8     6     7    2
     9     8     1    1
    10     8     9    1
    11     8    12    1
    12     9    10    1
    13    10    11    1
    14    12    11    1
    15    13    39    1
    16    14    13    1
    17    14    15    1
    18    15    18    2
    19    16    17    1
    20    16    15    1
    21    19    14    2
    22    20    21    2
    23    20    19    1
    24    21    26    1
    25    22    21    1
    26    23    22    1
    27    24    23    1
    28    24    25    1
    29    26    27    1
    30    26    13    1
    31    30    28    1
    32    31    41    1
    33    32    40    1
    34    33    29    1
    35    35    38    1
    36    36    34    1
    37    36    30    1
    38    38    37    1
    39    38    36    1
    40    39    32    1
    41    40    35    1
    42    40    29    2
    43    41    33    2
    44    42    32    2
    45    42    41    1
