@<TRIPOS>MOLECULE
outputs/IAG933/test6/raw/output_9905_IAG933_linker_design_.xyz
 43 46 0 0 0
SMALL
GASTEIGER

@<TRIPOS>ATOM
      1 C         -24.8550   -1.0120   30.1430 C.3     1  UNL1        0.1263
      2 C         -24.9730   -2.5050   29.7880 C.2     1  UNL1       -0.0004
      3 C         -23.9060   -3.1730   29.1460 C.2     1  UNL1       -0.0024
      4 C         -23.9890   -4.5490   28.8530 C.2     1  UNL1       -0.0003
      5 C         -25.1370   -5.2800   29.2050 C.2     1  UNL1       -0.0000
      6 C         -26.2320   -4.6110   29.7840 C.2     1  UNL1       -0.0003
      7 C         -26.1550   -3.2320   30.0650 C.2     1  UNL1       -0.0024
      8 C         -25.3870   -0.6790   31.5710 C.3     1  UNL1        0.0977
      9 C         -25.1890    0.7730   32.0280 C.3     1  UNL1        0.0211
     10 C         -25.3360    0.6840   33.5440 C.3     1  UNL1        0.0203
     11 C         -24.8290   -0.7150   33.9050 C.3     1  UNL1        0.0888
     12 N         -24.7580   -1.4810   32.6460 N.3     1  UNL1       -0.2172
     13 C         -25.6880    1.6140   26.4610 C.3     1  UNL1        0.0960
     14 C         -26.2500    2.9200   26.3950 C.2     1  UNL1        0.0590
     15 C         -25.6420    4.0930   27.1230 C.2     1  UNL1        0.2628
     16 N         -25.6140    5.2520   26.4490 N.am    1  UNL1       -0.2000
     17 C         -25.0260    6.4790   26.9630 C.3     1  UNL1        0.1388
     18 O         -25.1430    3.9660   28.2430 O.2     1  UNL1       -0.2686
     19 C         -27.4380    3.0910   25.6450 C.2     1  UNL1        0.1025
     20 N         -28.0750    2.0890   25.0030 N.2     1  UNL1       -0.2118
     21 C         -27.5430    0.8490   25.0790 C.2     1  UNL1        0.2344
     22 O         -28.1930   -0.2080   24.4770 O.2     1  UNL1       -0.4585
     23 C         -29.4600    0.0050   23.8660 C.3     1  UNL1        0.2423
     24 C         -30.0650   -1.3770   23.5730 C.3     1  UNL1        0.2292
     25 O         -30.7290   -1.8780   24.7210 O.3     1  UNL1       -0.2162
     26 C         -26.3540    0.5760   25.7770 C.3     1  UNL1        0.2441
     27 F         -25.8600   -0.6810   25.7950 F       1  UNL1       -0.2265
     28 C         -29.5849   -0.0663   28.9817 C.3     1  UNL1        0.1417
     29 O         -31.7765   -1.2034   28.9147 O.3     1  UNL1       -0.2198
     30 N         -27.0185   -0.2098   28.9149 N.am    1  UNL1       -0.1622
     31 C         -23.6128    1.2598   27.5783 C.ar    1  UNL1        0.0899
     32 O         -28.8758    1.7600   30.5033 O.3     1  UNL1       -0.2225
     33 N         -24.6730   -0.1261   29.1060 N.ar    1  UNL1       -0.2969
     34 C         -25.0621    1.2555   27.4527 C.ar    1  UNL1        0.0301
     35 O         -28.3692   -1.6366   30.0427 O.2     1  UNL1       -0.2728
     36 C         -28.2105   -0.7035   29.2958 C.2     1  UNL1        0.2515
     37 C         -23.4509    0.4929   28.7406 C.ar    1  UNL1        0.1628
     38 C         -29.6504    1.4130   29.3899 C.3     1  UNL1        0.1633
     39 C         -25.7708    0.3576   28.5908 C.ar    1  UNL1        0.1342
     40 C         -31.1328    1.9632   29.4527 C.3     1  UNL1        0.0361
     41 C         -30.5429   -0.9982   28.2648 C.3     1  UNL1        0.1938
     42 CL        -22.4361    2.0149   26.5952 Cl      1  UNL1       -0.0795
     43 N         -22.2865    0.3600   29.4504 N.pl3   1  UNL1       -0.1080
@<TRIPOS>BOND
     1     1     2    1
     2     2     7    1
     3     3     2    2
     4     4     3    1
     5     4     5    2
     6     5     6    1
     7     6     7    2
     8     8     1    1
     9     8     9    1
    10     8    12    1
    11     9    10    1
    12    10    11    1
    13    12    11    1
    14    13    34    1
    15    14    13    1
    16    14    15    1
    17    15    18    2
    18    16    17    1
    19    16    15    1
    20    19    14    2
    21    20    21    2
    22    20    19    1
    23    21    26    1
    24    22    21    1
    25    23    22    1
    26    24    23    1
    27    24    25    1
    28    26    27    1
    29    26    13    1
    30    28    41    1
    31    28    36    1
    32    28    38    1
    33    30    36    1
    34    31    37   ar
    35    33     1    1
    36    34    31   ar
    37    34    39   ar
    38    36    35    2
    39    37    33   ar
    40    37    43    1
    41    38    40    1
    42    38    32    1
    43    39    30    1
    44    39    33   ar
    45    41    29    1
    46    42    31    1
