@<TRIPOS>MOLECULE
outputs/IAG933/test6/raw/output_9909_IAG933_linker_design_.xyz
 43 48 0 0 0
SMALL
GASTEIGER

@<TRIPOS>ATOM
      1 C         -24.8550   -1.0120   30.1430 C.3     1  UNL1        0.1028
      2 C         -24.9730   -2.5050   29.7880 C.2     1  UNL1       -0.0062
      3 C         -23.9060   -3.1730   29.1460 C.2     1  UNL1       -0.0029
      4 C         -23.9890   -4.5490   28.8530 C.2     1  UNL1       -0.0003
      5 C         -25.1370   -5.2800   29.2050 C.2     1  UNL1       -0.0000
      6 C         -26.2320   -4.6110   29.7840 C.2     1  UNL1       -0.0003
      7 C         -26.1550   -3.2320   30.0650 C.2     1  UNL1       -0.0029
      8 C         -25.3870   -0.6790   31.5710 C.3     1  UNL1        0.0918
      9 C         -25.1890    0.7730   32.0280 C.3     1  UNL1        0.0206
     10 C         -25.3360    0.6840   33.5440 C.3     1  UNL1        0.0203
     11 C         -24.8290   -0.7150   33.9050 C.3     1  UNL1        0.0888
     12 N         -24.7580   -1.4810   32.6460 N.3     1  UNL1       -0.2177
     13 C         -25.6880    1.6140   26.4610 C.2     1  UNL1        0.1189
     14 C         -26.2500    2.9200   26.3950 C.2     1  UNL1        0.0942
     15 C         -25.6420    4.0930   27.1230 C.2     1  UNL1        0.2679
     16 N         -25.6140    5.2520   26.4490 N.am    1  UNL1       -0.1997
     17 C         -25.0260    6.4790   26.9630 C.3     1  UNL1        0.1388
     18 O         -25.1430    3.9660   28.2430 O.2     1  UNL1       -0.2683
     19 C         -27.4380    3.0910   25.6450 C.2     1  UNL1        0.1083
     20 N         -28.0750    2.0890   25.0030 N.2     1  UNL1       -0.2080
     21 C         -27.5430    0.8490   25.0790 C.2     1  UNL1        0.2548
     22 O         -28.1930   -0.2080   24.4770 O.2     1  UNL1       -0.4558
     23 C         -29.4600    0.0050   23.8660 C.3     1  UNL1        0.2426
     24 C         -30.0650   -1.3770   23.5730 C.3     1  UNL1        0.2292
     25 O         -30.7290   -1.8780   24.7210 O.3     1  UNL1       -0.2162
     26 C         -26.3540    0.5760   25.7770 C.2     1  UNL1        0.2105
     27 F         -25.8600   -0.6810   25.7950 F       1  UNL1       -0.1976
     28 F         -19.1608    1.2413   28.8386 F       1  UNL1       -0.1798
     29 O         -22.3000   -1.4895   29.0633 O.3     1  UNL1       -0.2196
     30 O         -21.6819    2.3312   26.1603 O.3     1  UNL1       -0.1662
     31 C         -24.4555    1.2777   29.6330 C.3     1  UNL1        0.2630
     32 C         -20.7015    0.4231   28.7091 C.3     1  UNL1        0.3742
     33 C         -22.6669   -0.0592   29.1936 C.3     1  UNL1        0.2915
     34 C         -21.2157    1.1712   27.9470 C.2     1  UNL1        0.2380
     35 N         -20.9859   -1.0384   28.6075 N.3     1  UNL1       -0.0144
     36 N         -24.7484    1.3430   27.3391 N.2     1  UNL1       -0.2444
     37 O         -21.3344    0.4679   30.0108 O.3     1  UNL1       -0.2724
     38 O         -23.6232    2.0436   30.1514 O.3     1  UNL1       -0.2004
     39 N         -23.9067    0.0108   29.6396 N.3     1  UNL1       -0.1935
     40 C         -22.9366    2.1800   26.1232 C.3     1  UNL1        0.2408
     41 C         -23.4491    1.4619   27.2013 C.2     1  UNL1        0.0982
     42 C         -22.5015    0.8702   27.9412 C.2     1  UNL1        0.1024
     43 O         -20.8100    2.0732   27.0850 O.2     1  UNL1       -0.3308
@<TRIPOS>BOND
     1     1    39    1
     2     2     7    1
     3     2     1    1
     4     3     2    2
     5     4     3    1
     6     4     5    2
     7     5     6    1
     8     6     7    2
     9     8     1    1
    10     8     9    1
    11     8    12    1
    12     9    10    1
    13    10    11    1
    14    12    11    1
    15    13    36    1
    16    14    13    1
    17    14    15    1
    18    15    18    2
    19    16    17    1
    20    16    15    1
    21    19    14    2
    22    20    21    2
    23    20    19    1
    24    21    26    1
    25    22    21    1
    26    23    22    1
    27    24    23    1
    28    24    25    1
    29    26    27    1
    30    26    13    2
    31    29    33    1
    32    30    43    1
    33    31    39    1
    34    31    38    1
    35    32    28    1
    36    32    37    1
    37    33    39    1
    38    33    37    1
    39    34    32    1
    40    35    32    1
    41    35    29    1
    42    40    30    1
    43    40    41    1
    44    41    36    2
    45    41    42    1
    46    42    34    2
    47    42    33    1
    48    43    34    1
