@<TRIPOS>MOLECULE
outputs/IAG933/test6/raw/output_991_IAG933_linker_design_.xyz
 42 46 0 0 0
SMALL
GASTEIGER

@<TRIPOS>ATOM
      1 C         -24.8550   -1.0120   30.1430 C.3     1  UNL1        0.0526
      2 C         -24.9730   -2.5050   29.7880 C.2     1  UNL1       -0.0203
      3 C         -23.9060   -3.1730   29.1460 C.2     1  UNL1       -0.0042
      4 C         -23.9890   -4.5490   28.8530 C.2     1  UNL1       -0.0003
      5 C         -25.1370   -5.2800   29.2050 C.2     1  UNL1       -0.0000
      6 C         -26.2320   -4.6110   29.7840 C.2     1  UNL1       -0.0003
      7 C         -26.1550   -3.2320   30.0650 C.2     1  UNL1       -0.0042
      8 C         -25.3870   -0.6790   31.5710 C.3     1  UNL1        0.0776
      9 C         -25.1890    0.7730   32.0280 C.3     1  UNL1        0.0192
     10 C         -25.3360    0.6840   33.5440 C.3     1  UNL1        0.0202
     11 C         -24.8290   -0.7150   33.9050 C.3     1  UNL1        0.0887
     12 N         -24.7580   -1.4810   32.6460 N.3     1  UNL1       -0.2191
     13 C         -25.6880    1.6140   26.4610 C.2     1  UNL1        0.1044
     14 C         -26.2500    2.9200   26.3950 C.2     1  UNL1        0.0927
     15 C         -25.6420    4.0930   27.1230 C.2     1  UNL1        0.2678
     16 N         -25.6140    5.2520   26.4490 N.am    1  UNL1       -0.1997
     17 C         -25.0260    6.4790   26.9630 C.3     1  UNL1        0.1388
     18 O         -25.1430    3.9660   28.2430 O.2     1  UNL1       -0.2683
     19 C         -27.4380    3.0910   25.6450 C.2     1  UNL1        0.1082
     20 N         -28.0750    2.0890   25.0030 N.2     1  UNL1       -0.2080
     21 C         -27.5430    0.8490   25.0790 C.2     1  UNL1        0.2548
     22 O         -28.1930   -0.2080   24.4770 O.2     1  UNL1       -0.4558
     23 C         -29.4600    0.0050   23.8660 C.3     1  UNL1        0.2426
     24 C         -30.0650   -1.3770   23.5730 C.3     1  UNL1        0.2292
     25 O         -30.7290   -1.8780   24.7210 O.3     1  UNL1       -0.2162
     26 C         -26.3540    0.5760   25.7770 C.2     1  UNL1        0.2091
     27 F         -25.8600   -0.6810   25.7950 F       1  UNL1       -0.1977
     28 C         -25.2129   -0.0425   29.0726 C.3     1  UNL1        0.1238
     29 O         -21.9201    2.5573   25.0033 O.3     1  UNL1        0.0298
     30 C         -21.9578    0.3252   29.0789 C.2     1  UNL1        0.2661
     31 C         -23.4860    1.8832   26.4699 C.ar    1  UNL1        0.2523
     32 C         -21.0093    1.7075   27.4424 C.3     1  UNL1        0.1467
     33 C         -22.4236    1.5935   27.3194 C.ar    1  UNL1        0.0605
     34 O         -27.5142   -0.6716   28.6257 O.2     1  UNL1       -0.2712
     35 C         -26.6563    0.2055   28.9918 C.2     1  UNL1        0.2662
     36 C         -22.9261    0.7928   28.3090 C.ar    1  UNL1        0.0698
     37 N         -20.7526    0.8396   28.3652 N.am    1  UNL1       -0.1966
     38 N         -24.5520    1.3193   27.1503 N.ar    1  UNL1       -0.2761
     39 N         -27.1193    1.3384   29.5672 N.am    1  UNL1       -0.0875
     40 O         -23.3238    2.4461   25.2770 O.3     1  UNL1       -0.2848
     41 C         -24.2969    0.6360   28.2724 C.ar    1  UNL1        0.0573
     42 O         -21.9658   -0.4185   30.1213 O.2     1  UNL1       -0.2683
@<TRIPOS>BOND
     1     1    28    1
     2     2     7    1
     3     2     1    1
     4     3     2    2
     5     4     3    1
     6     4     5    2
     7     5     6    1
     8     6     7    2
     9     8     1    1
    10     8     9    1
    11     8    12    1
    12     9    10    1
    13    10    11    1
    14    12    11    1
    15    13    38    1
    16    14    13    1
    17    14    15    1
    18    15    18    2
    19    16    17    1
    20    16    15    1
    21    19    14    2
    22    20    21    2
    23    20    19    1
    24    21    26    1
    25    22    21    1
    26    23    22    1
    27    24    23    1
    28    24    25    1
    29    26    27    1
    30    26    13    2
    31    28    35    1
    32    29    40    1
    33    30    42    2
    34    31    38   ar
    35    31    33   ar
    36    32    37    1
    37    33    32    1
    38    33    36   ar
    39    34    35    2
    40    35    39    1
    41    36    30    1
    42    37    30    1
    43    38    41   ar
    44    40    31    1
    45    41    36   ar
    46    41    28    1
