@<TRIPOS>MOLECULE
outputs/IAG933/test6/raw/output_9924_IAG933_linker_design_.xyz
 40 44 0 0 0
SMALL
GASTEIGER

@<TRIPOS>ATOM
      1 C         -24.8550   -1.0120   30.1430 C.3     1  UNL1        0.1178
      2 C         -24.9730   -2.5050   29.7880 C.2     1  UNL1       -0.0028
      3 C         -23.9060   -3.1730   29.1460 C.2     1  UNL1       -0.0026
      4 C         -23.9890   -4.5490   28.8530 C.2     1  UNL1       -0.0003
      5 C         -25.1370   -5.2800   29.2050 C.2     1  UNL1       -0.0000
      6 C         -26.2320   -4.6110   29.7840 C.2     1  UNL1       -0.0003
      7 C         -26.1550   -3.2320   30.0650 C.2     1  UNL1       -0.0026
      8 C         -25.3870   -0.6790   31.5710 C.3     1  UNL1        0.0953
      9 C         -25.1890    0.7730   32.0280 C.3     1  UNL1        0.0209
     10 C         -25.3360    0.6840   33.5440 C.3     1  UNL1        0.0203
     11 C         -24.8290   -0.7150   33.9050 C.3     1  UNL1        0.0888
     12 N         -24.7580   -1.4810   32.6460 N.3     1  UNL1       -0.2174
     13 C         -25.6880    1.6140   26.4610 C.2     1  UNL1        0.0760
     14 C         -26.2500    2.9200   26.3950 C.2     1  UNL1        0.0699
     15 C         -25.6420    4.0930   27.1230 C.2     1  UNL1        0.2637
     16 N         -25.6140    5.2520   26.4490 N.am    1  UNL1       -0.2000
     17 C         -25.0260    6.4790   26.9630 C.3     1  UNL1        0.1388
     18 O         -25.1430    3.9660   28.2430 O.2     1  UNL1       -0.2686
     19 C         -27.4380    3.0910   25.6450 C.3     1  UNL1        0.1604
     20 N         -28.0750    2.0890   25.0030 N.2     1  UNL1       -0.2340
     21 C         -27.5430    0.8490   25.0790 C.2     1  UNL1        0.2355
     22 O         -28.1930   -0.2080   24.4770 O.2     1  UNL1       -0.4585
     23 C         -29.4600    0.0050   23.8660 C.3     1  UNL1        0.2423
     24 C         -30.0650   -1.3770   23.5730 C.3     1  UNL1        0.2292
     25 O         -30.7290   -1.8780   24.7210 O.3     1  UNL1       -0.2162
     26 C         -26.3540    0.5760   25.7770 C.3     1  UNL1        0.2711
     27 F         -25.8600   -0.6810   25.7950 F       1  UNL1       -0.2210
     28 O         -26.3663    1.2795   29.1030 O.3     1  UNL1       -0.3191
     29 O         -22.2763   -0.1485   29.7830 O.2     1  UNL1       -0.2696
     30 C         -23.1003    0.3215   29.0044 C.2     1  UNL1        0.2578
     31 C         -27.3672    0.2586   28.8760 C.3     1  UNL1        0.1778
     32 N         -24.8313    1.3183   27.3014 N.pl3   1  UNL1       -0.2459
     33 C         -23.6749    1.5307   26.9146 C.2     1  UNL1        0.1013
     34 O         -21.7815    2.3309   26.0214 O.2     1  UNL1       -0.4323
     35 C         -22.7043    1.1730   27.8035 C.2     1  UNL1        0.1226
     36 C         -21.4995    1.6940   27.2793 C.2     1  UNL1        0.2404
     37 C         -25.2652    0.8195   28.6329 C.3     1  UNL1        0.2859
     38 C         -23.1397    2.2116   25.7866 C.2     1  UNL1        0.1964
     39 N         -20.2968    1.7215   27.8764 N.pl3   1  UNL1       -0.0875
     40 N         -24.3984    0.0464   29.2352 N.am    1  UNL1       -0.2335
@<TRIPOS>BOND
     1     1     2    1
     2     2     7    1
     3     3     2    2
     4     4     3    1
     5     4     5    2
     6     5     6    1
     7     6     7    2
     8     8     1    1
     9     8     9    1
    10     8    12    1
    11     9    10    1
    12    10    11    1
    13    12    11    1
    14    13    32    1
    15    14    13    2
    16    14    15    1
    17    15    18    2
    18    16    17    1
    19    16    15    1
    20    19    14    1
    21    20    21    2
    22    20    19    1
    23    21    26    1
    24    22    21    1
    25    23    22    1
    26    24    23    1
    27    24    25    1
    28    26    27    1
    29    26    13    1
    30    30    40   am
    31    30    29    2
    32    31    28    1
    33    32    37    1
    34    33    32    1
    35    33    35    1
    36    34    36    1
    37    35    30    1
    38    36    35    2
    39    36    39    1
    40    37    28    1
    41    37    40    1
    42    38    34    1
    43    38    33    2
    44    40     1    1
