@<TRIPOS>MOLECULE
outputs/IAG933/test6/raw/output_9926_IAG933_linker_design_.xyz
 43 46 0 0 0
SMALL
GASTEIGER

@<TRIPOS>ATOM
      1 C         -24.8550   -1.0120   30.1430 C.3     1  UNL1        0.0636
      2 C         -24.9730   -2.5050   29.7880 C.2     1  UNL1       -0.0170
      3 C         -23.9060   -3.1730   29.1460 C.2     1  UNL1       -0.0039
      4 C         -23.9890   -4.5490   28.8530 C.2     1  UNL1       -0.0003
      5 C         -25.1370   -5.2800   29.2050 C.2     1  UNL1       -0.0000
      6 C         -26.2320   -4.6110   29.7840 C.2     1  UNL1       -0.0003
      7 C         -26.1550   -3.2320   30.0650 C.2     1  UNL1       -0.0039
      8 C         -25.3870   -0.6790   31.5710 C.3     1  UNL1        0.0809
      9 C         -25.1890    0.7730   32.0280 C.3     1  UNL1        0.0195
     10 C         -25.3360    0.6840   33.5440 C.3     1  UNL1        0.0203
     11 C         -24.8290   -0.7150   33.9050 C.3     1  UNL1        0.0887
     12 N         -24.7580   -1.4810   32.6460 N.3     1  UNL1       -0.2188
     13 C         -25.6880    1.6140   26.4610 C.2     1  UNL1        0.0419
     14 C         -26.2500    2.9200   26.3950 C.2     1  UNL1        0.0767
     15 C         -25.6420    4.0930   27.1230 C.2     1  UNL1        0.2664
     16 N         -25.6140    5.2520   26.4490 N.am    1  UNL1       -0.1997
     17 C         -25.0260    6.4790   26.9630 C.3     1  UNL1        0.1388
     18 O         -25.1430    3.9660   28.2430 O.2     1  UNL1       -0.2683
     19 C         -27.4380    3.0910   25.6450 C.2     1  UNL1        0.1067
     20 N         -28.0750    2.0890   25.0030 N.2     1  UNL1       -0.2081
     21 C         -27.5430    0.8490   25.0790 C.2     1  UNL1        0.2533
     22 O         -28.1930   -0.2080   24.4770 O.2     1  UNL1       -0.4558
     23 C         -29.4600    0.0050   23.8660 C.3     1  UNL1        0.2426
     24 C         -30.0650   -1.3770   23.5730 C.3     1  UNL1        0.2292
     25 O         -30.7290   -1.8780   24.7210 O.3     1  UNL1       -0.2162
     26 C         -26.3540    0.5760   25.7770 C.2     1  UNL1        0.1932
     27 F         -25.8600   -0.6810   25.7950 F       1  UNL1       -0.1992
     28 C         -23.1294    0.4739   29.2323 C.2     1  UNL1        0.0296
     29 F         -21.3569    1.4234   27.7812 F       1  UNL1       -0.2033
     30 C         -24.7036    1.3486   27.3357 C.2     1  UNL1        0.0490
     31 C         -28.9708    0.0716   29.3970 C.2     1  UNL1        0.2117
     32 O         -26.8693    0.7799   28.3624 O.2     1  UNL1       -0.4677
     33 CL        -22.8469    2.0924   25.5210 Cl      1  UNL1       -0.0798
     34 O         -30.6402    2.4026   28.5583 O.3     1  UNL1       -0.2186
     35 C         -25.3746    0.8098   28.4525 C.2     1  UNL1        0.1364
     36 C         -30.6766    1.8317   29.8474 C.3     1  UNL1        0.2058
     37 C         -29.3452    1.2808   30.0003 C.3     1  UNL1        0.1735
     38 C         -23.4476    1.4035   27.0064 C.2     1  UNL1        0.0880
     39 O         -29.7378   -0.6407   28.7243 O.2     1  UNL1       -0.2908
     40 C         -27.5288   -0.2141   29.0873 C.3     1  UNL1        0.2703
     41 C         -22.6102    1.1176   28.1214 C.2     1  UNL1        0.1505
     42 CL        -28.3720    2.6025   30.6301 Cl      1  UNL1       -0.1041
     43 C         -24.4845    0.1197   29.2886 C.2     1  UNL1        0.0192
@<TRIPOS>BOND
     1     1    43    1
     2     2     7    1
     3     2     1    1
     4     3     2    2
     5     4     3    1
     6     4     5    2
     7     5     6    1
     8     6     7    2
     9     8     1    1
    10     8     9    1
    11     8    12    1
    12     9    10    1
    13    10    11    1
    14    12    11    1
    15    13    30    1
    16    14    13    1
    17    14    15    1
    18    15    18    2
    19    16    17    1
    20    16    15    1
    21    19    14    2
    22    20    21    2
    23    20    19    1
    24    21    26    1
    25    22    21    1
    26    23    22    1
    27    24    23    1
    28    24    25    1
    29    26    27    1
    30    26    13    2
    31    28    43    1
    32    29    41    1
    33    30    35    1
    34    31    37    1
    35    32    35    1
    36    32    40    1
    37    33    38    1
    38    34    36    1
    39    35    43    2
    40    36    37    1
    41    37    42    1
    42    38    30    2
    43    38    41    1
    44    39    31    2
    45    40    31    1
    46    41    28    2
