@<TRIPOS>MOLECULE
No_993-gen_results/8p0m/2024-11-27-11-27-31/
 21 22 0 0 0
SMALL
GASTEIGER

@<TRIPOS>ATOM
      1 C         -28.0162   -0.8135   28.8779 C.ar    1  UNL1        0.0071
      2 C         -28.4690   -0.7850   29.8287 C.ar    1  UNL1        0.0573
      3 C         -26.5455   -0.8762   28.8500 C.ar    1  UNL1       -0.0209
      4 C         -25.8041   -1.0324   30.0571 C.ar    1  UNL1       -0.0248
      5 C         -27.9437   -0.9869   31.2075 C.ar    1  UNL1        0.0111
      6 C         -26.5825   -1.0386   31.2231 C.ar    1  UNL1       -0.0037
      7 CL        -30.2809   -0.7232   29.8834 Cl      1  UNL1       -0.0823
      8 C         -24.3690   -1.1186   30.0640 C.3     1  UNL1        0.0431
      9 C         -23.6811    0.1519   30.0835 C.3     1  UNL1        0.1487
     10 C         -22.4350    0.2823   29.3993 C.2     1  UNL1        0.2681
     11 C         -24.2129    1.3026   30.7578 C.2     1  UNL1        0.2166
     12 N         -21.5762   -0.5814   29.3665 N.am    1  UNL1       -0.0874
     13 O         -22.1887    1.3970   28.7600 O.2     1  UNL1       -0.2712
     14 C         -25.7319   -0.7849   27.6050 C.3     1  UNL1        0.0523
     15 C         -26.1086    0.2622   26.6634 C.ar    1  UNL1       -0.0178
     16 C         -25.4906    0.3529   25.4728 C.ar    1  UNL1       -0.0039
     17 C         -27.0629    1.2493   26.9774 C.ar    1  UNL1       -0.0039
     18 C         -27.3088    2.2550   26.0345 C.ar    1  UNL1       -0.0003
     19 C         -25.7494    1.2695   24.5145 C.ar    1  UNL1       -0.0003
     20 C         -26.7150    2.2014   24.8145 C.ar    1  UNL1       -0.0000
     21 O         -24.2679    1.4416   31.9209 O.2     1  UNL1       -0.2878
@<TRIPOS>BOND
     1     2     7    1
     2     4     8    1
     3     8     9    1
     4     9    10    1
     5     9    11    1
     6    10    12   am
     7    10    13    2
     8     3    14    1
     9    14    15    1
    10    11    21    2
    11     1     2   ar
    12     2     5   ar
    13     5     6   ar
    14     6     4   ar
    15     4     3   ar
    16     3     1   ar
    17    15    16   ar
    18    16    19   ar
    19    19    20   ar
    20    20    18   ar
    21    18    17   ar
    22    17    15   ar
