@<TRIPOS>MOLECULE
outputs/IAG933/test6/raw/output_9937_IAG933_linker_design_.xyz
 40 43 0 0 0
SMALL
GASTEIGER

@<TRIPOS>ATOM
      1 C         -24.8550   -1.0120   30.1430 C.3     1  UNL1        0.0967
      2 C         -24.9730   -2.5050   29.7880 C.2     1  UNL1       -0.0064
      3 C         -23.9060   -3.1730   29.1460 C.2     1  UNL1       -0.0029
      4 C         -23.9890   -4.5490   28.8530 C.2     1  UNL1       -0.0003
      5 C         -25.1370   -5.2800   29.2050 C.2     1  UNL1       -0.0000
      6 C         -26.2320   -4.6110   29.7840 C.2     1  UNL1       -0.0003
      7 C         -26.1550   -3.2320   30.0650 C.2     1  UNL1       -0.0029
      8 C         -25.3870   -0.6790   31.5710 C.3     1  UNL1        0.0916
      9 C         -25.1890    0.7730   32.0280 C.3     1  UNL1        0.0206
     10 C         -25.3360    0.6840   33.5440 C.3     1  UNL1        0.0203
     11 C         -24.8290   -0.7150   33.9050 C.3     1  UNL1        0.0888
     12 N         -24.7580   -1.4810   32.6460 N.3     1  UNL1       -0.2178
     13 C         -25.6880    1.6140   26.4610 C.2     1  UNL1        0.0441
     14 C         -26.2500    2.9200   26.3950 C.2     1  UNL1        0.0749
     15 C         -25.6420    4.0930   27.1230 C.2     1  UNL1        0.2662
     16 N         -25.6140    5.2520   26.4490 N.am    1  UNL1       -0.1997
     17 C         -25.0260    6.4790   26.9630 C.3     1  UNL1        0.1388
     18 O         -25.1430    3.9660   28.2430 O.2     1  UNL1       -0.2683
     19 C         -27.4380    3.0910   25.6450 C.2     1  UNL1        0.1065
     20 N         -28.0750    2.0890   25.0030 N.2     1  UNL1       -0.2081
     21 C         -27.5430    0.8490   25.0790 C.2     1  UNL1        0.2530
     22 O         -28.1930   -0.2080   24.4770 O.2     1  UNL1       -0.4558
     23 C         -29.4600    0.0050   23.8660 C.3     1  UNL1        0.2426
     24 C         -30.0650   -1.3770   23.5730 C.3     1  UNL1        0.2292
     25 O         -30.7290   -1.8780   24.7210 O.3     1  UNL1       -0.2162
     26 C         -26.3540    0.5760   25.7770 C.2     1  UNL1        0.1914
     27 F         -25.8600   -0.6810   25.7950 F       1  UNL1       -0.1995
     28 O         -20.8221    0.8228   28.5804 O.3     1  UNL1       -0.3295
     29 O         -22.9128    2.6183   26.0667 O.3     1  UNL1       -0.1870
     30 C         -27.7428   -0.7935   28.4482 C.2     1  UNL1        0.2249
     31 C         -24.7723    1.3709   27.2695 C.3     1  UNL1        0.1586
     32 O         -23.6521    0.6661   26.8800 O.3     1  UNL1       -0.3231
     33 C         -22.5145    1.5956   26.9631 C.3     1  UNL1        0.3007
     34 C         -24.8846    1.0790   28.8334 C.3     1  UNL1        0.1074
     35 C         -26.4032   -0.2009   28.5977 C.3     1  UNL1        0.1458
     36 O         -28.5410   -0.6885   29.3498 O.2     1  UNL1       -0.2868
     37 C         -22.0454    1.7306   28.4004 C.3     1  UNL1        0.2210
     38 C         -21.8579    0.4967   29.2909 C.3     1  UNL1        0.2391
     39 N         -25.3091   -0.2772   29.1391 N.3     1  UNL1       -0.2601
     40 N         -22.3235   -0.7279   29.2190 N.3     1  UNL1       -0.0973
@<TRIPOS>BOND
     1     1    39    1
     2     2     7    1
     3     2     1    1
     4     3     2    2
     5     4     3    1
     6     4     5    2
     7     5     6    1
     8     6     7    2
     9     8     1    1
    10     8     9    1
    11     8    12    1
    12     9    10    1
    13    10    11    1
    14    12    11    1
    15    13    31    1
    16    14    13    1
    17    14    15    1
    18    15    18    2
    19    16    17    1
    20    16    15    1
    21    19    14    2
    22    20    21    2
    23    20    19    1
    24    21    26    1
    25    22    21    1
    26    23    22    1
    27    24    23    1
    28    24    25    1
    29    26    27    1
    30    26    13    2
    31    28    38    1
    32    30    35    1
    33    30    36    2
    34    31    34    1
    35    32    33    1
    36    32    31    1
    37    33    29    1
    38    34    39    1
    39    35    39    1
    40    37    33    1
    41    37    28    1
    42    37    38    1
    43    38    40    1
