@<TRIPOS>MOLECULE
outputs/IAG933/test6/raw/output_9939_IAG933_linker_design_.xyz
 41 45 0 0 0
SMALL
GASTEIGER

@<TRIPOS>ATOM
      1 C         -24.8550   -1.0120   30.1430 C.3     1  UNL1        0.0975
      2 C         -24.9730   -2.5050   29.7880 C.2     1  UNL1       -0.0064
      3 C         -23.9060   -3.1730   29.1460 C.2     1  UNL1       -0.0029
      4 C         -23.9890   -4.5490   28.8530 C.2     1  UNL1       -0.0003
      5 C         -25.1370   -5.2800   29.2050 C.2     1  UNL1       -0.0000
      6 C         -26.2320   -4.6110   29.7840 C.2     1  UNL1       -0.0003
      7 C         -26.1550   -3.2320   30.0650 C.2     1  UNL1       -0.0029
      8 C         -25.3870   -0.6790   31.5710 C.3     1  UNL1        0.0916
      9 C         -25.1890    0.7730   32.0280 C.3     1  UNL1        0.0206
     10 C         -25.3360    0.6840   33.5440 C.3     1  UNL1        0.0203
     11 C         -24.8290   -0.7150   33.9050 C.3     1  UNL1        0.0888
     12 N         -24.7580   -1.4810   32.6460 N.3     1  UNL1       -0.2178
     13 C         -25.6880    1.6140   26.4610 C.2     1  UNL1        0.0873
     14 C         -26.2500    2.9200   26.3950 C.2     1  UNL1        0.0899
     15 C         -25.6420    4.0930   27.1230 C.2     1  UNL1        0.2676
     16 N         -25.6140    5.2520   26.4490 N.am    1  UNL1       -0.1997
     17 C         -25.0260    6.4790   26.9630 C.3     1  UNL1        0.1388
     18 O         -25.1430    3.9660   28.2430 O.2     1  UNL1       -0.2683
     19 C         -27.4380    3.0910   25.6450 C.2     1  UNL1        0.1080
     20 N         -28.0750    2.0890   25.0030 N.2     1  UNL1       -0.2080
     21 C         -27.5430    0.8490   25.0790 C.2     1  UNL1        0.2546
     22 O         -28.1930   -0.2080   24.4770 O.2     1  UNL1       -0.4558
     23 C         -29.4600    0.0050   23.8660 C.3     1  UNL1        0.2426
     24 C         -30.0650   -1.3770   23.5730 C.3     1  UNL1        0.2292
     25 O         -30.7290   -1.8780   24.7210 O.3     1  UNL1       -0.2162
     26 C         -26.3540    0.5760   25.7770 C.2     1  UNL1        0.2063
     27 F         -25.8600   -0.6810   25.7950 F       1  UNL1       -0.1979
     28 C         -20.9455   -0.2865   28.4177 C.3     1  UNL1        0.1742
     29 N         -24.4485   -0.2326   29.3435 N.3     1  UNL1       -0.2531
     30 O         -23.4464    1.1210   24.6719 O.3     1  UNL1       -0.2185
     31 C         -23.2654    1.6045   26.9284 C.3     1  UNL1        0.1365
     32 C         -22.3897    0.6819   29.2128 C.3     1  UNL1        0.1734
     33 C         -24.7522    0.9253   28.5286 C.3     1  UNL1        0.1211
     34 C         -24.3920   -0.5268   28.1344 C.3     1  UNL1        0.1076
     35 N         -24.5950    1.4536   27.2867 N.pl3   1  UNL1       -0.2921
     36 C         -25.4019    1.8017   29.4773 C.3     1  UNL1        0.0383
     37 C         -22.9563    1.8713   25.7091 C.3     1  UNL1        0.2042
     38 O         -20.8568    1.5599   27.3734 O.3     1  UNL1       -0.3492
     39 C         -20.0425    0.8356   28.1481 C.3     1  UNL1        0.1742
     40 O         -21.5801   -0.4512   29.4146 O.3     1  UNL1       -0.3485
     41 C         -22.2910    1.5587   27.8601 C.3     1  UNL1        0.1653
@<TRIPOS>BOND
     1     1     2    1
     2     2     7    1
     3     3     2    2
     4     4     3    1
     5     4     5    2
     6     5     6    1
     7     6     7    2
     8     8     1    1
     9     8     9    1
    10     8    12    1
    11     9    10    1
    12    10    11    1
    13    12    11    1
    14    13    35    1
    15    14    13    1
    16    14    15    1
    17    15    18    2
    18    16    17    1
    19    16    15    1
    20    19    14    2
    21    20    21    2
    22    20    19    1
    23    21    26    1
    24    22    21    1
    25    23    22    1
    26    24    23    1
    27    24    25    1
    28    26    27    1
    29    26    13    2
    30    28    40    1
    31    29     1    1
    32    30    37    1
    33    31    37    1
    34    31    35    1
    35    32    40    1
    36    33    29    1
    37    33    36    1
    38    34    33    1
    39    34    29    1
    40    35    33    1
    41    38    41    1
    42    38    39    1
    43    39    28    1
    44    41    31    1
    45    41    32    1
