@<TRIPOS>MOLECULE
No_994-gen_results/8p0m/2024-11-27-11-27-31/
 20 22 0 0 0
SMALL
GASTEIGER

@<TRIPOS>ATOM
      1 C         -28.0162   -0.8135   28.8779 C.3     1  UNL1        0.0274
      2 C         -27.0636   -0.1189   28.6079 C.ar    1  UNL1       -0.0248
      3 C         -26.9716    0.7139   27.5060 C.ar    1  UNL1       -0.0099
      4 C         -25.8205    1.4909   27.1160 C.ar    1  UNL1        0.0033
      5 C         -24.8579    1.3421   27.6008 C.ar    1  UNL1        0.0795
      6 C         -24.6224    0.5295   28.8144 C.ar    1  UNL1        0.0062
      7 C         -25.7344   -0.1811   29.1908 C.ar    1  UNL1       -0.0043
      8 C         -29.2135   -0.0949   29.3828 C.3     1  UNL1        0.0188
      9 C         -30.3379   -0.8506   29.8335 C.3     1  UNL1        0.0017
     10 C         -23.5197    2.1442   27.2948 C.2     1  UNL1        0.3877
     11 O         -23.3618    2.4417   26.0554 O.co2   1  UNL1       -0.2406
     12 O         -22.7705    2.6844   28.1927 O.co2   1  UNL1       -0.2406
     13 C         -30.6007   -0.9002   31.0670 C.3     1  UNL1        0.0001
     14 C         -30.4265    0.2192   31.8633 C.3     1  UNL1        0.0000
     15 C         -29.4303    1.1314   31.4563 C.3     1  UNL1        0.0001
     16 C         -28.6453    0.6326   30.7066 C.3     1  UNL1        0.0017
     17 C         -29.6691    0.9847   28.4411 C.3     1  UNL1        0.0727
     18 N         -29.6507    0.9795   27.2121 N.3     1  UNL1       -0.2678
     19 C         -30.7158    0.7417   26.4916 C.3     1  UNL1        0.0899
     20 C         -28.2948    0.7920   26.5956 C.3     1  UNL1        0.0989
@<TRIPOS>BOND
     1     1     8    1
     2     8     9    1
     3     5    10    1
     4    10    11   ar
     5    10    12   ar
     6     9    13    1
     7    13    14    1
     8     8    16    1
     9    15    16    1
    10     8    17    1
    11    17    18    1
    12    18    19    1
    13     3    20    1
    14    18    20    1
    15     1     2    1
    16    14    15    1
    17     2     3   ar
    18     3     4   ar
    19     4     5   ar
    20     5     6   ar
    21     6     7   ar
    22     7     2   ar
