@<TRIPOS>MOLECULE
outputs/IAG933/test6/raw/output_9942_IAG933_linker_design_.xyz
 42 46 0 0 0
SMALL
GASTEIGER

@<TRIPOS>ATOM
      1 C         -24.8550   -1.0120   30.1430 C.3     1  UNL1        0.0438
      2 C         -24.9730   -2.5050   29.7880 C.2     1  UNL1       -0.0208
      3 C         -23.9060   -3.1730   29.1460 C.2     1  UNL1       -0.0042
      4 C         -23.9890   -4.5490   28.8530 C.2     1  UNL1       -0.0003
      5 C         -25.1370   -5.2800   29.2050 C.2     1  UNL1       -0.0000
      6 C         -26.2320   -4.6110   29.7840 C.2     1  UNL1       -0.0003
      7 C         -26.1550   -3.2320   30.0650 C.2     1  UNL1       -0.0042
      8 C         -25.3870   -0.6790   31.5710 C.3     1  UNL1        0.0788
      9 C         -25.1890    0.7730   32.0280 C.3     1  UNL1        0.0378
     10 C         -25.3360    0.6840   33.5440 C.3     1  UNL1        0.0219
     11 C         -24.8290   -0.7150   33.9050 C.3     1  UNL1        0.0888
     12 N         -24.7580   -1.4810   32.6460 N.3     1  UNL1       -0.2191
     13 C         -25.6880    1.6140   26.4610 C.2     1  UNL1        0.0424
     14 C         -26.2500    2.9200   26.3950 C.2     1  UNL1        0.0767
     15 C         -25.6420    4.0930   27.1230 C.2     1  UNL1        0.2664
     16 N         -25.6140    5.2520   26.4490 N.am    1  UNL1       -0.1997
     17 C         -25.0260    6.4790   26.9630 C.3     1  UNL1        0.1388
     18 O         -25.1430    3.9660   28.2430 O.2     1  UNL1       -0.2683
     19 C         -27.4380    3.0910   25.6450 C.2     1  UNL1        0.1067
     20 N         -28.0750    2.0890   25.0030 N.2     1  UNL1       -0.2081
     21 C         -27.5430    0.8490   25.0790 C.2     1  UNL1        0.2533
     22 O         -28.1930   -0.2080   24.4770 O.2     1  UNL1       -0.4558
     23 C         -29.4600    0.0050   23.8660 C.3     1  UNL1        0.2426
     24 C         -30.0650   -1.3770   23.5730 C.3     1  UNL1        0.2292
     25 O         -30.7290   -1.8780   24.7210 O.3     1  UNL1       -0.2162
     26 C         -26.3540    0.5760   25.7770 C.2     1  UNL1        0.1932
     27 F         -25.8600   -0.6810   25.7950 F       1  UNL1       -0.1992
     28 N         -25.1347    1.4825   29.4921 N.pl3   1  UNL1       -0.2391
     29 C         -25.1507    5.6543   33.4045 C.3     1  UNL1        0.1421
     30 C         -26.5561    5.0576   33.3370 C.3     1  UNL1        0.0346
     31 C         -21.8020    1.8719   26.7189 C.2     1  UNL1        0.0421
     32 C         -21.6461    1.3995   28.0570 C.2     1  UNL1        0.0046
     33 C         -26.3185    3.6659   32.8192 C.3     1  UNL1        0.0322
     34 C         -24.3312    1.6309   27.0211 C.2     1  UNL1        0.0563
     35 O         -24.3027    4.8360   32.6416 O.3     1  UNL1       -0.3562
     36 C         -23.1448    2.0986   26.2296 C.2     1  UNL1        0.1970
     37 C         -24.7902    1.6325   30.8820 C.3     1  UNL1        0.0962
     38 C         -24.0830    1.4069   28.4553 C.2     1  UNL1        0.0684
     39 C         -25.1705    3.9494   31.8361 C.3     1  UNL1        0.1170
     40 C         -22.7664    1.1490   28.8995 C.2     1  UNL1        0.0163
     41 C         -24.3422    2.9797   31.4670 C.3     1  UNL1        0.0511
     42 O         -23.2743    2.8207   25.1216 O.2     1  UNL1       -0.2865
@<TRIPOS>BOND
     1     2     7    1
     2     2     1    1
     3     3     2    2
     4     4     3    1
     5     4     5    2
     6     5     6    1
     7     6     7    2
     8     8     1    1
     9     8     9    1
    10     8    12    1
    11     9    37    1
    12     9    10    1
    13    10    11    1
    14    12    11    1
    15    13    34    1
    16    14    13    1
    17    14    15    1
    18    15    18    2
    19    16    17    1
    20    16    15    1
    21    19    14    2
    22    20    21    2
    23    20    19    1
    24    21    26    1
    25    22    21    1
    26    23    22    1
    27    24    23    1
    28    24    25    1
    29    26    27    1
    30    26    13    2
    31    28    37    1
    32    30    29    1
    33    31    32    1
    34    32    40    2
    35    33    30    1
    36    34    38    2
    37    35    29    1
    38    36    31    2
    39    36    34    1
    40    37    41    1
    41    38    40    1
    42    38    28    1
    43    39    41    1
    44    39    35    1
    45    39    33    1
    46    42    36    1
