@<TRIPOS>MOLECULE
outputs/IAG933/test6/raw/output_9945_IAG933_linker_design_.xyz
 44 48 0 0 0
SMALL
GASTEIGER

@<TRIPOS>ATOM
      1 C         -24.8550   -1.0120   30.1430 C.3     1  UNL1        0.0511
      2 C         -24.9730   -2.5050   29.7880 C.2     1  UNL1       -0.0204
      3 C         -23.9060   -3.1730   29.1460 C.2     1  UNL1       -0.0042
      4 C         -23.9890   -4.5490   28.8530 C.2     1  UNL1       -0.0003
      5 C         -25.1370   -5.2800   29.2050 C.2     1  UNL1       -0.0000
      6 C         -26.2320   -4.6110   29.7840 C.2     1  UNL1       -0.0003
      7 C         -26.1550   -3.2320   30.0650 C.2     1  UNL1       -0.0042
      8 C         -25.3870   -0.6790   31.5710 C.3     1  UNL1        0.0776
      9 C         -25.1890    0.7730   32.0280 C.3     1  UNL1        0.0192
     10 C         -25.3360    0.6840   33.5440 C.3     1  UNL1        0.0202
     11 C         -24.8290   -0.7150   33.9050 C.3     1  UNL1        0.0887
     12 N         -24.7580   -1.4810   32.6460 N.3     1  UNL1       -0.2191
     13 C         -25.6880    1.6140   26.4610 C.2     1  UNL1        0.0378
     14 C         -26.2500    2.9200   26.3950 C.2     1  UNL1        0.0765
     15 C         -25.6420    4.0930   27.1230 C.2     1  UNL1        0.2664
     16 N         -25.6140    5.2520   26.4490 N.am    1  UNL1       -0.1997
     17 C         -25.0260    6.4790   26.9630 C.3     1  UNL1        0.1388
     18 O         -25.1430    3.9660   28.2430 O.2     1  UNL1       -0.2683
     19 C         -27.4380    3.0910   25.6450 C.2     1  UNL1        0.1067
     20 N         -28.0750    2.0890   25.0030 N.2     1  UNL1       -0.2081
     21 C         -27.5430    0.8490   25.0790 C.2     1  UNL1        0.2533
     22 O         -28.1930   -0.2080   24.4770 O.2     1  UNL1       -0.4558
     23 C         -29.4600    0.0050   23.8660 C.3     1  UNL1        0.2426
     24 C         -30.0650   -1.3770   23.5730 C.3     1  UNL1        0.2292
     25 O         -30.7290   -1.8780   24.7210 O.3     1  UNL1       -0.2162
     26 C         -26.3540    0.5760   25.7770 C.2     1  UNL1        0.1930
     27 F         -25.8600   -0.6810   25.7950 F       1  UNL1       -0.1992
     28 C         -22.8626    0.7197   28.7617 C.2     1  UNL1       -0.0038
     29 C         -23.2810    1.8920   26.2325 C.2     1  UNL1       -0.0002
     30 C         -24.2603    0.7137   28.3186 C.2     1  UNL1       -0.0134
     31 C         -27.2510    3.0567   31.0494 C.3     1  UNL1        0.0764
     32 C         -27.2506    4.5647   30.9691 C.3     1  UNL1        0.0517
     33 C         -29.3926    3.6538   30.3584 C.3     1  UNL1        0.1067
     34 O         -29.2552    5.6237   31.8561 O.3     1  UNL1       -0.2216
     35 C         -21.9848    1.8455   26.7512 C.2     1  UNL1       -0.0000
     36 C         -28.7196    4.8453   30.9290 C.3     1  UNL1        0.1693
     37 N         -27.5904    0.5165   30.2734 N.am    1  UNL1       -0.1869
     38 N         -28.6472    2.5702   30.9928 N.3     1  UNL1       -0.2520
     39 C         -21.7832    1.2914   27.9983 C.2     1  UNL1       -0.0003
     40 C         -28.7796    1.3628   30.0691 C.3     1  UNL1        0.1903
     41 O         -27.5935   -0.6988   28.4299 O.2     1  UNL1       -0.2729
     42 C         -25.3830   -0.0435   29.0994 C.3     1  UNL1        0.1058
     43 C         -26.9539   -0.0764   29.2239 C.2     1  UNL1        0.2467
     44 C         -24.3620    1.3916   26.9841 C.2     1  UNL1       -0.0010
@<TRIPOS>BOND
     1     1    42    1
     2     2     7    1
     3     2     1    1
     4     3     2    2
     5     4     3    1
     6     4     5    2
     7     5     6    1
     8     6     7    2
     9     8     1    1
    10     8     9    1
    11     8    12    1
    12     9    10    1
    13    10    11    1
    14    12    11    1
    15    13    44    1
    16    14    13    1
    17    14    15    1
    18    15    18    2
    19    16    17    1
    20    16    15    1
    21    19    14    2
    22    20    21    2
    23    20    19    1
    24    21    26    1
    25    22    21    1
    26    23    22    1
    27    24    23    1
    28    24    25    1
    29    26    27    1
    30    26    13    2
    31    29    35    2
    32    29    44    1
    33    30    28    1
    34    30    42    1
    35    32    31    1
    36    33    36    1
    37    33    38    1
    38    35    39    1
    39    36    32    1
    40    36    34    1
    41    38    31    1
    42    39    28    2
    43    40    37    1
    44    40    38    1
    45    41    43    2
    46    42    43    1
    47    43    37    1
    48    44    30    2
