@<TRIPOS>MOLECULE
outputs/IAG933/test6/raw/output_9957_IAG933_linker_design_.xyz
 40 43 0 0 0
SMALL
GASTEIGER

@<TRIPOS>ATOM
      1 C         -24.8550   -1.0120   30.1430 C.3     1  UNL1        0.0625
      2 C         -24.9730   -2.5050   29.7880 C.2     1  UNL1       -0.0191
      3 C         -23.9060   -3.1730   29.1460 C.2     1  UNL1       -0.0042
      4 C         -23.9890   -4.5490   28.8530 C.2     1  UNL1       -0.0003
      5 C         -25.1370   -5.2800   29.2050 C.2     1  UNL1       -0.0000
      6 C         -26.2320   -4.6110   29.7840 C.2     1  UNL1       -0.0003
      7 C         -26.1550   -3.2320   30.0650 C.2     1  UNL1       -0.0042
      8 C         -25.3870   -0.6790   31.5710 C.3     1  UNL1        0.0788
      9 C         -25.1890    0.7730   32.0280 C.3     1  UNL1        0.0193
     10 C         -25.3360    0.6840   33.5440 C.3     1  UNL1        0.0202
     11 C         -24.8290   -0.7150   33.9050 C.3     1  UNL1        0.0887
     12 N         -24.7580   -1.4810   32.6460 N.3     1  UNL1       -0.2191
     13 C         -25.6880    1.6140   26.4610 C.2     1  UNL1        0.0410
     14 C         -26.2500    2.9200   26.3950 C.2     1  UNL1        0.0766
     15 C         -25.6420    4.0930   27.1230 C.2     1  UNL1        0.2664
     16 N         -25.6140    5.2520   26.4490 N.am    1  UNL1       -0.1997
     17 C         -25.0260    6.4790   26.9630 C.3     1  UNL1        0.1388
     18 O         -25.1430    3.9660   28.2430 O.2     1  UNL1       -0.2683
     19 C         -27.4380    3.0910   25.6450 C.2     1  UNL1        0.1067
     20 N         -28.0750    2.0890   25.0030 N.2     1  UNL1       -0.2081
     21 C         -27.5430    0.8490   25.0790 C.2     1  UNL1        0.2533
     22 O         -28.1930   -0.2080   24.4770 O.2     1  UNL1       -0.4558
     23 C         -29.4600    0.0050   23.8660 C.3     1  UNL1        0.2426
     24 C         -30.0650   -1.3770   23.5730 C.3     1  UNL1        0.2292
     25 O         -30.7290   -1.8780   24.7210 O.3     1  UNL1       -0.2162
     26 C         -26.3540    0.5760   25.7770 C.2     1  UNL1        0.1931
     27 F         -25.8600   -0.6810   25.7950 F       1  UNL1       -0.1992
     28 C         -24.1615    0.6355   28.1761 C.2     1  UNL1        0.0284
     29 C         -21.9260    2.0137   26.9158 C.2     1  UNL1        0.0443
     30 O         -23.2434    2.6420   25.1674 O.2     1  UNL1       -0.2866
     31 C         -25.2672   -0.0916   28.9453 C.3     1  UNL1        0.1250
     32 C         -28.6695    1.3217   29.7193 C.3     1  UNL1        0.0964
     33 C         -27.6228    0.3982   29.1959 C.2     1  UNL1        0.2421
     34 C         -23.1786    2.0146   26.3926 C.2     1  UNL1        0.1956
     35 F         -22.2503    0.1868   29.4789 F       1  UNL1       -0.2044
     36 O         -27.9436   -0.7751   28.8535 O.2     1  UNL1       -0.2733
     37 C         -24.3446    1.3789   26.9772 C.2     1  UNL1        0.0413
     38 C         -22.9299    0.5948   28.5883 C.2     1  UNL1        0.1379
     39 C         -21.7623    1.2282   28.0374 C.2     1  UNL1        0.0326
     40 N         -26.3434    0.8851   29.1991 N.am    1  UNL1       -0.2022
@<TRIPOS>BOND
     1     1    31    1
     2     2     7    1
     3     2     1    1
     4     3     2    2
     5     4     3    1
     6     4     5    2
     7     5     6    1
     8     6     7    2
     9     8     1    1
    10     8     9    1
    11     8    12    1
    12     9    10    1
    13    10    11    1
    14    12    11    1
    15    13    37    1
    16    14    13    1
    17    14    15    1
    18    15    18    2
    19    16    17    1
    20    16    15    1
    21    19    14    2
    22    20    21    2
    23    20    19    1
    24    21    26    1
    25    22    21    1
    26    23    22    1
    27    24    23    1
    28    24    25    1
    29    26    27    1
    30    26    13    2
    31    28    38    1
    32    28    31    1
    33    29    39    1
    34    30    34    1
    35    31    40    1
    36    33    40    1
    37    33    32    1
    38    34    29    2
    39    34    37    1
    40    36    33    2
    41    37    28    2
    42    38    35    1
    43    39    38    2
