@<TRIPOS>MOLECULE
outputs/IAG933/test6/raw/output_9963_IAG933_linker_design_.xyz
 44 49 0 0 0
SMALL
GASTEIGER

@<TRIPOS>ATOM
      1 C         -24.8550   -1.0120   30.1430 C.3     1  UNL1        0.0666
      2 C         -24.9730   -2.5050   29.7880 C.2     1  UNL1       -0.0188
      3 C         -23.9060   -3.1730   29.1460 C.2     1  UNL1       -0.0042
      4 C         -23.9890   -4.5490   28.8530 C.2     1  UNL1       -0.0003
      5 C         -25.1370   -5.2800   29.2050 C.2     1  UNL1       -0.0000
      6 C         -26.2320   -4.6110   29.7840 C.2     1  UNL1       -0.0003
      7 C         -26.1550   -3.2320   30.0650 C.2     1  UNL1       -0.0042
      8 C         -25.3870   -0.6790   31.5710 C.3     1  UNL1        0.0792
      9 C         -25.1890    0.7730   32.0280 C.3     1  UNL1        0.0193
     10 C         -25.3360    0.6840   33.5440 C.3     1  UNL1        0.0202
     11 C         -24.8290   -0.7150   33.9050 C.3     1  UNL1        0.0887
     12 N         -24.7580   -1.4810   32.6460 N.3     1  UNL1       -0.2190
     13 C         -25.6880    1.6140   26.4610 C.2     1  UNL1        0.0427
     14 C         -26.2500    2.9200   26.3950 C.2     1  UNL1        0.0748
     15 C         -25.6420    4.0930   27.1230 C.2     1  UNL1        0.2662
     16 N         -25.6140    5.2520   26.4490 N.am    1  UNL1       -0.1997
     17 C         -25.0260    6.4790   26.9630 C.3     1  UNL1        0.1388
     18 O         -25.1430    3.9660   28.2430 O.2     1  UNL1       -0.2683
     19 C         -27.4380    3.0910   25.6450 C.2     1  UNL1        0.1065
     20 N         -28.0750    2.0890   25.0030 N.2     1  UNL1       -0.2081
     21 C         -27.5430    0.8490   25.0790 C.2     1  UNL1        0.2530
     22 O         -28.1930   -0.2080   24.4770 O.2     1  UNL1       -0.4558
     23 C         -29.4600    0.0050   23.8660 C.3     1  UNL1        0.2426
     24 C         -30.0650   -1.3770   23.5730 C.3     1  UNL1        0.2292
     25 O         -30.7290   -1.8780   24.7210 O.3     1  UNL1       -0.2162
     26 C         -26.3540    0.5760   25.7770 C.2     1  UNL1        0.1914
     27 F         -25.8600   -0.6810   25.7950 F       1  UNL1       -0.1995
     28 C         -24.3948    1.4322   27.2033 C.3     1  UNL1        0.1422
     29 C         -21.6387    1.0946   28.0453 C.3     1  UNL1        0.0323
     30 C         -25.1897   -0.0030   29.0110 C.3     1  UNL1        0.1359
     31 C         -27.7430    2.7667   29.9226 C.2     1  UNL1        0.0067
     32 S         -28.3827    0.1364   29.1486 S.3     1  UNL1       -0.0827
     33 C         -22.8225    0.8558   28.9276 C.3     1  UNL1        0.0078
     34 C         -29.6706    1.7449   30.9658 C.2     1  UNL1        0.0067
     35 C         -28.0061    3.9553   30.6046 C.2     1  UNL1        0.0072
     36 O         -23.2483    1.4580   26.1668 O.3     1  UNL1       -0.3517
     37 BR        -29.7440    5.6422   32.1045 Br      1  UNL1       -0.0490
     38 C         -26.6427   -0.2688   28.8039 C.3     1  UNL1        0.1915
     39 C         -28.5999    1.6480   30.0957 C.2     1  UNL1        0.0275
     40 C         -21.9623    1.7793   26.8134 C.3     1  UNL1        0.1425
     41 O         -26.0926    0.9958   28.9147 O.3     1  UNL1       -0.3437
     42 C         -29.1382    4.0154   31.4073 C.2     1  UNL1        0.0346
     43 C         -23.9700    0.3730   28.1208 C.3     1  UNL1        0.0602
     44 C         -29.9018    2.8905   31.6538 C.2     1  UNL1        0.0072
@<TRIPOS>BOND
     1     1     2    1
     2     2     7    1
     3     3     2    2
     4     4     3    1
     5     4     5    2
     6     5     6    1
     7     6     7    2
     8     8     1    1
     9     8     9    1
    10     8    12    1
    11     9    10    1
    12    10    11    1
    13    12    11    1
    14    14    13    1
    15    14    15    1
    16    15    18    2
    17    16    17    1
    18    16    15    1
    19    19    14    2
    20    20    21    2
    21    20    19    1
    22    21    26    1
    23    22    21    1
    24    23    22    1
    25    24    23    1
    26    24    25    1
    27    26    27    1
    28    26    13    2
    29    28    13    1
    30    28    43    1
    31    29    33    1
    32    30     1    1
    33    31    39    2
    34    31    35    1
    35    32    39    1
    36    34    44    2
    37    35    42    2
    38    36    40    1
    39    36    28    1
    40    38    41    1
    41    38    30    1
    42    38    32    1
    43    39    34    1
    44    40    29    1
    45    41    30    1
    46    42    44    1
    47    42    37    1
    48    43    33    1
    49    43    30    1
