@<TRIPOS>MOLECULE
outputs/IAG933/test6/raw/output_9965_IAG933_linker_design_.xyz
 47 50 0 0 0
SMALL
GASTEIGER

@<TRIPOS>ATOM
      1 C         -24.8550   -1.0120   30.1430 C.3     1  UNL1        0.0994
      2 C         -24.9730   -2.5050   29.7880 C.2     1  UNL1       -0.0063
      3 C         -23.9060   -3.1730   29.1460 C.2     1  UNL1       -0.0029
      4 C         -23.9890   -4.5490   28.8530 C.2     1  UNL1       -0.0003
      5 C         -25.1370   -5.2800   29.2050 C.2     1  UNL1       -0.0000
      6 C         -26.2320   -4.6110   29.7840 C.2     1  UNL1       -0.0003
      7 C         -26.1550   -3.2320   30.0650 C.2     1  UNL1       -0.0029
      8 C         -25.3870   -0.6790   31.5710 C.3     1  UNL1        0.0917
      9 C         -25.1890    0.7730   32.0280 C.3     1  UNL1        0.0206
     10 C         -25.3360    0.6840   33.5440 C.3     1  UNL1        0.0203
     11 C         -24.8290   -0.7150   33.9050 C.3     1  UNL1        0.0888
     12 N         -24.7580   -1.4810   32.6460 N.3     1  UNL1       -0.2178
     13 C         -25.6880    1.6140   26.4610 C.2     1  UNL1        0.1780
     14 C         -26.2500    2.9200   26.3950 C.2     1  UNL1        0.1105
     15 C         -25.6420    4.0930   27.1230 C.2     1  UNL1        0.2694
     16 N         -25.6140    5.2520   26.4490 N.am    1  UNL1       -0.1996
     17 C         -25.0260    6.4790   26.9630 C.3     1  UNL1        0.1388
     18 O         -25.1430    3.9660   28.2430 O.2     1  UNL1       -0.2682
     19 C         -27.4380    3.0910   25.6450 C.2     1  UNL1        0.1098
     20 N         -28.0750    2.0890   25.0030 N.2     1  UNL1       -0.2079
     21 C         -27.5430    0.8490   25.0790 C.2     1  UNL1        0.2564
     22 O         -28.1930   -0.2080   24.4770 O.2     1  UNL1       -0.4558
     23 C         -29.4600    0.0050   23.8660 C.3     1  UNL1        0.2426
     24 C         -30.0650   -1.3770   23.5730 C.3     1  UNL1        0.2292
     25 O         -30.7290   -1.8780   24.7210 O.3     1  UNL1       -0.2162
     26 C         -26.3540    0.5760   25.7770 C.2     1  UNL1        0.2267
     27 F         -25.8600   -0.6810   25.7950 F       1  UNL1       -0.1960
     28 C         -30.4778   -1.6153   28.9880 C.3     1  UNL1        0.1301
     29 O         -29.9139   -4.2305   30.2013 O.2     1  UNL1       -0.2716
     30 C         -29.7930   -3.2831   30.8465 C.2     1  UNL1        0.2632
     31 C         -27.9000    0.7592   29.2867 C.2     1  UNL1        0.2227
     32 C         -27.0466   -0.1888   28.4380 C.3     1  UNL1        0.1458
     33 C         -24.4978    0.8155   28.4337 C.3     1  UNL1        0.2288
     34 O         -29.4442    1.0913   31.0648 O.3     1  UNL1       -0.1845
     35 C         -20.9137    1.7787   27.8739 C.3     1  UNL1        0.0002
     36 O         -24.4224    1.3983   27.1109 O.2     1  UNL1       -0.4609
     37 O         -29.5345   -1.1356   29.8819 O.3     1  UNL1       -0.3270
     38 C         -30.6996   -1.9375   30.2601 C.3     1  UNL1        0.1181
     39 C         -30.7194    0.6738   29.1190 C.3     1  UNL1        0.2153
     40 N         -25.5577   -0.1702   29.0222 N.3     1  UNL1       -0.2294
     41 N         -28.9670   -3.1157   31.9277 N.am    1  UNL1       -0.0877
     42 C         -29.3786    0.3156   29.7785 C.3     1  UNL1        0.3001
     43 C         -23.1310    0.8822   29.1087 C.3     1  UNL1        0.0613
     44 C         -31.0057   -0.3793   28.0657 C.3     1  UNL1        0.0687
     45 O         -27.5667    1.7428   29.5284 O.2     1  UNL1       -0.2893
     46 C         -21.8770    0.7916   28.2896 C.3     1  UNL1        0.0052
     47 O         -31.8285    0.7641   30.0006 O.3     1  UNL1       -0.2172
@<TRIPOS>BOND
     1     1    40    1
     2     2     7    1
     3     2     1    1
     4     3     2    2
     5     4     3    1
     6     4     5    2
     7     5     6    1
     8     6     7    2
     9     8     1    1
    10     8     9    1
    11     8    12    1
    12     9    10    1
    13    10    11    1
    14    12    11    1
    15    13    36    1
    16    14    13    1
    17    14    15    1
    18    15    18    2
    19    16    17    1
    20    16    15    1
    21    19    14    2
    22    20    21    2
    23    20    19    1
    24    21    26    1
    25    22    21    1
    26    23    22    1
    27    24    23    1
    28    24    25    1
    29    26    27    1
    30    26    13    2
    31    28    37    1
    32    28    38    1
    33    29    30    2
    34    30    41    1
    35    31    45    2
    36    31    42    1
    37    32    40    1
    38    32    31    1
    39    33    40    1
    40    33    43    1
    41    35    46    1
    42    36    33    1
    43    38    30    1
    44    39    42    1
    45    39    47    1
    46    42    37    1
    47    42    34    1
    48    44    28    1
    49    44    39    1
    50    46    43    1
