@<TRIPOS>MOLECULE
outputs/IAG933/test6/raw/output_9966_IAG933_linker_design_.xyz
 45 49 0 0 0
SMALL
GASTEIGER

@<TRIPOS>ATOM
      1 C         -24.8550   -1.0120   30.1430 C.3     1  UNL1        0.0437
      2 C         -24.9730   -2.5050   29.7880 C.2     1  UNL1       -0.0208
      3 C         -23.9060   -3.1730   29.1460 C.2     1  UNL1       -0.0042
      4 C         -23.9890   -4.5490   28.8530 C.2     1  UNL1       -0.0003
      5 C         -25.1370   -5.2800   29.2050 C.2     1  UNL1       -0.0000
      6 C         -26.2320   -4.6110   29.7840 C.2     1  UNL1       -0.0003
      7 C         -26.1550   -3.2320   30.0650 C.2     1  UNL1       -0.0042
      8 C         -25.3870   -0.6790   31.5710 C.3     1  UNL1        0.0772
      9 C         -25.1890    0.7730   32.0280 C.3     1  UNL1        0.0193
     10 C         -25.3360    0.6840   33.5440 C.3     1  UNL1        0.0202
     11 C         -24.8290   -0.7150   33.9050 C.3     1  UNL1        0.0887
     12 N         -24.7580   -1.4810   32.6460 N.3     1  UNL1       -0.2191
     13 C         -25.6880    1.6140   26.4610 C.2     1  UNL1        0.0358
     14 C         -26.2500    2.9200   26.3950 C.2     1  UNL1        0.0742
     15 C         -25.6420    4.0930   27.1230 C.2     1  UNL1        0.2662
     16 N         -25.6140    5.2520   26.4490 N.am    1  UNL1       -0.1997
     17 C         -25.0260    6.4790   26.9630 C.3     1  UNL1        0.1388
     18 O         -25.1430    3.9660   28.2430 O.2     1  UNL1       -0.2683
     19 C         -27.4380    3.0910   25.6450 C.2     1  UNL1        0.1065
     20 N         -28.0750    2.0890   25.0030 N.2     1  UNL1       -0.2081
     21 C         -27.5430    0.8490   25.0790 C.2     1  UNL1        0.2530
     22 O         -28.1930   -0.2080   24.4770 O.2     1  UNL1       -0.4558
     23 C         -29.4600    0.0050   23.8660 C.3     1  UNL1        0.2426
     24 C         -30.0650   -1.3770   23.5730 C.3     1  UNL1        0.2292
     25 O         -30.7290   -1.8780   24.7210 O.3     1  UNL1       -0.2162
     26 C         -26.3540    0.5760   25.7770 C.2     1  UNL1        0.1907
     27 F         -25.8600   -0.6810   25.7950 F       1  UNL1       -0.1995
     28 O         -25.4349    6.5086   33.9997 O.2     1  UNL1       -0.2501
     29 C         -21.2945    1.8913   26.8589 C.2     1  UNL1        0.1860
     30 C         -25.8389    7.3554   31.8275 C.3     1  UNL1        0.1212
     31 C         -24.0347    2.5364   30.6516 C.3     1  UNL1        0.0893
     32 N         -23.3353    1.6014   26.7186 N.pl3   1  UNL1       -0.2666
     33 C         -22.4563    1.2407   28.9871 C.3     1  UNL1        0.1327
     34 C         -26.0032    3.8944   32.8918 C.3     1  UNL1        0.1688
     35 C         -24.4609    1.1606   27.1757 C.3     1  UNL1        0.1233
     36 C         -23.0128    1.9999   25.3871 C.3     1  UNL1        0.3056
     37 N         -23.6371    1.6539   29.5931 N.3     1  UNL1       -0.2118
     38 O         -25.2021    4.8712   32.3900 O.3     1  UNL1       -0.4523
     39 C         -27.4790    4.5035   32.6764 C.3     1  UNL1        0.0437
     40 C         -27.3861    4.1468   31.2438 C.3     1  UNL1        0.0073
     41 C         -26.4748    2.9673   31.6913 C.3     1  UNL1        0.0417
     42 C         -22.3787    1.6163   27.4628 C.2     1  UNL1        0.0830
     43 C         -25.4449    6.2320   32.8418 C.2     1  UNL1        0.3174
     44 C         -25.3168    2.0709   31.3092 C.3     1  UNL1        0.0223
     45 O         -21.7645    2.1455   25.4774 O.2     1  UNL1       -0.4509
@<TRIPOS>BOND
     1     2     7    1
     2     2     1    1
     3     3     2    2
     4     4     3    1
     5     4     5    2
     6     5     6    1
     7     6     7    2
     8     8     1    1
     9     8     9    1
    10     8    12    1
    11     9    44    1
    12     9    10    1
    13    10    11    1
    14    12    11    1
    15    13    35    1
    16    14    13    1
    17    14    15    1
    18    15    18    2
    19    16    17    1
    20    16    15    1
    21    19    14    2
    22    20    21    2
    23    20    19    1
    24    21    26    1
    25    22    21    1
    26    23    22    1
    27    24    23    1
    28    24    25    1
    29    26    27    1
    30    26    13    2
    31    29    42    2
    32    30    43    1
    33    32    35    1
    34    32    42    1
    35    33    37    1
    36    34    38    1
    37    36    45    1
    38    36    32    1
    39    37    31    1
    40    38    43    1
    41    39    34    1
    42    40    41    1
    43    40    39    1
    44    41    44    1
    45    41    34    1
    46    42    33    1
    47    43    28    2
    48    44    31    1
    49    45    29    1
