@<TRIPOS>MOLECULE
outputs/IAG933/test6/raw/output_9968_IAG933_linker_design_.xyz
 44 48 0 0 0
SMALL
GASTEIGER

@<TRIPOS>ATOM
      1 C         -24.8550   -1.0120   30.1430 C.3     1  UNL1        0.0963
      2 C         -24.9730   -2.5050   29.7880 C.2     1  UNL1       -0.0064
      3 C         -23.9060   -3.1730   29.1460 C.2     1  UNL1       -0.0029
      4 C         -23.9890   -4.5490   28.8530 C.2     1  UNL1       -0.0003
      5 C         -25.1370   -5.2800   29.2050 C.2     1  UNL1       -0.0000
      6 C         -26.2320   -4.6110   29.7840 C.2     1  UNL1       -0.0003
      7 C         -26.1550   -3.2320   30.0650 C.2     1  UNL1       -0.0029
      8 C         -25.3870   -0.6790   31.5710 C.3     1  UNL1        0.0916
      9 C         -25.1890    0.7730   32.0280 C.3     1  UNL1        0.0206
     10 C         -25.3360    0.6840   33.5440 C.3     1  UNL1        0.0203
     11 C         -24.8290   -0.7150   33.9050 C.3     1  UNL1        0.0888
     12 N         -24.7580   -1.4810   32.6460 N.3     1  UNL1       -0.2178
     13 C         -25.6880    1.6140   26.4610 C.2     1  UNL1        0.0171
     14 C         -26.2500    2.9200   26.3950 C.2     1  UNL1        0.0726
     15 C         -25.6420    4.0930   27.1230 C.2     1  UNL1        0.2661
     16 N         -25.6140    5.2520   26.4490 N.am    1  UNL1       -0.1997
     17 C         -25.0260    6.4790   26.9630 C.3     1  UNL1        0.1388
     18 O         -25.1430    3.9660   28.2430 O.2     1  UNL1       -0.2683
     19 C         -27.4380    3.0910   25.6450 C.2     1  UNL1        0.1064
     20 N         -28.0750    2.0890   25.0030 N.2     1  UNL1       -0.2081
     21 C         -27.5430    0.8490   25.0790 C.2     1  UNL1        0.2530
     22 O         -28.1930   -0.2080   24.4770 O.2     1  UNL1       -0.4558
     23 C         -29.4600    0.0050   23.8660 C.3     1  UNL1        0.2426
     24 C         -30.0650   -1.3770   23.5730 C.3     1  UNL1        0.2292
     25 O         -30.7290   -1.8780   24.7210 O.3     1  UNL1       -0.2162
     26 C         -26.3540    0.5760   25.7770 C.2     1  UNL1        0.1891
     27 F         -25.8600   -0.6810   25.7950 F       1  UNL1       -0.1996
     28 F         -21.0704    1.9798   27.0525 F       1  UNL1       -0.2371
     29 C         -24.7103    1.2945   27.3332 C.3     1  UNL1        0.0452
     30 C         -23.4030    1.9921   25.4030 C.3     1  UNL1        0.1962
     31 C         -23.0545    0.7314   29.7795 C.3     1  UNL1        0.0752
     32 C         -27.5455    1.0304   29.1269 C.2     1  UNL1       -0.0208
     33 F         -22.3389    2.6688   25.0189 F       1  UNL1       -0.2342
     34 C         -29.1796    0.6269   30.9105 C.2     1  UNL1       -0.0003
     35 C         -28.5614    2.9477   30.4158 C.2     1  UNL1       -0.0003
     36 C         -23.4234    1.6037   26.6999 C.3     1  UNL1        0.0734
     37 C         -24.9604    0.2434   28.1901 C.3     1  UNL1        0.0664
     38 C         -21.9932    0.6982   28.6632 C.3     1  UNL1        0.0527
     39 C         -29.1918    2.0049   31.2594 C.2     1  UNL1       -0.0000
     40 C         -22.2587    1.4325   27.3949 C.3     1  UNL1        0.1654
     41 C         -28.6581    0.2203   29.6559 C.2     1  UNL1       -0.0042
     42 N         -24.3081    0.0079   29.2284 N.3     1  UNL1       -0.2698
     43 C         -27.8172    2.4783   29.2993 C.2     1  UNL1       -0.0042
     44 C         -26.5644    0.1311   28.3264 C.3     1  UNL1        0.0426
@<TRIPOS>BOND
     1     1     2    1
     2     2     7    1
     3     3     2    2
     4     4     3    1
     5     4     5    2
     6     5     6    1
     7     6     7    2
     8     8     1    1
     9     8     9    1
    10     8    12    1
    11     9    10    1
    12    10    11    1
    13    12    11    1
    14    14    13    1
    15    14    15    1
    16    15    18    2
    17    16    17    1
    18    16    15    1
    19    19    14    2
    20    20    21    2
    21    20    19    1
    22    21    26    1
    23    22    21    1
    24    23    22    1
    25    24    23    1
    26    24    25    1
    27    26    27    1
    28    26    13    2
    29    29    13    1
    30    29    37    1
    31    32    43    2
    32    32    41    1
    33    33    30    1
    34    34    39    1
    35    35    39    2
    36    36    30    1
    37    36    29    1
    38    36    40    1
    39    37    44    1
    40    37    42    1
    41    38    31    1
    42    40    28    1
    43    40    38    1
    44    41    34    2
    45    42    31    1
    46    42     1    1
    47    43    35    1
    48    44    32    1
