@<TRIPOS>MOLECULE
outputs/IAG933/test6/raw/output_9969_IAG933_linker_design_.xyz
 45 49 0 0 0
SMALL
GASTEIGER

@<TRIPOS>ATOM
      1 C         -24.8550   -1.0120   30.1430 C.3     1  UNL1        0.0437
      2 C         -24.9730   -2.5050   29.7880 C.2     1  UNL1       -0.0208
      3 C         -23.9060   -3.1730   29.1460 C.2     1  UNL1       -0.0042
      4 C         -23.9890   -4.5490   28.8530 C.2     1  UNL1       -0.0003
      5 C         -25.1370   -5.2800   29.2050 C.2     1  UNL1       -0.0000
      6 C         -26.2320   -4.6110   29.7840 C.2     1  UNL1       -0.0003
      7 C         -26.1550   -3.2320   30.0650 C.2     1  UNL1       -0.0042
      8 C         -25.3870   -0.6790   31.5710 C.3     1  UNL1        0.0772
      9 C         -25.1890    0.7730   32.0280 C.3     1  UNL1        0.0201
     10 C         -25.3360    0.6840   33.5440 C.3     1  UNL1        0.0203
     11 C         -24.8290   -0.7150   33.9050 C.3     1  UNL1        0.0887
     12 N         -24.7580   -1.4810   32.6460 N.3     1  UNL1       -0.2191
     13 C         -25.6880    1.6140   26.4610 C.3     1  UNL1        0.0904
     14 C         -26.2500    2.9200   26.3950 C.2     1  UNL1        0.0565
     15 C         -25.6420    4.0930   27.1230 C.2     1  UNL1        0.2625
     16 N         -25.6140    5.2520   26.4490 N.am    1  UNL1       -0.2000
     17 C         -25.0260    6.4790   26.9630 C.3     1  UNL1        0.1388
     18 O         -25.1430    3.9660   28.2430 O.2     1  UNL1       -0.2687
     19 C         -27.4380    3.0910   25.6450 C.2     1  UNL1        0.1022
     20 N         -28.0750    2.0890   25.0030 N.2     1  UNL1       -0.2119
     21 C         -27.5430    0.8490   25.0790 C.2     1  UNL1        0.2341
     22 O         -28.1930   -0.2080   24.4770 O.2     1  UNL1       -0.4585
     23 C         -29.4600    0.0050   23.8660 C.3     1  UNL1        0.2423
     24 C         -30.0650   -1.3770   23.5730 C.3     1  UNL1        0.2292
     25 O         -30.7290   -1.8780   24.7210 O.3     1  UNL1       -0.2162
     26 C         -26.3540    0.5760   25.7770 C.3     1  UNL1        0.2417
     27 F         -25.8600   -0.6810   25.7950 F       1  UNL1       -0.2268
     28 C         -22.8167    2.4487   24.9124 C.3     1  UNL1        0.0722
     29 C         -22.4859    0.8753   28.3020 C.2     1  UNL1        0.0404
     30 S         -26.2946    2.9000   30.9537 S.3     1  UNL1       -0.0936
     31 C         -21.1854    1.1554   27.9898 C.2     1  UNL1        0.1788
     32 N         -25.4559    6.2495   32.4559 N.3     1  UNL1       -0.2171
     33 O         -25.1791    4.2987   33.1447 O.3     1  UNL1       -0.3040
     34 F         -23.7919    5.9340   33.8808 F       1  UNL1       -0.1839
     35 C         -25.5415    7.6680   32.5080 C.3     1  UNL1        0.0944
     36 N         -25.3706    1.4349   28.7441 N.3     1  UNL1       -0.2050
     37 C         -24.7465    1.4275   27.4605 C.3     1  UNL1        0.1059
     38 C         -24.2812    1.4098   30.9988 C.3     1  UNL1        0.0300
     39 C         -22.4698    1.8847   26.2837 C.2     1  UNL1        0.1207
     40 C         -23.3257    1.3932   27.2950 C.2     1  UNL1        0.0275
     41 C         -25.8522    4.2464   31.9241 C.3     1  UNL1        0.1839
     42 C         -24.8046    5.4542   33.2366 C.3     1  UNL1        0.3480
     43 O         -21.2261    1.7735   26.6789 O.2     1  UNL1       -0.4549
     44 C         -26.0952    5.4709   31.5217 C.3     1  UNL1        0.1179
     45 C         -25.0329    2.1424   29.9707 C.3     1  UNL1        0.1223
@<TRIPOS>BOND
     1     2     7    1
     2     2     1    1
     3     3     2    2
     4     4     3    1
     5     4     5    2
     6     5     6    1
     7     6     7    2
     8     8     1    1
     9     8     9    1
    10     8    12    1
    11     9    38    1
    12     9    10    1
    13    10    11    1
    14    12    11    1
    15    13    37    1
    16    14    13    1
    17    14    15    1
    18    15    18    2
    19    16    17    1
    20    16    15    1
    21    19    14    2
    22    20    21    2
    23    20    19    1
    24    21    26    1
    25    22    21    1
    26    23    22    1
    27    24    23    1
    28    24    25    1
    29    26    27    1
    30    26    13    1
    31    28    39    1
    32    31    29    2
    33    32    35    1
    34    32    42    1
    35    33    42    1
    36    36    45    1
    37    37    36    1
    38    39    43    1
    39    39    40    2
    40    40    37    1
    41    40    29    1
    42    41    30    1
    43    41    33    1
    44    42    34    1
    45    43    31    1
    46    44    41    1
    47    44    32    1
    48    45    30    1
    49    45    38    1
