@<TRIPOS>MOLECULE
outputs/IAG933/test6/raw/output_9970_IAG933_linker_design_.xyz
 43 47 0 0 0
SMALL
GASTEIGER

@<TRIPOS>ATOM
      1 C         -24.8550   -1.0120   30.1430 C.3     1  UNL1        0.1001
      2 C         -24.9730   -2.5050   29.7880 C.2     1  UNL1       -0.0158
      3 C         -23.9060   -3.1730   29.1460 C.2     1  UNL1       -0.0041
      4 C         -23.9890   -4.5490   28.8530 C.2     1  UNL1       -0.0003
      5 C         -25.1370   -5.2800   29.2050 C.2     1  UNL1       -0.0000
      6 C         -26.2320   -4.6110   29.7840 C.2     1  UNL1       -0.0003
      7 C         -26.1550   -3.2320   30.0650 C.2     1  UNL1       -0.0041
      8 C         -25.3870   -0.6790   31.5710 C.3     1  UNL1        0.0821
      9 C         -25.1890    0.7730   32.0280 C.3     1  UNL1        0.0194
     10 C         -25.3360    0.6840   33.5440 C.3     1  UNL1        0.0202
     11 C         -24.8290   -0.7150   33.9050 C.3     1  UNL1        0.0887
     12 N         -24.7580   -1.4810   32.6460 N.3     1  UNL1       -0.2189
     13 C         -25.6880    1.6140   26.4610 C.3     1  UNL1        0.1147
     14 C         -26.2500    2.9200   26.3950 C.2     1  UNL1        0.0587
     15 C         -25.6420    4.0930   27.1230 C.2     1  UNL1        0.2626
     16 N         -25.6140    5.2520   26.4490 N.am    1  UNL1       -0.2000
     17 C         -25.0260    6.4790   26.9630 C.3     1  UNL1        0.1388
     18 O         -25.1430    3.9660   28.2430 O.2     1  UNL1       -0.2687
     19 C         -27.4380    3.0910   25.6450 C.2     1  UNL1        0.1023
     20 N         -28.0750    2.0890   25.0030 N.2     1  UNL1       -0.2119
     21 C         -27.5430    0.8490   25.0790 C.2     1  UNL1        0.2342
     22 O         -28.1930   -0.2080   24.4770 O.2     1  UNL1       -0.4585
     23 C         -29.4600    0.0050   23.8660 C.3     1  UNL1        0.2423
     24 C         -30.0650   -1.3770   23.5730 C.3     1  UNL1        0.2292
     25 O         -30.7290   -1.8780   24.7210 O.3     1  UNL1       -0.2162
     26 C         -26.3540    0.5760   25.7770 C.3     1  UNL1        0.2438
     27 F         -25.8600   -0.6810   25.7950 F       1  UNL1       -0.2268
     28 C         -27.8676    1.2123   29.2320 C.2     1  UNL1        0.1406
     29 C         -22.3806    1.7097   26.8955 C.2     1  UNL1        0.2014
     30 O         -22.3173    0.0810   29.3739 O.2     1  UNL1       -0.2683
     31 C         -28.6344    0.5272   28.2761 C.2     1  UNL1        0.0370
     32 C         -24.1427    1.5730   26.5457 C.3     1  UNL1        0.2046
     33 C         -23.4888    1.1477   27.5187 C.2     1  UNL1        0.1179
     34 CL        -20.6789    1.7415   27.2606 Cl      1  UNL1       -0.0429
     35 O         -22.8582    2.1689   25.7440 O.2     1  UNL1       -0.4641
     36 C         -29.5262    2.9768   29.4092 C.2     1  UNL1        0.0031
     37 C         -29.7832    1.1499   27.7523 C.2     1  UNL1        0.0031
     38 C         -25.4672   -0.0837   29.0013 C.3     1  UNL1        0.2680
     39 C         -30.2140    2.3977   28.3149 C.2     1  UNL1        0.0002
     40 O         -26.4920    1.0529   29.3502 O.2     1  UNL1       -0.4584
     41 C         -28.4061    2.3185   29.9419 C.2     1  UNL1        0.0370
     42 C         -23.2607    0.4083   28.6588 C.2     1  UNL1        0.2709
     43 N         -24.2929    0.3173   28.5342 N.am    1  UNL1       -0.1617
@<TRIPOS>BOND
     1     1    38    1
     2     2     7    1
     3     2     1    1
     4     3     2    2
     5     4     3    1
     6     4     5    2
     7     5     6    1
     8     6     7    2
     9     8     1    1
    10     8     9    1
    11     8    12    1
    12     9    10    1
    13    10    11    1
    14    12    11    1
    15    13    14    1
    16    13    32    1
    17    14    15    1
    18    15    18    2
    19    16    17    1
    20    16    15    1
    21    19    14    2
    22    20    21    2
    23    20    19    1
    24    21    26    1
    25    22    21    1
    26    23    22    1
    27    24    23    1
    28    24    25    1
    29    26    27    1
    30    26    13    1
    31    28    40    1
    32    28    41    1
    33    29    34    1
    34    29    33    2
    35    31    28    2
    36    32    35    1
    37    32    33    1
    38    33    42    1
    39    35    29    1
    40    36    41    2
    41    37    31    1
    42    37    39    2
    43    38    43    1
    44    38    40    1
    45    39    36    1
    46    42    30    2
    47    43    42    1
