@<TRIPOS>MOLECULE
outputs/IAG933/test6/raw/output_9972_IAG933_linker_design_.xyz
 39 42 0 0 0
SMALL
GASTEIGER

@<TRIPOS>ATOM
      1 C         -24.8550   -1.0120   30.1430 C.3     1  UNL1        0.1991
      2 C         -24.9730   -2.5050   29.7880 C.2     1  UNL1        0.0213
      3 C         -23.9060   -3.1730   29.1460 C.2     1  UNL1       -0.0004
      4 C         -23.9890   -4.5490   28.8530 C.2     1  UNL1       -0.0002
      5 C         -25.1370   -5.2800   29.2050 C.2     1  UNL1       -0.0000
      6 C         -26.2320   -4.6110   29.7840 C.2     1  UNL1       -0.0002
      7 C         -26.1550   -3.2320   30.0650 C.2     1  UNL1       -0.0004
      8 C         -25.3870   -0.6790   31.5710 C.3     1  UNL1        0.1197
      9 C         -25.1890    0.7730   32.0280 C.3     1  UNL1        0.0233
     10 C         -25.3360    0.6840   33.5440 C.3     1  UNL1        0.0204
     11 C         -24.8290   -0.7150   33.9050 C.3     1  UNL1        0.0889
     12 N         -24.7580   -1.4810   32.6460 N.3     1  UNL1       -0.2150
     13 C         -25.6880    1.6140   26.4610 C.2     1  UNL1        0.0275
     14 C         -26.2500    2.9200   26.3950 C.2     1  UNL1        0.0731
     15 C         -25.6420    4.0930   27.1230 C.2     1  UNL1        0.2661
     16 N         -25.6140    5.2520   26.4490 N.am    1  UNL1       -0.1997
     17 C         -25.0260    6.4790   26.9630 C.3     1  UNL1        0.1388
     18 O         -25.1430    3.9660   28.2430 O.2     1  UNL1       -0.2683
     19 C         -27.4380    3.0910   25.6450 C.2     1  UNL1        0.1064
     20 N         -28.0750    2.0890   25.0030 N.2     1  UNL1       -0.2081
     21 C         -27.5430    0.8490   25.0790 C.2     1  UNL1        0.2530
     22 O         -28.1930   -0.2080   24.4770 O.2     1  UNL1       -0.4558
     23 C         -29.4600    0.0050   23.8660 C.3     1  UNL1        0.2426
     24 C         -30.0650   -1.3770   23.5730 C.3     1  UNL1        0.2292
     25 O         -30.7290   -1.8780   24.7210 O.3     1  UNL1       -0.2162
     26 C         -26.3540    0.5760   25.7770 C.2     1  UNL1        0.1897
     27 F         -25.8600   -0.6810   25.7950 F       1  UNL1       -0.1996
     28 C         -24.6115    1.3320   27.3787 C.3     1  UNL1        0.1401
     29 C         -22.8480    0.0966   29.2779 C.2     1  UNL1        0.3711
     30 C         -24.9656    0.8993   28.6194 C.3     1  UNL1        0.2617
     31 C         -22.0442    1.6466   27.0522 C.3     1  UNL1        0.0966
     32 C         -21.9136    0.6956   28.1602 C.3     1  UNL1        0.2086
     33 O         -23.4872    2.4253   25.5073 O.2     1  UNL1       -0.2955
     34 N         -20.6567    0.2713   28.3629 N.3     1  UNL1       -0.1193
     35 C         -23.3477    1.8267   26.5786 C.2     1  UNL1        0.1615
     36 N         -24.2982   -0.0305   29.3003 N.pl3   1  UNL1       -0.1784
     37 C         -26.0615    1.5435   29.1834 C.1     1  UNL1        0.1206
     38 N         -22.3217   -0.1210   30.4205 N.2     1  UNL1        0.1895
     39 N         -26.7830    2.2470   29.6136 N.1     1  UNL1       -0.1917
@<TRIPOS>BOND
     1     1     2    1
     2     2     7    1
     3     3     2    2
     4     4     3    1
     5     4     5    2
     6     5     6    1
     7     6     7    2
     8     8     1    1
     9     8     9    1
    10     8    12    1
    11     9    10    1
    12    10    11    1
    13    12    11    1
    14    14    13    1
    15    14    15    1
    16    15    18    2
    17    16    17    1
    18    16    15    1
    19    19    14    2
    20    20    21    2
    21    20    19    1
    22    21    26    1
    23    22    21    1
    24    23    22    1
    25    24    23    1
    26    24    25    1
    27    26    27    1
    28    26    13    2
    29    28    13    1
    30    28    30    1
    31    29    36    1
    32    29    38    2
    33    30    37    1
    34    30    36    1
    35    31    32    1
    36    32    34    1
    37    32    29    1
    38    33    35    2
    39    35    31    1
    40    35    28    1
    41    36     1    1
    42    37    39    3
