@<TRIPOS>MOLECULE
outputs/IAG933/test6/raw/output_9973_IAG933_linker_design_.xyz
 50 55 0 0 0
SMALL
GASTEIGER

@<TRIPOS>ATOM
      1 C         -24.8550   -1.0120   30.1430 C.3     1  UNL1        0.0582
      2 C         -24.9730   -2.5050   29.7880 C.2     1  UNL1       -0.0195
      3 C         -23.9060   -3.1730   29.1460 C.2     1  UNL1       -0.0042
      4 C         -23.9890   -4.5490   28.8530 C.2     1  UNL1       -0.0003
      5 C         -25.1370   -5.2800   29.2050 C.2     1  UNL1       -0.0000
      6 C         -26.2320   -4.6110   29.7840 C.2     1  UNL1       -0.0003
      7 C         -26.1550   -3.2320   30.0650 C.2     1  UNL1       -0.0042
      8 C         -25.3870   -0.6790   31.5710 C.3     1  UNL1        0.0785
      9 C         -25.1890    0.7730   32.0280 C.3     1  UNL1        0.0192
     10 C         -25.3360    0.6840   33.5440 C.3     1  UNL1        0.0202
     11 C         -24.8290   -0.7150   33.9050 C.3     1  UNL1        0.0887
     12 N         -24.7580   -1.4810   32.6460 N.3     1  UNL1       -0.2191
     13 C         -25.6880    1.6140   26.4610 C.2     1  UNL1        0.0339
     14 C         -26.2500    2.9200   26.3950 C.2     1  UNL1        0.0719
     15 C         -25.6420    4.0930   27.1230 C.2     1  UNL1        0.2218
     16 N         -25.6140    5.2520   26.4490 N.2     1  UNL1       -0.2357
     17 C         -25.0260    6.4790   26.9630 C.3     1  UNL1        0.1550
     18 O         -25.1430    3.9660   28.2430 O.2     1  UNL1       -0.4576
     19 C         -27.4380    3.0910   25.6450 C.2     1  UNL1        0.1065
     20 N         -28.0750    2.0890   25.0030 N.2     1  UNL1       -0.2081
     21 C         -27.5430    0.8490   25.0790 C.2     1  UNL1        0.2530
     22 O         -28.1930   -0.2080   24.4770 O.2     1  UNL1       -0.4558
     23 C         -29.4600    0.0050   23.8660 C.3     1  UNL1        0.2426
     24 C         -30.0650   -1.3770   23.5730 C.3     1  UNL1        0.2292
     25 O         -30.7290   -1.8780   24.7210 O.3     1  UNL1       -0.2162
     26 C         -26.3540    0.5760   25.7770 C.2     1  UNL1        0.1907
     27 F         -25.8600   -0.6810   25.7950 F       1  UNL1       -0.1995
     28 C         -25.6571   -0.0555   29.1176 C.3     1  UNL1        0.0994
     29 C         -28.3072    7.5949   30.8050 C.3     1  UNL1        0.1741
     30 C         -28.5164    2.9805   29.8130 C.3     1  UNL1        0.0373
     31 C         -28.2120    5.3074   30.0821 C.3     1  UNL1        0.1481
     32 C         -27.8348    4.0282   30.4155 C.3     1  UNL1        0.0664
     33 C         -28.0427    2.0807   28.9783 C.3     1  UNL1        0.1450
     34 C         -22.4518    1.2693   27.8620 C.3     1  UNL1        0.1579
     35 C         -23.3297    1.9720   27.1084 C.3     1  UNL1        0.0500
     36 C         -29.5880    3.9528   29.0300 C.3     1  UNL1        0.0355
     37 O         -22.5863   -0.0924   29.5850 O.2     1  UNL1       -0.2735
     38 C         -25.4909    4.7237   29.4448 C.3     1  UNL1        0.2398
     39 C         -28.4701    0.8845   28.4495 C.3     1  UNL1        0.1715
     40 CL        -20.7548    1.4952   27.6305 Cl      1  UNL1       -0.1051
     41 O         -29.0869    6.0717   27.9247 O.3     1  UNL1       -0.2205
     42 O         -28.5392    6.2309   30.9923 O.3     1  UNL1       -0.3509
     43 N         -24.5318    0.5520   28.3048 N.am    1  UNL1       -0.2759
     44 C         -26.1810    3.8890   30.5454 C.3     1  UNL1        0.1978
     45 C         -30.6003    3.4500   28.0273 C.3     1  UNL1        0.0028
     46 O         -25.8525    4.5692   31.8350 O.3     1  UNL1       -0.2191
     47 C         -24.5596    1.3372   27.3659 C.3     1  UNL1        0.1021
     48 O         -27.0026    1.0786   29.1880 O.3     1  UNL1       -0.3511
     49 C         -28.9724    5.2257   28.9271 C.3     1  UNL1        0.1790
     50 C         -23.1861    0.5291   28.6685 C.2     1  UNL1        0.2407
@<TRIPOS>BOND
     1     1    28    1
     2     2     7    1
     3     2     1    1
     4     3     2    2
     5     4     3    1
     6     4     5    2
     7     5     6    1
     8     6     7    2
     9     8     1    1
    10     8     9    1
    11     8    12    1
    12     9    10    1
    13    10    11    1
    14    12    11    1
    15    14    13    1
    16    14    15    1
    17    15    18    1
    18    16    17    1
    19    16    15    2
    20    18    38    1
    21    19    14    2
    22    20    21    2
    23    20    19    1
    24    21    26    1
    25    22    21    1
    26    23    22    1
    27    24    23    1
    28    24    25    1
    29    26    27    1
    30    26    13    2
    31    29    42    1
    32    30    33    1
    33    30    32    1
    34    31    32    1
    35    31    42    1
    36    32    44    1
    37    33    39    1
    38    33    48    1
    39    34    40    1
    40    34    50    1
    41    35    47    1
    42    35    34    1
    43    36    45    1
    44    36    30    1
    45    38    44    1
    46    39    48    1
    47    43    50   am
    48    43    28    1
    49    44    46    1
    50    47    13    1
    51    47    43    1
    52    49    41    1
    53    49    36    1
    54    49    31    1
    55    50    37    2
