@<TRIPOS>MOLECULE
outputs/IAG933/test6/raw/output_9977_IAG933_linker_design_.xyz
 40 43 0 0 0
SMALL
GASTEIGER

@<TRIPOS>ATOM
      1 C         -24.8550   -1.0120   30.1430 C.3     1  UNL1        0.0976
      2 C         -24.9730   -2.5050   29.7880 C.2     1  UNL1       -0.0141
      3 C         -23.9060   -3.1730   29.1460 C.2     1  UNL1       -0.0038
      4 C         -23.9890   -4.5490   28.8530 C.2     1  UNL1       -0.0003
      5 C         -25.1370   -5.2800   29.2050 C.2     1  UNL1       -0.0000
      6 C         -26.2320   -4.6110   29.7840 C.2     1  UNL1       -0.0003
      7 C         -26.1550   -3.2320   30.0650 C.2     1  UNL1       -0.0038
      8 C         -25.3870   -0.6790   31.5710 C.3     1  UNL1        0.0838
      9 C         -25.1890    0.7730   32.0280 C.3     1  UNL1        0.0196
     10 C         -25.3360    0.6840   33.5440 C.3     1  UNL1        0.0203
     11 C         -24.8290   -0.7150   33.9050 C.3     1  UNL1        0.0887
     12 N         -24.7580   -1.4810   32.6460 N.3     1  UNL1       -0.2187
     13 C         -25.6880    1.6140   26.4610 C.3     1  UNL1        0.0922
     14 C         -26.2500    2.9200   26.3950 C.2     1  UNL1        0.0589
     15 C         -25.6420    4.0930   27.1230 C.2     1  UNL1        0.2628
     16 N         -25.6140    5.2520   26.4490 N.am    1  UNL1       -0.2000
     17 C         -25.0260    6.4790   26.9630 C.3     1  UNL1        0.1388
     18 O         -25.1430    3.9660   28.2430 O.2     1  UNL1       -0.2686
     19 C         -27.4380    3.0910   25.6450 C.2     1  UNL1        0.1025
     20 N         -28.0750    2.0890   25.0030 N.2     1  UNL1       -0.2118
     21 C         -27.5430    0.8490   25.0790 C.2     1  UNL1        0.2344
     22 O         -28.1930   -0.2080   24.4770 O.2     1  UNL1       -0.4585
     23 C         -29.4600    0.0050   23.8660 C.3     1  UNL1        0.2423
     24 C         -30.0650   -1.3770   23.5730 C.3     1  UNL1        0.2292
     25 O         -30.7290   -1.8780   24.7210 O.3     1  UNL1       -0.2162
     26 C         -26.3540    0.5760   25.7770 C.3     1  UNL1        0.2440
     27 F         -25.8600   -0.6810   25.7950 F       1  UNL1       -0.2265
     28 C         -23.3677    2.0430   25.9718 C.2     1  UNL1       -0.0016
     29 C         -24.0589    1.1144   28.0513 C.2     1  UNL1        0.0348
     30 C         -25.1772    0.9412   28.8116 C.3     1  UNL1        0.1740
     31 O         -22.4036    0.0940   29.5052 O.2     1  UNL1       -0.4694
     32 C         -22.7376    0.8677   28.3996 C.2     1  UNL1        0.1634
     33 O         -26.1314   -0.6175   28.1515 O.2     1  UNL1       -0.2938
     34 C         -22.0342    2.0317   26.3583 C.2     1  UNL1        0.0324
     35 C         -24.3725    1.5843   26.7943 C.2     1  UNL1       -0.0142
     36 F         -20.4261    1.4355   27.9443 F       1  UNL1       -0.2010
     37 C         -21.3460   -0.9009   29.2961 C.3     1  UNL1        0.2526
     38 N         -26.0969    1.9157   29.2559 N.3     1  UNL1       -0.1200
     39 C         -25.4841   -0.2520   29.1451 C.2     1  UNL1        0.1771
     40 C         -21.7107    1.4288   27.5745 C.2     1  UNL1        0.1735
@<TRIPOS>BOND
     1     1    39    1
     2     2     7    1
     3     2     1    1
     4     3     2    2
     5     4     3    1
     6     4     5    2
     7     5     6    1
     8     6     7    2
     9     8     1    1
    10     8     9    1
    11     8    12    1
    12     9    10    1
    13    10    11    1
    14    12    11    1
    15    13    35    1
    16    14    13    1
    17    14    15    1
    18    15    18    2
    19    16    17    1
    20    16    15    1
    21    19    14    2
    22    20    21    2
    23    20    19    1
    24    21    26    1
    25    22    21    1
    26    23    22    1
    27    24    23    1
    28    24    25    1
    29    26    27    1
    30    26    13    1
    31    28    34    2
    32    28    35    1
    33    29    32    1
    34    29    30    1
    35    30    39    1
    36    30    38    1
    37    32    31    1
    38    33    39    2
    39    34    40    1
    40    35    29    2
    41    37    31    1
    42    40    36    1
    43    40    32    2
