@<TRIPOS>MOLECULE
outputs/IAG933/test6/raw/output_9978_IAG933_linker_design_.xyz
 41 44 0 0 0
SMALL
GASTEIGER

@<TRIPOS>ATOM
      1 C         -24.8550   -1.0120   30.1430 C.3     1  UNL1        0.0691
      2 C         -24.9730   -2.5050   29.7880 C.2     1  UNL1       -0.0189
      3 C         -23.9060   -3.1730   29.1460 C.2     1  UNL1       -0.0042
      4 C         -23.9890   -4.5490   28.8530 C.2     1  UNL1       -0.0003
      5 C         -25.1370   -5.2800   29.2050 C.2     1  UNL1       -0.0000
      6 C         -26.2320   -4.6110   29.7840 C.2     1  UNL1       -0.0003
      7 C         -26.1550   -3.2320   30.0650 C.2     1  UNL1       -0.0042
      8 C         -25.3870   -0.6790   31.5710 C.3     1  UNL1        0.0790
      9 C         -25.1890    0.7730   32.0280 C.3     1  UNL1        0.0193
     10 C         -25.3360    0.6840   33.5440 C.3     1  UNL1        0.0202
     11 C         -24.8290   -0.7150   33.9050 C.3     1  UNL1        0.0887
     12 N         -24.7580   -1.4810   32.6460 N.3     1  UNL1       -0.2191
     13 C         -25.6880    1.6140   26.4610 C.3     1  UNL1        0.0936
     14 C         -26.2500    2.9200   26.3950 C.2     1  UNL1        0.0589
     15 C         -25.6420    4.0930   27.1230 C.2     1  UNL1        0.2628
     16 N         -25.6140    5.2520   26.4490 N.am    1  UNL1       -0.2000
     17 C         -25.0260    6.4790   26.9630 C.3     1  UNL1        0.1388
     18 O         -25.1430    3.9660   28.2430 O.2     1  UNL1       -0.2686
     19 C         -27.4380    3.0910   25.6450 C.2     1  UNL1        0.1025
     20 N         -28.0750    2.0890   25.0030 N.2     1  UNL1       -0.2118
     21 C         -27.5430    0.8490   25.0790 C.2     1  UNL1        0.2344
     22 O         -28.1930   -0.2080   24.4770 O.2     1  UNL1       -0.4585
     23 C         -29.4600    0.0050   23.8660 C.3     1  UNL1        0.2423
     24 C         -30.0650   -1.3770   23.5730 C.3     1  UNL1        0.2292
     25 O         -30.7290   -1.8780   24.7210 O.3     1  UNL1       -0.2162
     26 C         -26.3540    0.5760   25.7770 C.3     1  UNL1        0.2440
     27 F         -25.8600   -0.6810   25.7950 F       1  UNL1       -0.2265
     28 C         -24.3139    1.5258   26.6394 C.2     1  UNL1       -0.0002
     29 C         -23.3861    2.0475   25.7653 C.2     1  UNL1       -0.0026
     30 C         -25.6805   -0.3057   29.0682 C.3     1  UNL1        0.1959
     31 C         -22.6608    1.1056   28.2671 C.2     1  UNL1        0.0158
     32 O         -26.9021    1.7618   29.3569 O.3     1  UNL1       -0.4176
     33 C         -23.8885    0.9115   27.7925 C.2     1  UNL1        0.0623
     34 C         -21.7651    1.7594   27.4536 C.2     1  UNL1        0.0013
     35 C         -27.6577    2.5145   30.3172 C.3     1  UNL1        0.3629
     36 O         -29.1036    2.6229   30.1542 O.3     1  UNL1       -0.3131
     37 N         -24.7985    0.0550   28.1361 N.pl3   1  UNL1       -0.2280
     38 C         -22.0746    2.1364   26.1725 C.2     1  UNL1       -0.0002
     39 C         -27.0052    0.4166   29.1232 C.2     1  UNL1        0.3392
     40 C         -29.5289    2.7442   28.8684 C.3     1  UNL1        0.1782
     41 O         -27.9065   -0.3104   28.8847 O.2     1  UNL1       -0.2481
@<TRIPOS>BOND
     1     1    30    1
     2     2     7    1
     3     2     1    1
     4     3     2    2
     5     4     3    1
     6     4     5    2
     7     5     6    1
     8     6     7    2
     9     8     1    1
    10     8     9    1
    11     8    12    1
    12     9    10    1
    13    10    11    1
    14    12    11    1
    15    13    28    1
    16    14    13    1
    17    14    15    1
    18    15    18    2
    19    16    17    1
    20    16    15    1
    21    19    14    2
    22    20    21    2
    23    20    19    1
    24    21    26    1
    25    22    21    1
    26    23    22    1
    27    24    23    1
    28    24    25    1
    29    26    27    1
    30    26    13    1
    31    28    33    1
    32    29    38    1
    33    29    28    2
    34    30    37    1
    35    30    39    1
    36    32    35    1
    37    33    37    1
    38    33    31    2
    39    34    31    1
    40    36    35    1
    41    38    34    2
    42    39    32    1
    43    40    36    1
    44    41    39    2
