@<TRIPOS>MOLECULE
No_998-gen_results/8p0m/2024-11-27-11-27-31/
 14 15 0 0 0
SMALL
GASTEIGER

@<TRIPOS>ATOM
      1 C         -28.0162   -0.8135   28.8779 C.3     1  UNL1        0.0219
      2 C         -27.0636   -0.1189   28.6079 C.3     1  UNL1        0.0908
      3 N         -26.9849    0.5972   27.5218 N.pl3   1  UNL1       -0.3070
      4 C         -29.2310   -0.0747   28.7897 C.3     1  UNL1        0.0113
      5 C         -29.4105    0.6019   27.5567 C.3     1  UNL1        0.0846
      6 C         -25.7973    1.2179   26.9959 C.ar    1  UNL1        0.0479
      7 C         -28.2116    1.3565   27.1678 C.3     1  UNL1        0.0985
      8 C         -24.6403    0.7643   27.5687 C.ar    1  UNL1        0.0145
      9 C         -23.4407    1.5723   27.4005 C.ar    1  UNL1        0.0013
     10 C         -23.3880    2.3973   26.2709 C.ar    1  UNL1        0.0001
     11 C         -25.5373    2.5497   26.3438 C.ar    1  UNL1        0.0145
     12 C         -24.4705    3.0610   25.8757 C.ar    1  UNL1        0.0013
     13 C         -30.4928    0.5544   26.7316 C.2     1  UNL1        0.2087
     14 O         -31.5061    0.1857   27.0739 O.2     1  UNL1       -0.2882
@<TRIPOS>BOND
     1     1     2    1
     2     2     3    1
     3     1     4    1
     4     4     5    1
     5     3     6    1
     6     3     7    1
     7     5     7    1
     8     5    13    1
     9    13    14    2
    10     6     8   ar
    11     8     9   ar
    12     9    10   ar
    13    10    12   ar
    14    12    11   ar
    15    11     6   ar
