@<TRIPOS>MOLECULE
outputs/IAG933/test6/raw/output_9986_IAG933_linker_design_.xyz
 44 47 0 0 0
SMALL
GASTEIGER

@<TRIPOS>ATOM
      1 C         -24.8550   -1.0120   30.1430 C.3     1  UNL1        0.1553
      2 C         -24.9730   -2.5050   29.7880 C.2     1  UNL1        0.0060
      3 C         -23.9060   -3.1730   29.1460 C.2     1  UNL1       -0.0019
      4 C         -23.9890   -4.5490   28.8530 C.2     1  UNL1       -0.0002
      5 C         -25.1370   -5.2800   29.2050 C.2     1  UNL1       -0.0000
      6 C         -26.2320   -4.6110   29.7840 C.2     1  UNL1       -0.0002
      7 C         -26.1550   -3.2320   30.0650 C.2     1  UNL1       -0.0019
      8 C         -25.3870   -0.6790   31.5710 C.3     1  UNL1        0.1042
      9 C         -25.1890    0.7730   32.0280 C.3     1  UNL1        0.0217
     10 C         -25.3360    0.6840   33.5440 C.3     1  UNL1        0.0203
     11 C         -24.8290   -0.7150   33.9050 C.3     1  UNL1        0.0888
     12 N         -24.7580   -1.4810   32.6460 N.3     1  UNL1       -0.2166
     13 C         -25.6880    1.6140   26.4610 C.3     1  UNL1        0.0746
     14 C         -26.2500    2.9200   26.3950 C.2     1  UNL1        0.0549
     15 C         -25.6420    4.0930   27.1230 C.2     1  UNL1        0.2624
     16 N         -25.6140    5.2520   26.4490 N.am    1  UNL1       -0.2000
     17 C         -25.0260    6.4790   26.9630 C.3     1  UNL1        0.1388
     18 O         -25.1430    3.9660   28.2430 O.2     1  UNL1       -0.2687
     19 C         -27.4380    3.0910   25.6450 C.2     1  UNL1        0.1021
     20 N         -28.0750    2.0890   25.0030 N.2     1  UNL1       -0.2119
     21 C         -27.5430    0.8490   25.0790 C.2     1  UNL1        0.2341
     22 O         -28.1930   -0.2080   24.4770 O.2     1  UNL1       -0.4585
     23 C         -29.4600    0.0050   23.8660 C.3     1  UNL1        0.2423
     24 C         -30.0650   -1.3770   23.5730 C.3     1  UNL1        0.2292
     25 O         -30.7290   -1.8780   24.7210 O.3     1  UNL1       -0.2162
     26 C         -26.3540    0.5760   25.7770 C.3     1  UNL1        0.2401
     27 F         -25.8600   -0.6810   25.7950 F       1  UNL1       -0.2269
     28 C         -24.7212    1.1635   27.4259 C.3     1  UNL1        0.0648
     29 C         -21.9735    1.7208   27.0346 C.2     1  UNL1        0.5826
     30 O         -25.3693   -0.1945   29.1455 O.3     1  UNL1       -0.3299
     31 O         -22.5848    2.1117   26.0014 O.co2   1  UNL1       -0.1952
     32 N         -22.8285    0.2473   30.1246 N.2     1  UNL1        0.1967
     33 C         -29.5464    3.1546   28.5151 C.3     1  UNL1        0.0027
     34 C         -24.7387    1.0944   28.8809 C.3     1  UNL1        0.2588
     35 C         -28.4884    4.2430   28.7866 C.3     1  UNL1        0.0343
     36 C         -27.7728    1.3818   28.9262 C.3     1  UNL1        0.0201
     37 N         -25.4600    2.1647   29.7206 N.3     1  UNL1       -0.1836
     38 C         -26.9484    2.4706   29.6543 C.3     1  UNL1        0.1059
     39 N         -22.3802    0.8390   28.0094 N.am    1  UNL1        0.0785
     40 C         -27.7167    3.7406   30.0037 C.3     1  UNL1        0.1679
     41 C         -23.2998    0.9784   28.9798 C.2     1  UNL1        0.4399
     42 O         -28.7756    3.6806   31.0822 O.3     1  UNL1       -0.2217
     43 O         -20.8045    2.0739   27.1020 O.co2   1  UNL1       -0.1952
     44 C         -29.2738    1.7352   29.0610 C.3     1  UNL1        0.0016
@<TRIPOS>BOND
     1     1    30    1
     2     2     7    1
     3     2     1    1
     4     3     2    2
     5     4     3    1
     6     4     5    2
     7     5     6    1
     8     6     7    2
     9     8     1    1
    10     8     9    1
    11     8    12    1
    12     9    10    1
    13    10    11    1
    14    12    11    1
    15    13    28    1
    16    14    13    1
    17    14    15    1
    18    15    18    2
    19    16    17    1
    20    16    15    1
    21    19    14    2
    22    20    21    2
    23    20    19    1
    24    21    26    1
    25    22    21    1
    26    23    22    1
    27    24    23    1
    28    24    25    1
    29    26    27    1
    30    26    13    1
    31    29    43   ar
    32    29    39    1
    33    31    29   ar
    34    33    35    1
    35    33    44    1
    36    34    28    1
    37    34    41    1
    38    34    30    1
    39    34    37    1
    40    35    40    1
    41    36    44    1
    42    36    38    1
    43    38    37    1
    44    38    40    1
    45    39    41    1
    46    40    42    1
    47    41    32    2
