@<TRIPOS>MOLECULE
outputs/IAG933/test6/raw/output_9988_IAG933_linker_design_.xyz
 48 53 0 0 0
SMALL
GASTEIGER

@<TRIPOS>ATOM
      1 C         -24.8550   -1.0120   30.1430 C.3     1  UNL1        0.0411
      2 C         -24.9730   -2.5050   29.7880 C.2     1  UNL1       -0.0211
      3 C         -23.9060   -3.1730   29.1460 C.2     1  UNL1       -0.0042
      4 C         -23.9890   -4.5490   28.8530 C.2     1  UNL1       -0.0003
      5 C         -25.1370   -5.2800   29.2050 C.2     1  UNL1       -0.0000
      6 C         -26.2320   -4.6110   29.7840 C.2     1  UNL1       -0.0003
      7 C         -26.1550   -3.2320   30.0650 C.2     1  UNL1       -0.0042
      8 C         -25.3870   -0.6790   31.5710 C.3     1  UNL1        0.0769
      9 C         -25.1890    0.7730   32.0280 C.3     1  UNL1        0.0192
     10 C         -25.3360    0.6840   33.5440 C.3     1  UNL1        0.0202
     11 C         -24.8290   -0.7150   33.9050 C.3     1  UNL1        0.0887
     12 N         -24.7580   -1.4810   32.6460 N.3     1  UNL1       -0.2191
     13 C         -25.6880    1.6140   26.4610 C.2     1  UNL1        0.0373
     14 C         -26.2500    2.9200   26.3950 C.2     1  UNL1        0.0742
     15 C         -25.6420    4.0930   27.1230 C.2     1  UNL1        0.2229
     16 N         -25.6140    5.2520   26.4490 N.2     1  UNL1       -0.2356
     17 C         -25.0260    6.4790   26.9630 C.3     1  UNL1        0.1550
     18 O         -25.1430    3.9660   28.2430 O.2     1  UNL1       -0.4503
     19 C         -27.4380    3.0910   25.6450 C.2     1  UNL1        0.1068
     20 N         -28.0750    2.0890   25.0030 N.2     1  UNL1       -0.2081
     21 C         -27.5430    0.8490   25.0790 C.2     1  UNL1        0.2533
     22 O         -28.1930   -0.2080   24.4770 O.2     1  UNL1       -0.4558
     23 C         -29.4600    0.0050   23.8660 C.3     1  UNL1        0.2426
     24 C         -30.0650   -1.3770   23.5730 C.3     1  UNL1        0.2292
     25 O         -30.7290   -1.8780   24.7210 O.3     1  UNL1       -0.2162
     26 C         -26.3540    0.5760   25.7770 C.2     1  UNL1        0.1928
     27 F         -25.8600   -0.6810   25.7950 F       1  UNL1       -0.1992
     28 C         -28.4903    3.4603   31.6127 C.3     1  UNL1        0.2117
     29 C         -26.5126    6.2167   30.7896 C.3     1  UNL1        0.1490
     30 N         -26.9287    3.6965   30.3177 N.3     1  UNL1       -0.2135
     31 O         -29.2596    4.0715   28.8885 O.3     1  UNL1       -0.2216
     32 C         -27.2756    4.1152   31.5350 C.3     1  UNL1        0.2109
     33 C         -24.5422    1.3615   27.1079 C.2     1  UNL1        0.0192
     34 C         -25.7940    4.0424   29.5232 C.3     1  UNL1        0.2148
     35 CL        -23.3074    2.7158   25.0915 Cl      1  UNL1       -0.0808
     36 C         -25.1002   -0.2470   28.9306 C.3     1  UNL1        0.0399
     37 C         -24.9132    2.7490   30.0707 C.3     1  UNL1        0.1984
     38 C         -23.4526    1.8790   26.5400 C.2     1  UNL1        0.0769
     39 O         -28.7716    2.6843   32.7002 O.3     1  UNL1       -0.2174
     40 C         -29.3995    1.2885   28.7790 C.3     1  UNL1        0.0370
     41 C         -22.1726    1.8419   27.1777 C.2     1  UNL1        0.1332
     42 O         -27.0871    5.5379   31.8671 O.3     1  UNL1       -0.3380
     43 C         -25.3447    5.4410   30.1034 C.3     1  UNL1        0.0910
     44 C         -28.2714    2.3749   30.4573 C.3     1  UNL1        0.1272
     45 C         -24.5147    0.8440   28.5034 C.3     1  UNL1        0.1389
     46 O         -24.0925    1.7713   29.3299 O.3     1  UNL1       -0.3466
     47 C         -28.7095    2.6909   28.9909 C.3     1  UNL1        0.1694
     48 N         -21.3560    1.3123   27.9254 N.2     1  UNL1       -0.1454
@<TRIPOS>BOND
     1     1    36    1
     2     2     7    1
     3     2     1    1
     4     3     2    2
     5     4     3    1
     6     4     5    2
     7     5     6    1
     8     6     7    2
     9     8     1    1
    10     8     9    1
    11     8    12    1
    12     9    10    1
    13    10    11    1
    14    12    11    1
    15    13    33    1
    16    14    13    1
    17    14    15    1
    18    15    18    1
    19    16    17    1
    20    16    15    2
    21    18    34    1
    22    19    14    2
    23    20    21    2
    24    20    19    1
    25    21    26    1
    26    22    21    1
    27    23    22    1
    28    24    23    1
    29    24    25    1
    30    26    27    1
    31    26    13    2
    32    28    39    1
    33    29    42    1
    34    30    44    1
    35    30    32    1
    36    31    47    1
    37    32    28    1
    38    32    42    1
    39    33    45    1
    40    34    37    1
    41    34    43    1
    42    34    30    1
    43    35    38    1
    44    38    33    2
    45    38    41    1
    46    40    47    1
    47    41    48    2
    48    43    29    1
    49    44    28    1
    50    45    36    1
    51    45    46    1
    52    46    37    1
    53    47    44    1
