@<TRIPOS>MOLECULE
outputs/IAG933/test6/raw/output_9989_IAG933_linker_design_.xyz
 43 48 0 0 0
SMALL
GASTEIGER

@<TRIPOS>ATOM
      1 C         -24.8550   -1.0120   30.1430 C.3     1  UNL1        0.1248
      2 C         -24.9730   -2.5050   29.7880 C.2     1  UNL1       -0.0134
      3 C         -23.9060   -3.1730   29.1460 C.2     1  UNL1       -0.0040
      4 C         -23.9890   -4.5490   28.8530 C.2     1  UNL1       -0.0003
      5 C         -25.1370   -5.2800   29.2050 C.2     1  UNL1       -0.0000
      6 C         -26.2320   -4.6110   29.7840 C.2     1  UNL1       -0.0003
      7 C         -26.1550   -3.2320   30.0650 C.2     1  UNL1       -0.0040
      8 C         -25.3870   -0.6790   31.5710 C.3     1  UNL1        0.0933
      9 C         -25.1890    0.7730   32.0280 C.3     1  UNL1        0.0963
     10 C         -25.3360    0.6840   33.5440 C.3     1  UNL1        0.0294
     11 C         -24.8290   -0.7150   33.9050 C.3     1  UNL1        0.0892
     12 N         -24.7580   -1.4810   32.6460 N.3     1  UNL1       -0.2183
     13 C         -25.6880    1.6140   26.4610 C.3     1  UNL1        0.0954
     14 C         -26.2500    2.9200   26.3950 C.2     1  UNL1        0.0590
     15 C         -25.6420    4.0930   27.1230 C.2     1  UNL1        0.2628
     16 N         -25.6140    5.2520   26.4490 N.am    1  UNL1       -0.2000
     17 C         -25.0260    6.4790   26.9630 C.3     1  UNL1        0.1388
     18 O         -25.1430    3.9660   28.2430 O.2     1  UNL1       -0.2686
     19 C         -27.4380    3.0910   25.6450 C.2     1  UNL1        0.1025
     20 N         -28.0750    2.0890   25.0030 N.2     1  UNL1       -0.2118
     21 C         -27.5430    0.8490   25.0790 C.2     1  UNL1        0.2344
     22 O         -28.1930   -0.2080   24.4770 O.2     1  UNL1       -0.4585
     23 C         -29.4600    0.0050   23.8660 C.3     1  UNL1        0.2423
     24 C         -30.0650   -1.3770   23.5730 C.3     1  UNL1        0.2292
     25 O         -30.7290   -1.8780   24.7210 O.3     1  UNL1       -0.2162
     26 C         -26.3540    0.5760   25.7770 C.3     1  UNL1        0.2441
     27 F         -25.8600   -0.6810   25.7950 F       1  UNL1       -0.2265
     28 C         -21.3357    1.7510   27.2448 C.2     1  UNL1        0.2889
     29 O         -22.6086   -0.3608   29.8421 O.3     1  UNL1       -0.3064
     30 C         -23.7020    2.0043   25.3732 C.2     1  UNL1        0.0399
     31 O         -24.9545    3.0817   31.2420 O.2     1  UNL1       -0.2731
     32 C         -24.3197    1.4641   26.5288 C.2     1  UNL1        0.0221
     33 C         -22.4300    2.5410   25.1676 C.2     1  UNL1        0.1820
     34 C         -20.5999   -0.2381   28.9477 C.3     1  UNL1        0.0375
     35 N         -24.1084    1.4344   30.0390 N.am    1  UNL1       -0.1445
     36 F         -20.2203    2.0971   27.8364 F       1  UNL1       -0.1630
     37 C         -22.3437    1.0456   27.8996 C.2     1  UNL1        0.1021
     38 O         -24.4278   -0.0449   28.1157 O.2     1  UNL1       -0.4419
     39 C         -24.7209    1.9260   31.0906 C.2     1  UNL1        0.2469
     40 O         -21.4111    2.3175   26.0597 O.2     1  UNL1       -0.4261
     41 C         -21.9127    0.2823   28.7762 C.3     1  UNL1        0.1508
     42 C         -24.0205    0.1069   29.6571 C.3     1  UNL1        0.3228
     43 C         -23.6393    0.9388   27.5546 C.2     1  UNL1        0.1427
@<TRIPOS>BOND
     1     1     2    1
     2     1     8    1
     3     2     7    1
     4     3     2    2
     5     4     3    1
     6     4     5    2
     7     5     6    1
     8     6     7    2
     9     8     9    1
    10     8    12    1
    11     9    10    1
    12    10    11    1
    13    12    11    1
    14    13    32    1
    15    14    13    1
    16    14    15    1
    17    15    18    2
    18    16    17    1
    19    16    15    1
    20    19    14    2
    21    20    21    2
    22    20    19    1
    23    21    26    1
    24    22    21    1
    25    23    22    1
    26    24    23    1
    27    24    25    1
    28    26    27    1
    29    26    13    1
    30    28    36    1
    31    28    37    2
    32    30    32    1
    33    32    43    2
    34    33    30    2
    35    33    40    1
    36    35    39    1
    37    37    41    1
    38    39    31    2
    39    39     9    1
    40    40    28    1
    41    41    34    1
    42    41    29    1
    43    42    38    1
    44    42    29    1
    45    42    35    1
    46    42     1    1
    47    43    37    1
    48    43    38    1
