@<TRIPOS>MOLECULE
outputs/IAG933/test6/raw/output_999_IAG933_linker_design_.xyz
 45 48 0 0 0
SMALL
GASTEIGER

@<TRIPOS>ATOM
      1 C         -24.8550   -1.0120   30.1430 C.3     1  UNL1        0.0985
      2 C         -24.9730   -2.5050   29.7880 C.2     1  UNL1       -0.0064
      3 C         -23.9060   -3.1730   29.1460 C.2     1  UNL1       -0.0029
      4 C         -23.9890   -4.5490   28.8530 C.2     1  UNL1       -0.0003
      5 C         -25.1370   -5.2800   29.2050 C.2     1  UNL1       -0.0000
      6 C         -26.2320   -4.6110   29.7840 C.2     1  UNL1       -0.0003
      7 C         -26.1550   -3.2320   30.0650 C.2     1  UNL1       -0.0029
      8 C         -25.3870   -0.6790   31.5710 C.3     1  UNL1        0.0916
      9 C         -25.1890    0.7730   32.0280 C.3     1  UNL1        0.0206
     10 C         -25.3360    0.6840   33.5440 C.3     1  UNL1        0.0203
     11 C         -24.8290   -0.7150   33.9050 C.3     1  UNL1        0.0888
     12 N         -24.7580   -1.4810   32.6460 N.3     1  UNL1       -0.2178
     13 C         -25.6880    1.6140   26.4610 C.2     1  UNL1        0.0177
     14 C         -26.2500    2.9200   26.3950 C.2     1  UNL1        0.0726
     15 C         -25.6420    4.0930   27.1230 C.2     1  UNL1        0.2661
     16 N         -25.6140    5.2520   26.4490 N.am    1  UNL1       -0.1997
     17 C         -25.0260    6.4790   26.9630 C.3     1  UNL1        0.1388
     18 O         -25.1430    3.9660   28.2430 O.2     1  UNL1       -0.2683
     19 C         -27.4380    3.0910   25.6450 C.2     1  UNL1        0.1064
     20 N         -28.0750    2.0890   25.0030 N.2     1  UNL1       -0.2081
     21 C         -27.5430    0.8490   25.0790 C.2     1  UNL1        0.2530
     22 O         -28.1930   -0.2080   24.4770 O.2     1  UNL1       -0.4558
     23 C         -29.4600    0.0050   23.8660 C.3     1  UNL1        0.2426
     24 C         -30.0650   -1.3770   23.5730 C.3     1  UNL1        0.2292
     25 O         -30.7290   -1.8780   24.7210 O.3     1  UNL1       -0.2162
     26 C         -26.3540    0.5760   25.7770 C.2     1  UNL1        0.1892
     27 F         -25.8600   -0.6810   25.7950 F       1  UNL1       -0.1996
     28 O         -19.9313    0.9002   27.9311 O.co2   1  UNL1       -0.2457
     29 C         -22.5853    0.0643   28.1981 C.3     1  UNL1        0.0619
     30 C         -23.1198    0.2910   29.5256 C.3     1  UNL1        0.2140
     31 C         -24.6315    1.2449   27.3452 C.3     1  UNL1        0.0548
     32 O         -27.0306   -0.4962   28.5641 O.co2   1  UNL1       -0.2441
     33 C         -21.3708   -0.8504   28.7555 C.3     1  UNL1        0.1183
     34 C         -20.2446   -0.3378   28.1244 C.2     1  UNL1        0.3650
     35 F         -24.3344    1.3955   24.1596 F       1  UNL1       -0.2291
     36 O         -27.2773    1.6730   29.0253 O.co2   1  UNL1       -0.2441
     37 C         -22.3020    2.0776   25.4393 C.2     1  UNL1        0.0070
     38 O         -22.6327    1.2584   30.1680 O.3     1  UNL1       -0.2049
     39 C         -26.5362    0.6870   28.7065 C.2     1  UNL1        0.3794
     40 C         -22.2246    2.0959   26.7704 C.2     1  UNL1       -0.0277
     41 N         -24.4010    0.1203   29.3853 N.3     1  UNL1       -0.2359
     42 C         -23.1436    1.0926   24.5835 C.3     1  UNL1        0.2192
     43 C         -25.1170    0.9941   28.6503 C.3     1  UNL1        0.1684
     44 C         -23.1425    1.3224   27.4417 C.3     1  UNL1        0.0321
     45 O         -19.2429   -1.2485   27.7997 O.co2   1  UNL1       -0.2457
@<TRIPOS>BOND
     1     1     2    1
     2     2     7    1
     3     3     2    2
     4     4     3    1
     5     4     5    2
     6     5     6    1
     7     6     7    2
     8     8     1    1
     9     8     9    1
    10     8    12    1
    11     9    10    1
    12    10    11    1
    13    12    11    1
    14    14    13    1
    15    14    15    1
    16    15    18    2
    17    16    17    1
    18    16    15    1
    19    19    14    2
    20    20    21    2
    21    20    19    1
    22    21    26    1
    23    22    21    1
    24    23    22    1
    25    24    23    1
    26    24    25    1
    27    26    27    1
    28    26    13    2
    29    28    34   ar
    30    29    33    1
    31    29    30    1
    32    30    38    1
    33    31    13    1
    34    31    44    1
    35    31    43    1
    36    32    39   ar
    37    34    33    1
    38    35    42    1
    39    37    40    2
    40    39    36   ar
    41    41    30    1
    42    41     1    1
    43    42    37    1
    44    43    39    1
    45    43    41    1
    46    44    40    1
    47    44    29    1
    48    45    34   ar
