@<TRIPOS>MOLECULE
outputs/IAG933/test6/raw/output_9990_IAG933_linker_design_.xyz
 44 48 0 0 0
SMALL
GASTEIGER

@<TRIPOS>ATOM
      1 C         -24.8550   -1.0120   30.1430 C.3     1  UNL1        0.1305
      2 C         -24.9730   -2.5050   29.7880 C.2     1  UNL1       -0.0013
      3 C         -23.9060   -3.1730   29.1460 C.2     1  UNL1       -0.0026
      4 C         -23.9890   -4.5490   28.8530 C.2     1  UNL1       -0.0003
      5 C         -25.1370   -5.2800   29.2050 C.2     1  UNL1       -0.0000
      6 C         -26.2320   -4.6110   29.7840 C.2     1  UNL1       -0.0003
      7 C         -26.1550   -3.2320   30.0650 C.2     1  UNL1       -0.0026
      8 C         -25.3870   -0.6790   31.5710 C.3     1  UNL1        0.0968
      9 C         -25.1890    0.7730   32.0280 C.3     1  UNL1        0.0210
     10 C         -25.3360    0.6840   33.5440 C.3     1  UNL1        0.0203
     11 C         -24.8290   -0.7150   33.9050 C.3     1  UNL1        0.0888
     12 N         -24.7580   -1.4810   32.6460 N.3     1  UNL1       -0.2174
     13 C         -25.6880    1.6140   26.4610 C.2     1  UNL1        0.0394
     14 C         -26.2500    2.9200   26.3950 C.2     1  UNL1        0.0766
     15 C         -25.6420    4.0930   27.1230 C.2     1  UNL1        0.2664
     16 N         -25.6140    5.2520   26.4490 N.am    1  UNL1       -0.1997
     17 C         -25.0260    6.4790   26.9630 C.3     1  UNL1        0.1388
     18 O         -25.1430    3.9660   28.2430 O.2     1  UNL1       -0.2683
     19 C         -27.4380    3.0910   25.6450 C.2     1  UNL1        0.1067
     20 N         -28.0750    2.0890   25.0030 N.2     1  UNL1       -0.2081
     21 C         -27.5430    0.8490   25.0790 C.2     1  UNL1        0.2533
     22 O         -28.1930   -0.2080   24.4770 O.2     1  UNL1       -0.4558
     23 C         -29.4600    0.0050   23.8660 C.3     1  UNL1        0.2426
     24 C         -30.0650   -1.3770   23.5730 C.3     1  UNL1        0.2292
     25 O         -30.7290   -1.8780   24.7210 O.3     1  UNL1       -0.2162
     26 C         -26.3540    0.5760   25.7770 C.2     1  UNL1        0.1931
     27 F         -25.8600   -0.6810   25.7950 F       1  UNL1       -0.1992
     28 C         -21.8417    1.2585   27.1579 C.2     1  UNL1        0.0014
     29 O         -27.7452    1.7696   29.4110 O.2     1  UNL1       -0.2666
     30 C         -21.9402    0.5982   28.4203 C.2     1  UNL1        0.0174
     31 N         -28.9773    3.7184   29.1877 N.am    1  UNL1       -0.0837
     32 C         -27.8646    2.9584   29.6975 C.2     1  UNL1        0.2854
     33 C         -26.4459    4.7955   32.7899 C.2     1  UNL1        0.0002
     34 C         -25.0969    4.3801   32.7037 C.2     1  UNL1        0.0013
     35 C         -24.6254    3.5491   31.5754 C.2     1  UNL1        0.0167
     36 C         -26.9053    3.4994   30.6841 C.2     1  UNL1        0.0719
     37 N         -23.4825   -0.5258   30.1212 N.pl3   1  UNL1       -0.2322
     38 N         -25.1254    2.0520   29.6525 N.pl3   1  UNL1       -0.2110
     39 C         -23.0597    1.6347   26.4670 C.2     1  UNL1        0.0015
     40 C         -24.3348    1.4978   27.1558 C.2     1  UNL1        0.0190
     41 C         -25.6025    3.1032   30.6926 C.2     1  UNL1        0.0750
     42 C         -27.3503    4.4078   31.7641 C.2     1  UNL1        0.0059
     43 C         -23.2316    0.4413   29.0827 C.2     1  UNL1        0.0808
     44 C         -24.3188    1.2610   28.6600 C.2     1  UNL1        0.0853
@<TRIPOS>BOND
     1     1    37    1
     2     2     7    1
     3     2     1    1
     4     3     2    2
     5     4     3    1
     6     4     5    2
     7     5     6    1
     8     6     7    2
     9     8     1    1
    10     8     9    1
    11     8    12    1
    12     9    10    1
    13    10    11    1
    14    12    11    1
    15    13    40    1
    16    14    13    1
    17    14    15    1
    18    15    18    2
    19    16    17    1
    20    16    15    1
    21    19    14    2
    22    20    21    2
    23    20    19    1
    24    21    26    1
    25    22    21    1
    26    23    22    1
    27    24    23    1
    28    24    25    1
    29    26    27    1
    30    26    13    2
    31    28    30    1
    32    29    32    2
    33    30    43    2
    34    31    32    1
    35    32    36    1
    36    34    33    1
    37    35    34    2
    38    36    41    2
    39    36    42    1
    40    38    41    1
    41    39    40    1
    42    39    28    2
    43    40    44    2
    44    41    35    1
    45    42    33    2
    46    43    37    1
    47    44    43    1
    48    44    38    1
