MODEL 0
MODEL 1
REMARK VINA RESULT:    -8.192      0.000      0.000
REMARK INTER + INTRA:         -13.760
REMARK INTER:                 -12.502
REMARK INTRA:                  -1.257
REMARK UNBOUND:                -1.257
REMARK  Name = No_0-gen_results/8p0m/2024-11-27-11-27-31/
REMARK  9 active torsions:
REMARK  status: ('A' for Active; 'I' for Inactive)
REMARK    1  A    between atoms: C_1  and  C_2
REMARK    2  A    between atoms: C_5  and  C_12
REMARK    3  A    between atoms: N_8  and  C_10
REMARK    4  A    between atoms: C_10  and  C_15
REMARK    5  A    between atoms: C_15  and  C_16
REMARK    6  A    between atoms: C_18  and  O_23
REMARK    7  A    between atoms: O_23  and  C_24
REMARK    8  A    between atoms: C_24  and  C_25
REMARK    9  A    between atoms: C_24  and  C_31
REMARK                            x       y       z     vdW  Elec       q    Type
REMARK                         _______ _______ _______ _____ _____    ______ ____
ROOT
ATOM      1  C   UNL A   1     -24.304   1.314  26.956  0.00  0.00    +0.039 A 
ATOM      2  C   UNL A   1     -24.152   0.427  27.711  0.00  0.00    +0.040 A 
ATOM      3  C   UNL A   1     -22.885   0.007  28.378  0.00  0.00    +0.140 A 
ATOM      4  C   UNL A   1     -21.788   0.850  28.105  0.00  0.00    +0.037 A 
ATOM      5  C   UNL A   1     -21.924   1.887  27.267  0.00  0.00    +0.003 A 
ATOM      6  C   UNL A   1     -23.126   2.195  26.675  0.00  0.00    +0.003 A 
ENDROOT
BRANCH   1   7
ATOM      7  C   UNL A   1     -25.558   1.732  26.366  0.00  0.00    +0.193 C 
ATOM      8  O   UNL A   1     -25.622   2.815  25.771  0.00  0.00    -0.289 OA
BRANCH   7   9
ATOM      9  C   UNL A   1     -26.585   0.898  26.672  0.00  0.00    +0.163 C 
BRANCH   9  11
ATOM     10  C   UNL A   1     -27.947   0.679  24.498  0.00  0.00    +0.249 C 
ATOM     11  N   UNL A   1     -27.786   1.074  25.887  0.00  0.00    -0.267 N 
ATOM     12  O   UNL A   1     -27.097  -0.189  24.135  0.00  0.00    -0.270 OA
ATOM     13  C   UNL A   1     -28.769   1.998  26.508  0.00  0.00    +0.116 C 
BRANCH  10  14
ATOM     14  C   UNL A   1     -29.005   0.869  23.945  0.00  0.00    +0.054 A 
ATOM     15  C   UNL A   1     -29.342   2.033  23.332  0.00  0.00    +0.005 A 
ATOM     16  C   UNL A   1     -30.631   2.281  22.649  0.00  0.00    +0.005 A 
ATOM     17  C   UNL A   1     -31.571   1.198  22.624  0.00  0.00    +0.057 A 
ATOM     18  C   UNL A   1     -31.155  -0.018  23.209  0.00  0.00    +0.005 A 
ATOM     19  C   UNL A   1     -29.940  -0.176  23.826  0.00  0.00    +0.005 A 
BRANCH  17  20
ATOM     20  C   UNL A   1     -32.861   1.285  21.981  0.00  0.00    +0.284 C 
ATOM     21  N   UNL A   1     -33.586   0.374  21.560  0.00  0.00    -0.084 NA
ATOM     22  O   UNL A   1     -33.361   2.505  22.006  0.00  0.00    -0.267 OA
ENDBRANCH  17  20
ENDBRANCH  10  14
ENDBRANCH   9  11
ENDBRANCH   7   9
ENDBRANCH   1   7
BRANCH   3  23
ATOM     23  O   UNL A   1     -22.801  -1.088  29.120  0.00  0.00    -0.462 OA
BRANCH  23  24
ATOM     24  C   UNL A   1     -23.854  -1.465  29.855  0.00  0.00    +0.252 C 
BRANCH  24  25
ATOM     25  C   UNL A   1     -24.597  -2.501  29.652  0.00  0.00    +0.030 A 
ATOM     26  C   UNL A   1     -25.952  -2.556  30.100  0.00  0.00    +0.000 A 
ATOM     27  C   UNL A   1     -26.737  -3.730  30.036  0.00  0.00    -0.000 A 
ATOM     28  C   UNL A   1     -26.098  -4.908  29.531  0.00  0.00    -0.000 A 
ATOM     29  C   UNL A   1     -24.807  -4.909  29.128  0.00  0.00    -0.000 A 
ATOM     30  C   UNL A   1     -24.055  -3.835  29.185  0.00  0.00    +0.000 A 
ENDBRANCH  24  25
BRANCH  24  31
ATOM     31  C   UNL A   1     -24.224  -0.508  30.922  0.00  0.00    -0.044 C 
ATOM     32  C   UNL A   1     -23.546  -0.644  32.163  0.00  0.00    -0.086 C 
ATOM     33  C   UNL A   1     -22.642  -1.464  32.412  0.00  0.00    +0.090 C 
ENDBRANCH  24  31
ENDBRANCH  23  24
ENDBRANCH   3  23
TORSDOF 9
ENDMDL
ENDMDL
