REMARK  Name = No_10-gen_results/8p0m/2024-11-27-11-27-31/
REMARK  4 active torsions:
REMARK  status: ('A' for Active; 'I' for Inactive)
REMARK    1  A    between atoms: C_3  and  C_7
REMARK    2  A    between atoms: C_7  and  C_8
REMARK    3  A    between atoms: C_7  and  C_15
REMARK    4  A    between atoms: C_8  and  C_9
REMARK                            x       y       z     vdW  Elec       q    Type
REMARK                         _______ _______ _______ _____ _____    ______ ____
ROOT
ATOM      1  C   UNL A   1     -26.388   0.291  27.233  0.00  0.00    +0.062 C 
ENDROOT
BRANCH   1   4
ATOM      2  C   UNL A   1     -28.016  -0.814  28.878  0.00  0.00    -0.004 A 
ATOM      3  C   UNL A   1     -28.469  -0.785  29.829  0.00  0.00    -0.000 A 
ATOM      4  C   UNL A   1     -27.136   0.236  28.535  0.00  0.00    -0.019 A 
ATOM      5  C   UNL A   1     -26.875   1.282  29.398  0.00  0.00    -0.004 A 
ATOM      6  C   UNL A   1     -28.361   0.199  30.924  0.00  0.00    -0.000 A 
ATOM      7  C   UNL A   1     -27.528   1.223  30.636  0.00  0.00    -0.000 A 
ENDBRANCH   1   4
BRANCH   1   8
ATOM      8  C   UNL A   1     -27.230   0.269  26.065  0.00  0.00    +0.198 C 
ATOM      9  F   UNL A   1     -28.203  -0.093  25.973  0.00  0.00    -0.234 F 
ENDBRANCH   1   8
BRANCH   1  10
ATOM     10  C   UNL A   1     -25.151   0.303  27.256  0.00  0.00    +0.034 C 
BRANCH  10  11
ATOM     11  C   UNL A   1     -24.276   0.044  28.345  0.00  0.00    -0.022 A 
ATOM     12  C   UNL A   1     -23.356   0.943  28.811  0.00  0.00    -0.004 A 
ATOM     13  C   UNL A   1     -22.351   0.617  29.726  0.00  0.00    -0.000 A 
ATOM     14  C   UNL A   1     -24.062  -1.215  28.955  0.00  0.00    -0.004 A 
ATOM     15  C   UNL A   1     -23.252  -1.536  29.987  0.00  0.00    -0.000 A 
ATOM     16  C   UNL A   1     -22.337  -0.548  30.377  0.00  0.00    -0.000 A 
ENDBRANCH  10  11
ENDBRANCH   1  10
TORSDOF 4
