MODEL 1000
MODEL 1
REMARK VINA RESULT:    -4.874      0.000      0.000
REMARK INTER + INTRA:          -6.052
REMARK INTER:                  -5.729
REMARK INTRA:                  -0.323
REMARK UNBOUND:                -0.323
REMARK  Name = No_1000-gen_results/8p0m/2024-11-27-11-27-31/
REMARK  3 active torsions:
REMARK  status: ('A' for Active; 'I' for Inactive)
REMARK    1  A    between atoms: C_2  and  C_3
REMARK    2  A    between atoms: C_5  and  C_6
REMARK    3  A    between atoms: C_7  and  C_8
REMARK                            x       y       z     vdW  Elec       q    Type
REMARK                         _______ _______ _______ _____ _____    ______ ____
ROOT
ATOM      1  C   UNL A   1     -25.555  -4.129  29.246  0.00  0.00    +0.045 C 
ATOM      2  C   UNL A   1     -25.422  -2.742  29.541  0.00  0.00    +0.001 C 
ENDROOT
BRANCH   1   4
ATOM      3  F   UNL A   1     -24.795  -6.040  29.393  0.00  0.00    -0.193 F 
ATOM      4  C   UNL A   1     -24.555  -4.938  29.189  0.00  0.00    +0.341 C 
ATOM      5  F   UNL A   1     -23.976  -4.757  27.929  0.00  0.00    -0.193 F 
ENDBRANCH   1   4
BRANCH   2   6
ATOM      6  C   UNL A   1     -24.056  -2.328  29.846  0.00  0.00    -0.000 C 
ATOM      7  C   UNL A   1     -23.628  -1.411  29.134  0.00  0.00    -0.000 C 
BRANCH   7   8
ATOM      8  C   UNL A   1     -22.186  -0.987  29.264  0.00  0.00    -0.005 C 
ATOM      9  C   UNL A   1     -21.777   0.197  28.597  0.00  0.00    -0.026 C 
ATOM     10  C   UNL A   1     -22.726   0.887  27.884  0.00  0.00    +0.031 C 
ENDBRANCH   7   8
ENDBRANCH   2   6
TORSDOF 3
ENDMDL
ENDMDL
