MODEL 1001
MODEL 1
REMARK VINA RESULT:    -6.823      0.000      0.000
REMARK INTER + INTRA:         -10.553
REMARK INTER:                  -9.615
REMARK INTRA:                  -0.938
REMARK UNBOUND:                -0.938
REMARK  Name = No_1001-gen_results/8p0m/2024-11-27-11-27-31/
REMARK  7 active torsions:
REMARK  status: ('A' for Active; 'I' for Inactive)
REMARK    1  A    between atoms: C_3  and  C_4
REMARK    2  A    between atoms: C_10  and  C_13
REMARK    3  A    between atoms: C_13  and  N_14
REMARK    4  A    between atoms: N_14  and  C_15
REMARK    5  A    between atoms: N_14  and  C_16
REMARK    6  A    between atoms: C_15  and  C_18
REMARK    7  A    between atoms: C_18  and  N_19
REMARK                            x       y       z     vdW  Elec       q    Type
REMARK                         _______ _______ _______ _____ _____    ______ ____
ROOT
ATOM      1  C   UNL A   1     -23.998  -0.028  27.932  0.00  0.00    +0.118 C 
ENDROOT
BRANCH   1   5
ATOM      2  C   UNL A   1     -24.889   0.111  25.514  0.00  0.00    -0.003 A 
ATOM      3  C   UNL A   1     -25.807   0.118  24.727  0.00  0.00    -0.000 A 
ATOM      4  C   UNL A   1     -27.114   0.335  25.152  0.00  0.00    -0.000 A 
ATOM      5  C   UNL A   1     -25.102   0.070  26.961  0.00  0.00    -0.002 A 
ATOM      6  C   UNL A   1     -26.341   0.378  27.469  0.00  0.00    -0.003 A 
ATOM      7  C   UNL A   1     -27.417   0.462  26.570  0.00  0.00    -0.000 A 
BRANCH   4   8
ATOM      8  C   UNL A   1     -28.328   0.357  24.286  0.00  0.00    -0.000 A 
ATOM      9  C   UNL A   1     -28.873   1.646  24.009  0.00  0.00    -0.000 A 
ATOM     10  C   UNL A   1     -30.034   1.769  23.247  0.00  0.00    +0.000 A 
ATOM     11  C   UNL A   1     -30.796   0.799  23.156  0.00  0.00    +0.000 A 
ATOM     12  C   UNL A   1     -30.403  -0.560  23.423  0.00  0.00    +0.000 A 
ATOM     13  C   UNL A   1     -29.151  -0.743  24.143  0.00  0.00    -0.000 A 
ENDBRANCH   4   8
ENDBRANCH   1   5
BRANCH   1  14
ATOM     14  N   UNL A   1     -24.106  -0.841  28.943  0.00  0.00    -0.301 N 
BRANCH  14  15
ATOM     15  C   UNL A   1     -23.983  -2.257  28.480  0.00  0.00    +0.062 C 
ATOM     16  C   UNL A   1     -24.077  -3.071  29.464  0.00  0.00    +0.015 C 
ATOM     17  C   UNL A   1     -24.573  -4.545  29.229  0.00  0.00    +0.001 C 
ATOM     18  C   UNL A   1     -25.451  -2.900  29.832  0.00  0.00    +0.001 C 
ATOM     19  C   UNL A   1     -26.527  -3.803  29.806  0.00  0.00    +0.000 C 
ATOM     20  C   UNL A   1     -25.856  -4.881  29.183  0.00  0.00    +0.000 C 
ENDBRANCH  14  15
BRANCH  14  21
ATOM     21  C   UNL A   1     -23.495  -0.636  30.031  0.00  0.00    +0.108 C 
BRANCH  21  22
ATOM     22  C   UNL A   1     -23.866   0.593  30.861  0.00  0.00    +0.094 C 
BRANCH  22  23
ATOM     23  N   UNL A   1     -24.201   0.157  32.174  0.00  0.00    -0.269 NA
ATOM     24  C   UNL A   1     -23.526  -1.085  32.555  0.00  0.00    +0.090 C 
ATOM     25  C   UNL A   1     -25.725  -0.138  32.165  0.00  0.00    +0.090 C 
ENDBRANCH  22  23
ENDBRANCH  21  22
ENDBRANCH  14  21
ENDBRANCH   1  14
TORSDOF 7
ENDMDL
ENDMDL
