MODEL 1002
MODEL 1
REMARK VINA RESULT:    -4.710      0.000      0.000
REMARK INTER + INTRA:          -5.034
REMARK INTER:                  -4.985
REMARK INTRA:                  -0.049
REMARK UNBOUND:                -0.049
REMARK  Name = No_1002-gen_results/8p0m/2024-11-27-11-27-31/
REMARK  1 active torsions:
REMARK  status: ('A' for Active; 'I' for Inactive)
REMARK    1  A    between atoms: C_1  and  C_8
REMARK                            x       y       z     vdW  Elec       q    Type
REMARK                         _______ _______ _______ _____ _____    ______ ____
ROOT
ATOM      1  C   UNL A   1     -24.394  -1.243  28.890  0.00  0.00    +0.037 C 
ATOM      2  C   UNL A   1     -24.673  -2.411  29.038  0.00  0.00    -0.041 C 
ATOM      3  C   UNL A   1     -25.891  -2.854  29.552  0.00  0.00    +0.022 C 
ATOM      4  C   UNL A   1     -26.308  -4.251  29.778  0.00  0.00    +0.004 C 
ATOM      5  C   UNL A   1     -25.452  -5.252  29.225  0.00  0.00    +0.001 C 
ATOM      6  C   UNL A   1     -24.239  -4.848  28.658  0.00  0.00    +0.004 C 
ATOM      7  C   UNL A   1     -23.867  -3.553  28.550  0.00  0.00    +0.022 C 
ENDROOT
BRANCH   1   8
ATOM      8  C   UNL A   1     -23.038  -0.874  29.395  0.00  0.00    +0.234 C 
ATOM      9  O   UNL A   1     -22.355  -0.158  28.578  0.00  0.00    -0.283 OA
ENDBRANCH   1   8
TORSDOF 1
ENDMDL
ENDMDL
