MODEL 1003
MODEL 1
REMARK VINA RESULT:    -5.341      0.000      0.000
REMARK INTER + INTRA:          -5.808
REMARK INTER:                  -5.653
REMARK INTRA:                  -0.154
REMARK UNBOUND:                -0.154
REMARK  Name = No_1003-gen_results/8p0m/2024-11-27-11-27-31/
REMARK  1 active torsions:
REMARK  status: ('A' for Active; 'I' for Inactive)
REMARK    1  A    between atoms: C_4  and  C_6
REMARK                            x       y       z     vdW  Elec       q    Type
REMARK                         _______ _______ _______ _____ _____    ______ ____
ROOT
ATOM      1  C   UNL A   1     -26.540  -3.957  29.895  0.00  0.00    -0.000 A 
ATOM      2  C   UNL A   1     -26.086  -4.859  29.593  0.00  0.00    -0.000 A 
ATOM      3  C   UNL A   1     -25.719  -2.740  29.793  0.00  0.00    +0.004 A 
ATOM      4  C   UNL A   1     -24.431  -2.783  29.183  0.00  0.00    +0.071 A 
ATOM      5  C   UNL A   1     -24.812  -5.164  28.886  0.00  0.00    -0.000 A 
ATOM      6  C   UNL A   1     -24.015  -4.040  28.746  0.00  0.00    +0.004 A 
ENDROOT
BRANCH   4   7
ATOM      7  C   UNL A   1     -23.600  -1.657  29.056  0.00  0.00    +0.419 C 
ATOM      8  F   UNL A   1     -22.498  -1.903  28.918  0.00  0.00    -0.166 F 
ATOM      9  F   UNL A   1     -24.016  -0.823  27.992  0.00  0.00    -0.166 F 
ATOM     10  F   UNL A   1     -23.732  -0.853  30.167  0.00  0.00    -0.166 F 
ENDBRANCH   4   7
TORSDOF 1
ENDMDL
ENDMDL
