MODEL 1004
MODEL 1
REMARK VINA RESULT:    -3.804      0.000      0.000
REMARK INTER + INTRA:          -3.804
REMARK INTER:                  -3.804
REMARK INTRA:                   0.000
REMARK UNBOUND:                 0.000
REMARK  Name = No_1004-gen_results/8p0m/2024-11-27-11-27-31/
REMARK  0 active torsions:
REMARK  status: ('A' for Active; 'I' for Inactive)
REMARK                            x       y       z     vdW  Elec       q    Type
REMARK                         _______ _______ _______ _____ _____    ______ ____
ROOT
ATOM      1  N   UNL A   1     -10.374  -9.148  19.010  0.00  0.00    -0.242 NA
ATOM      2  C   UNL A   1      -9.549  -9.035  19.919  0.00  0.00    +0.099 A 
ATOM      3  C   UNL A   1      -8.426  -9.764  19.988  0.00  0.00    +0.021 A 
ATOM      4  C   UNL A   1      -8.129 -10.652  18.879  0.00  0.00    +0.003 A 
ATOM      5  C   UNL A   1      -9.004 -10.609  17.855  0.00  0.00    +0.021 A 
ATOM      6  C   UNL A   1     -10.027  -9.766  17.889  0.00  0.00    +0.099 A 
ENDROOT
TORSDOF 0
ENDMDL
ENDMDL
