MODEL 1005
MODEL 1
REMARK VINA RESULT:    -7.313      0.000      0.000
REMARK INTER + INTRA:         -10.927
REMARK INTER:                  -9.451
REMARK INTRA:                  -1.476
REMARK UNBOUND:                -1.476
REMARK  Name = No_1005-gen_results/8p0m/2024-11-27-11-27-31/
REMARK  5 active torsions:
REMARK  status: ('A' for Active; 'I' for Inactive)
REMARK    1  A    between atoms: C_4  and  C_7
REMARK    2  A    between atoms: C_7  and  C_8
REMARK    3  A    between atoms: C_8  and  C_9
REMARK    4  A    between atoms: C_9  and  C_10
REMARK    5  A    between atoms: C_14  and  C_15
REMARK                            x       y       z     vdW  Elec       q    Type
REMARK                         _______ _______ _______ _____ _____    ______ ____
ROOT
ATOM      1  C   UNL A   1     -22.485   0.375  28.893  0.00  0.00    +0.023 C 
ATOM      2  C   UNL A   1     -21.116  -0.316  28.937  0.00  0.00    +0.005 C 
ENDROOT
BRANCH   1   3
ATOM      3  C   UNL A   1     -22.902   0.845  27.783  0.00  0.00    -0.022 A 
ATOM      4  C   UNL A   1     -22.322   1.879  27.048  0.00  0.00    -0.004 A 
ATOM      5  C   UNL A   1     -22.907   2.268  25.861  0.00  0.00    -0.000 A 
ATOM      6  C   UNL A   1     -24.066   0.258  27.160  0.00  0.00    +0.002 A 
ATOM      7  C   UNL A   1     -24.694   0.708  26.021  0.00  0.00    +0.080 A 
ATOM      8  C   UNL A   1     -24.094   1.753  25.374  0.00  0.00    +0.007 A 
BRANCH   7   9
ATOM      9  C   UNL A   1     -25.927   0.129  25.573  0.00  0.00    +0.388 C 
ATOM     10  O   UNL A   1     -27.028   0.549  26.024  0.00  0.00    -0.241 OA
ATOM     11  O   UNL A   1     -25.897  -0.841  24.705  0.00  0.00    -0.241 OA
ENDBRANCH   7   9
ENDBRANCH   1   3
BRANCH   1  12
ATOM     12  C   UNL A   1     -23.016   0.266  30.102  0.00  0.00    +0.009 C 
ATOM     13  C   UNL A   1     -23.668   1.460  30.715  0.00  0.00    +0.001 C 
BRANCH  12  14
ATOM     14  C   UNL A   1     -23.148  -0.945  30.813  0.00  0.00    +0.030 C 
BRANCH  14  18
ATOM     15  C   UNL A   1     -26.445  -2.831  30.218  0.00  0.00    +0.042 A 
ATOM     16  C   UNL A   1     -26.083  -3.534  29.521  0.00  0.00    +0.003 A 
ATOM     17  C   UNL A   1     -25.459  -1.895  30.781  0.00  0.00    +0.192 A 
ATOM     18  C   UNL A   1     -24.122  -1.867  30.288  0.00  0.00    +0.017 A 
ATOM     19  C   UNL A   1     -23.813  -2.804  29.335  0.00  0.00    -0.001 A 
ATOM     20  C   UNL A   1     -24.751  -3.658  28.872  0.00  0.00    -0.000 A 
ATOM     21  O   UNL A   1     -25.780  -1.002  31.766  0.00  0.00    -0.287 OA
ENDBRANCH  14  18
ENDBRANCH  12  14
ENDBRANCH   1  12
TORSDOF 5
ENDMDL
ENDMDL
