MODEL 1006
MODEL 1
REMARK VINA RESULT:    -4.268      0.000      0.000
REMARK INTER + INTRA:          -4.268
REMARK INTER:                  -4.268
REMARK INTRA:                   0.000
REMARK UNBOUND:                 0.000
REMARK  Name = No_1006-gen_results/8p0m/2024-11-27-11-27-31/
REMARK  0 active torsions:
REMARK  status: ('A' for Active; 'I' for Inactive)
REMARK                            x       y       z     vdW  Elec       q    Type
REMARK                         _______ _______ _______ _____ _____    ______ ____
ROOT
ATOM      1  C   UNL A   1     -24.093  -4.809  28.617  0.00  0.00    +0.000 A 
ATOM      2  C   UNL A   1     -24.969  -5.255  28.995  0.00  0.00    +0.000 A 
ATOM      3  C   UNL A   1     -24.070  -3.353  28.756  0.00  0.00    +0.000 A 
ATOM      4  C   UNL A   1     -25.099  -2.660  29.344  0.00  0.00    +0.000 A 
ATOM      5  C   UNL A   1     -26.187  -4.788  29.657  0.00  0.00    +0.000 A 
ATOM      6  C   UNL A   1     -26.176  -3.379  29.796  0.00  0.00    +0.000 A 
ENDROOT
TORSDOF 0
ENDMDL
ENDMDL
