MODEL 1007
MODEL 1
REMARK VINA RESULT:    -6.511      0.000      0.000
REMARK INTER + INTRA:          -7.227
REMARK INTER:                  -6.891
REMARK INTRA:                  -0.336
REMARK UNBOUND:                -0.336
REMARK  Name = No_1007-gen_results/8p0m/2024-11-27-11-27-31/
REMARK  1 active torsions:
REMARK  status: ('A' for Active; 'I' for Inactive)
REMARK    1  A    between atoms: C_3  and  C_4
REMARK                            x       y       z     vdW  Elec       q    Type
REMARK                         _______ _______ _______ _____ _____    ______ ____
ROOT
ATOM      1  C   UNL A   1     -24.629  -4.964  28.941  0.00  0.00    +0.000 A 
ATOM      2  C   UNL A   1     -24.000  -3.961  28.691  0.00  0.00    +0.000 A 
ATOM      3  C   UNL A   1     -24.415  -2.680  29.052  0.00  0.00    +0.000 A 
ATOM      4  C   UNL A   1     -25.995  -4.869  29.471  0.00  0.00    +0.000 A 
ATOM      5  C   UNL A   1     -26.477  -3.674  29.965  0.00  0.00    +0.000 A 
ATOM      6  C   UNL A   1     -25.711  -2.513  29.727  0.00  0.00    +0.000 A 
ENDROOT
BRANCH   3   7
ATOM      7  C   UNL A   1     -23.720  -1.407  28.780  0.00  0.00    +0.000 A 
ATOM      8  C   UNL A   1     -24.387  -0.516  27.884  0.00  0.00    +0.000 A 
ATOM      9  C   UNL A   1     -23.810   0.702  27.524  0.00  0.00    +0.000 A 
ATOM     10  C   UNL A   1     -22.475   0.929  27.956  0.00  0.00    +0.000 A 
ATOM     11  C   UNL A   1     -21.812   0.083  28.792  0.00  0.00    +0.000 A 
ATOM     12  C   UNL A   1     -22.444  -1.134  29.180  0.00  0.00    +0.000 A 
ENDBRANCH   3   7
TORSDOF 1
ENDMDL
ENDMDL
