REMARK  Name = outputs/IAG933/test6/raw/output_1007_IAG933_linker_design_.xyz
REMARK  11 active torsions:
REMARK  status: ('A' for Active; 'I' for Inactive)
REMARK    1  A    between atoms: C_1  and  C_2
REMARK    2  A    between atoms: C_1  and  C_8
REMARK    3  A    between atoms: C_1  and  N_39
REMARK    4  A    between atoms: C_13  and  C_36
REMARK    5  A    between atoms: C_14  and  C_15
REMARK    6  A    between atoms: C_15  and  O_18
REMARK    7  A    between atoms: O_18  and  C_35
REMARK    8  A    between atoms: C_21  and  O_22
REMARK    9  A    between atoms: O_22  and  C_23
REMARK   10  A    between atoms: C_23  and  C_24
REMARK   11  A    between atoms: C_28  and  N_39
REMARK                            x       y       z     vdW  Elec       q    Type
REMARK                         _______ _______ _______ _____ _____    ______ ____
ROOT
ATOM      1  C   UNL A   1     -24.829   0.527  28.507  0.00  0.00    +0.215 A 
ATOM      2  C   UNL A   1     -21.131   0.899  27.936  0.00  0.00    +0.306 C 
ATOM      3  O   UNL A   1     -19.218   1.773  26.905  0.00  0.00    -0.246 OA
ATOM      4  O   UNL A   1     -20.243   0.011  28.619  0.00  0.00    -0.203 OA
ATOM      5  O   UNL A   1     -21.454   2.253  26.012  0.00  0.00    -0.387 OA
ATOM      6  C   UNL A   1     -23.335   1.336  27.072  0.00  0.00    +0.114 A 
ATOM      7  C   UNL A   1     -24.647   1.149  27.401  0.00  0.00    +0.062 A 
ATOM      8  C   UNL A   1     -20.582   1.650  26.988  0.00  0.00    +0.362 C 
ATOM      9  O   UNL A   1     -23.292   0.415  29.054  0.00  0.00    -0.439 OA
ATOM     10  O   UNL A   1     -23.448   2.301  24.840  0.00  0.00    -0.244 OA
ATOM     11  C   UNL A   1     -22.512   0.863  28.062  0.00  0.00    +0.172 A 
ATOM     12  C   UNL A   1     -22.800   1.942  25.967  0.00  0.00    +0.351 C 
ENDROOT
BRANCH   7  13
ATOM     13  C   UNL A   1     -25.688   1.614  26.461  0.00  0.00    +0.043 C 
ATOM     14  C   UNL A   1     -26.250   2.920  26.395  0.00  0.00    +0.074 C 
ATOM     15  C   UNL A   1     -27.438   3.091  25.645  0.00  0.00    +0.107 C 
ATOM     16  N   UNL A   1     -28.075   2.089  25.003  0.00  0.00    -0.208 NA
ATOM     17  C   UNL A   1     -27.543   0.849  25.079  0.00  0.00    +0.253 C 
ATOM     18  C   UNL A   1     -26.354   0.576  25.777  0.00  0.00    +0.193 C 
ATOM     19  F   UNL A   1     -25.860  -0.681  25.795  0.00  0.00    -0.199 F 
BRANCH  14  20
ATOM     20  C   UNL A   1     -25.642   4.093  27.123  0.00  0.00    +0.224 C 
ATOM     21  N   UNL A   1     -25.614   5.252  26.449  0.00  0.00    -0.236 NA
ATOM     22  C   UNL A   1     -25.026   6.479  26.963  0.00  0.00    +0.155 C 
BRANCH  20  23
ATOM     23  O   UNL A   1     -25.143   3.966  28.243  0.00  0.00    -0.434 OA
BRANCH  23  25
ATOM     24  C   UNL A   1     -25.542   3.810  30.751  0.00  0.00    +0.222 C 
ATOM     25  C   UNL A   1     -24.911   3.276  29.409  0.00  0.00    +0.320 C 
ATOM     26  O   UNL A   1     -26.059   2.851  30.015  0.00  0.00    -0.312 OA
ENDBRANCH  23  25
ENDBRANCH  20  23
ENDBRANCH  14  20
BRANCH  17  27
ATOM     27  O   UNL A   1     -28.193  -0.208  24.477  0.00  0.00    -0.456 OA
BRANCH  27  28
ATOM     28  C   UNL A   1     -29.460   0.005  23.866  0.00  0.00    +0.243 C 
BRANCH  28  29
ATOM     29  C   UNL A   1     -30.065  -1.377  23.573  0.00  0.00    +0.229 C 
ATOM     30  O   UNL A   1     -30.729  -1.878  24.721  0.00  0.00    -0.216 OA
ENDBRANCH  28  29
ENDBRANCH  27  28
ENDBRANCH  17  27
ENDBRANCH   7  13
BRANCH   1  31
ATOM     31  N   UNL A   1     -25.797  -0.242  29.220  0.00  0.00    -0.201 NA
BRANCH  31  32
ATOM     32  C   UNL A   1     -24.855  -1.012  30.143  0.00  0.00    +0.134 C 
BRANCH  32  33
ATOM     33  C   UNL A   1     -24.973  -2.505  29.788  0.00  0.00    -0.001 C 
ATOM     34  C   UNL A   1     -23.906  -3.173  29.146  0.00  0.00    -0.003 C 
ATOM     35  C   UNL A   1     -23.989  -4.549  28.853  0.00  0.00    -0.000 C 
ATOM     36  C   UNL A   1     -25.137  -5.280  29.205  0.00  0.00    -0.000 C 
ATOM     37  C   UNL A   1     -26.232  -4.611  29.784  0.00  0.00    -0.000 C 
ATOM     38  C   UNL A   1     -26.155  -3.232  30.065  0.00  0.00    -0.003 C 
ENDBRANCH  32  33
BRANCH  32  39
ATOM     39  C   UNL A   1     -25.387  -0.679  31.571  0.00  0.00    +0.097 C 
ATOM     40  C   UNL A   1     -25.189   0.773  32.028  0.00  0.00    +0.021 C 
ATOM     41  C   UNL A   1     -25.336   0.684  33.544  0.00  0.00    +0.020 C 
ATOM     42  C   UNL A   1     -24.829  -0.715  33.905  0.00  0.00    +0.089 C 
ATOM     43  N   UNL A   1     -24.758  -1.481  32.646  0.00  0.00    -0.217 NA
ENDBRANCH  32  39
ENDBRANCH  31  32
ENDBRANCH   1  31
TORSDOF 11
