MODEL 1008
MODEL 1
REMARK VINA RESULT:    -4.886      0.000      0.000
REMARK INTER + INTRA:          -5.242
REMARK INTER:                  -5.172
REMARK INTRA:                  -0.070
REMARK UNBOUND:                -0.070
REMARK  Name = No_1008-gen_results/8p0m/2024-11-27-11-27-31/
REMARK  1 active torsions:
REMARK  status: ('A' for Active; 'I' for Inactive)
REMARK    1  A    between atoms: C_2  and  C_7
REMARK                            x       y       z     vdW  Elec       q    Type
REMARK                         _______ _______ _______ _____ _____    ______ ____
ROOT
ATOM      1  C   UNL A   1     -23.842  -3.573  28.545  0.00  0.00    -0.000 A 
ATOM      2  C   UNL A   1     -24.580  -2.666  28.852  0.00  0.00    -0.000 A 
ATOM      3  C   UNL A   1     -25.814  -2.914  29.445  0.00  0.00    -0.000 A 
ATOM      4  C   UNL A   1     -26.271  -4.261  29.669  0.00  0.00    -0.000 A 
ATOM      5  C   UNL A   1     -25.364  -5.249  29.262  0.00  0.00    -0.000 A 
ATOM      6  C   UNL A   1     -24.217  -4.962  28.691  0.00  0.00    -0.000 A 
ENDROOT
BRANCH   2   7
ATOM      7  C   UNL A   1     -24.285  -1.219  28.670  0.00  0.00    -0.005 C 
ATOM      8  C   UNL A   1     -23.445  -0.575  29.400  0.00  0.00    -0.026 C 
ATOM      9  C   UNL A   1     -23.251  -1.045  30.838  0.00  0.00    +0.031 C 
ENDBRANCH   2   7
TORSDOF 1
ENDMDL
ENDMDL
