REMARK  Name = outputs/IAG933/test6/raw/output_1009_IAG933_linker_design_.xyz
REMARK  5 active torsions:
REMARK  status: ('A' for Active; 'I' for Inactive)
REMARK    1  A    between atoms: C_1  and  C_2
REMARK    2  A    between atoms: C_1  and  C_8
REMARK    3  A    between atoms: C_1  and  C_30
REMARK    4  A    between atoms: C_14  and  C_15
REMARK    5  A    between atoms: O_36  and  C_37
REMARK                            x       y       z     vdW  Elec       q    Type
REMARK                         _______ _______ _______ _____ _____    ______ ____
ROOT
ATOM      1  C   UNL A   1     -25.688   1.614  26.461  0.00  0.00    +0.040 C 
ATOM      2  C   UNL A   1     -26.250   2.920  26.395  0.00  0.00    +0.077 C 
ATOM      3  C   UNL A   1     -27.438   3.091  25.645  0.00  0.00    +0.107 C 
ATOM      4  N   UNL A   1     -28.075   2.089  25.003  0.00  0.00    -0.208 NA
ATOM      5  C   UNL A   1     -27.543   0.849  25.079  0.00  0.00    +0.253 C 
ATOM      6  O   UNL A   1     -28.193  -0.208  24.477  0.00  0.00    -0.456 OA
ATOM      7  C   UNL A   1     -29.460   0.005  23.866  0.00  0.00    +0.239 C 
ATOM      8  C   UNL A   1     -30.065  -1.377  23.573  0.00  0.00    +0.193 C 
ATOM      9  O   UNL A   1     -30.729  -1.878  24.721  0.00  0.00    -0.317 OA
ATOM     10  C   UNL A   1     -26.354   0.576  25.777  0.00  0.00    +0.193 C 
ATOM     11  F   UNL A   1     -25.860  -0.681  25.795  0.00  0.00    -0.199 F 
ATOM     12  C   UNL A   1     -24.352   1.335  27.129  0.00  0.00    +0.031 C 
ATOM     13  C   UNL A   1     -32.674   0.604  28.096  0.00  0.00    +0.227 C 
ATOM     14  C   UNL A   1     -25.218  -0.159  28.979  0.00  0.00    +0.037 C 
ATOM     15  O   UNL A   1     -31.149  -0.872  26.865  0.00  0.00    -0.438 OA
ATOM     16  O   UNL A   1     -32.679   1.980  27.803  0.00  0.00    -0.213 OA
ATOM     17  C   UNL A   1     -26.638  -0.197  28.848  0.00  0.00    -0.070 C 
ATOM     18 CL   UNL A   1     -23.212   2.741  24.891  0.00  0.00    -0.082 Cl
ATOM     19  C   UNL A   1     -28.165  -0.571  28.910  0.00  0.00    +0.175 C 
ATOM     20  C   UNL A   1     -21.752   0.908  28.219  0.00  0.00    +0.100 C 
ATOM     21  N   UNL A   1     -22.836   0.263  28.761  0.00  0.00    -0.243 NA
ATOM     22  C   UNL A   1     -21.865   1.717  27.055  0.00  0.00    +0.032 C 
ATOM     23  C   UNL A   1     -33.803  -0.188  27.181  0.00  0.00    +0.049 C 
ATOM     24  C   UNL A   1     -33.371  -0.422  25.658  0.00  0.00    +0.080 C 
ATOM     25  C   UNL A   1     -24.178   0.490  28.308  0.00  0.00    +0.086 C 
ATOM     26  C   UNL A   1     -23.167   1.894  26.507  0.00  0.00    +0.061 C 
ATOM     27  C   UNL A   1     -31.957  -0.955  25.453  0.00  0.00    +0.289 C 
ATOM     28  N   UNL A   1     -30.374   0.828  28.876  0.00  0.00    -0.231 NA
ATOM     29  C   UNL A   1     -28.995   0.767  29.513  0.00  0.00    +0.200 C 
ATOM     30  C   UNL A   1     -31.374  -0.131  28.101  0.00  0.00    +0.229 C 
ENDROOT
BRANCH   2  31
ATOM     31  C   UNL A   1     -25.642   4.093  27.123  0.00  0.00    +0.266 C 
ATOM     32  N   UNL A   1     -25.614   5.252  26.449  0.00  0.00    -0.200 NA
ATOM     33  C   UNL A   1     -25.026   6.479  26.963  0.00  0.00    +0.139 C 
ATOM     34  O   UNL A   1     -25.143   3.966  28.243  0.00  0.00    -0.268 OA
ENDBRANCH   2  31
BRANCH  19  36
ATOM     35  C   UNL A   1     -29.659  -1.690  30.525  0.00  0.00    +0.253 C 
ATOM     36  O   UNL A   1     -29.120  -1.684  29.188  0.00  0.00    -0.466 OA
ENDBRANCH  19  36
BRANCH  14  37
ATOM     37  C   UNL A   1     -24.855  -1.012  30.143  0.00  0.00    +0.069 C 
BRANCH  37  38
ATOM     38  C   UNL A   1     -24.973  -2.505  29.788  0.00  0.00    -0.016 C 
ATOM     39  C   UNL A   1     -23.906  -3.173  29.146  0.00  0.00    -0.004 C 
ATOM     40  C   UNL A   1     -23.989  -4.549  28.853  0.00  0.00    -0.000 C 
ATOM     41  C   UNL A   1     -25.137  -5.280  29.205  0.00  0.00    -0.000 C 
ATOM     42  C   UNL A   1     -26.232  -4.611  29.784  0.00  0.00    -0.000 C 
ATOM     43  C   UNL A   1     -26.155  -3.232  30.065  0.00  0.00    -0.004 C 
ENDBRANCH  37  38
BRANCH  37  44
ATOM     44  C   UNL A   1     -25.387  -0.679  31.571  0.00  0.00    +0.082 C 
ATOM     45  C   UNL A   1     -25.189   0.773  32.028  0.00  0.00    +0.019 C 
ATOM     46  C   UNL A   1     -25.336   0.684  33.544  0.00  0.00    +0.020 C 
ATOM     47  C   UNL A   1     -24.829  -0.715  33.905  0.00  0.00    +0.089 C 
ATOM     48  N   UNL A   1     -24.758  -1.481  32.646  0.00  0.00    -0.219 NA
ENDBRANCH  37  44
ENDBRANCH  14  37
TORSDOF 5
