MODEL 1009
MODEL 1
REMARK VINA RESULT:    -6.022      0.000      0.000
REMARK INTER + INTRA:          -7.461
REMARK INTER:                  -6.726
REMARK INTRA:                  -0.735
REMARK UNBOUND:                -0.735
REMARK  Name = No_1009-gen_results/8p0m/2024-11-27-11-27-31/
REMARK  2 active torsions:
REMARK  status: ('A' for Active; 'I' for Inactive)
REMARK    1  A    between atoms: C_4  and  C_11
REMARK    2  A    between atoms: C_11  and  C_12
REMARK                            x       y       z     vdW  Elec       q    Type
REMARK                         _______ _______ _______ _____ _____    ______ ____
ROOT
ATOM      1  C   UNL A   1     -26.387   0.035  27.185  0.00  0.00    -0.000 A 
ATOM      2  C   UNL A   1     -25.391  -0.326  27.769  0.00  0.00    -0.000 A 
ATOM      3  C   UNL A   1     -24.186   0.352  27.621  0.00  0.00    -0.001 A 
ATOM      4  C   UNL A   1     -22.893   0.001  28.274  0.00  0.00    +0.014 A 
ATOM      5  C   UNL A   1     -21.651   0.704  28.094  0.00  0.00    -0.001 A 
ATOM      6  C   UNL A   1     -21.825   1.946  27.424  0.00  0.00    -0.000 A 
ATOM      7  C   UNL A   1     -26.382   0.342  25.926  0.00  0.00    -0.000 A 
ATOM      8  C   UNL A   1     -25.175   1.112  25.490  0.00  0.00    -0.000 A 
ATOM      9  C   UNL A   1     -23.986   1.066  26.298  0.00  0.00    -0.000 A 
ATOM     10  C   UNL A   1     -22.889   2.024  26.400  0.00  0.00    -0.000 A 
ENDROOT
BRANCH   4  11
ATOM     11  C   UNL A   1     -22.872  -1.016  29.345  0.00  0.00    +0.205 C 
ATOM     12  F   UNL A   1     -23.063  -2.365  29.034  0.00  0.00    -0.228 F 
BRANCH  11  13
ATOM     13  C   UNL A   1     -22.476  -0.672  30.534  0.00  0.00    +0.008 C 
ATOM     14  C   UNL A   1     -23.304  -0.710  31.649  0.00  0.00    -0.027 C 
ATOM     15  C   UNL A   1     -24.702  -1.057  31.356  0.00  0.00    +0.030 C 
ENDBRANCH  11  13
ENDBRANCH   4  11
TORSDOF 2
ENDMDL
ENDMDL
