REMARK  Name = outputs/IAG933/test6/raw/output_101_IAG933_linker_design_.xyz
REMARK  13 active torsions:
REMARK  status: ('A' for Active; 'I' for Inactive)
REMARK    1  A    between atoms: C_1  and  C_2
REMARK    2  A    between atoms: C_1  and  C_8
REMARK    3  A    between atoms: C_1  and  C_41
REMARK    4  A    between atoms: C_13  and  C_38
REMARK    5  A    between atoms: C_14  and  C_15
REMARK    6  A    between atoms: C_21  and  O_22
REMARK    7  A    between atoms: O_22  and  C_23
REMARK    8  A    between atoms: C_23  and  C_24
REMARK    9  A    between atoms: N_29  and  C_41
REMARK   10  A    between atoms: C_30  and  C_38
REMARK   11  A    between atoms: C_32  and  N_40
REMARK   12  A    between atoms: N_34  and  C_38
REMARK   13  A    between atoms: N_34  and  C_41
REMARK                            x       y       z     vdW  Elec       q    Type
REMARK                         _______ _______ _______ _____ _____    ______ ____
ROOT
ATOM      1  C   UNL A   1     -25.380  -0.247  28.881  0.00  0.00    +0.175 C 
ENDROOT
BRANCH   1   3
ATOM      2  C   UNL A   1     -27.976  -0.118  29.183  0.00  0.00    +0.343 C 
ATOM      3  N   UNL A   1     -26.781  -0.099  29.247  0.00  0.00    -0.171 NA
ATOM      4  O   UNL A   1     -28.625  -0.508  28.206  0.00  0.00    -0.249 OA
ATOM      5  N   UNL A   1     -28.662   0.590  30.138  0.00  0.00    -0.155 NA
BRANCH   5   7
ATOM      6  O   UNL A   1     -30.241   2.181  29.596  0.00  0.00    -0.314 OA
ATOM      7  C   UNL A   1     -30.115   0.795  29.896  0.00  0.00    +0.260 C 
ATOM      8  C   UNL A   1     -30.901   1.654  30.700  0.00  0.00    +0.257 C 
ATOM      9  N   UNL A   1     -31.160   2.490  31.920  0.00  0.00    -0.095 NA
ENDBRANCH   5   7
ENDBRANCH   1   3
BRANCH   1  10
ATOM     10  C   UNL A   1     -24.855  -1.012  30.143  0.00  0.00    +0.075 C 
BRANCH  10  11
ATOM     11  C   UNL A   1     -24.973  -2.505  29.788  0.00  0.00    -0.018 C 
ATOM     12  C   UNL A   1     -23.906  -3.173  29.146  0.00  0.00    -0.004 C 
ATOM     13  C   UNL A   1     -23.989  -4.549  28.853  0.00  0.00    -0.000 C 
ATOM     14  C   UNL A   1     -25.137  -5.280  29.205  0.00  0.00    -0.000 C 
ATOM     15  C   UNL A   1     -26.232  -4.611  29.784  0.00  0.00    -0.000 C 
ATOM     16  C   UNL A   1     -26.155  -3.232  30.065  0.00  0.00    -0.004 C 
ENDBRANCH  10  11
BRANCH  10  17
ATOM     17  C   UNL A   1     -25.387  -0.679  31.571  0.00  0.00    +0.080 C 
ATOM     18  C   UNL A   1     -25.189   0.773  32.028  0.00  0.00    +0.019 C 
ATOM     19  C   UNL A   1     -25.336   0.684  33.544  0.00  0.00    +0.020 C 
ATOM     20  C   UNL A   1     -24.829  -0.715  33.905  0.00  0.00    +0.089 C 
ATOM     21  N   UNL A   1     -24.758  -1.481  32.646  0.00  0.00    -0.219 NA
ENDBRANCH  10  17
ENDBRANCH   1  10
BRANCH   1  22
ATOM     22  N   UNL A   1     -24.941   1.020  28.321  0.00  0.00    -0.186 NA
BRANCH  22  23
ATOM     23  C   UNL A   1     -24.293   1.340  27.090  0.00  0.00    +0.178 C 
BRANCH  23  24
ATOM     24  C   UNL A   1     -25.688   1.614  26.461  0.00  0.00    +0.041 C 
ATOM     25  C   UNL A   1     -26.250   2.920  26.395  0.00  0.00    +0.074 C 
ATOM     26  C   UNL A   1     -27.438   3.091  25.645  0.00  0.00    +0.106 C 
ATOM     27  N   UNL A   1     -28.075   2.089  25.003  0.00  0.00    -0.208 NA
ATOM     28  C   UNL A   1     -27.543   0.849  25.079  0.00  0.00    +0.253 C 
ATOM     29  C   UNL A   1     -26.354   0.576  25.777  0.00  0.00    +0.191 C 
ATOM     30  F   UNL A   1     -25.860  -0.681  25.795  0.00  0.00    -0.200 F 
BRANCH  25  31
ATOM     31  C   UNL A   1     -25.642   4.093  27.123  0.00  0.00    +0.266 C 
ATOM     32  N   UNL A   1     -25.614   5.252  26.449  0.00  0.00    -0.200 NA
ATOM     33  C   UNL A   1     -25.026   6.479  26.963  0.00  0.00    +0.139 C 
ATOM     34  O   UNL A   1     -25.143   3.966  28.243  0.00  0.00    -0.268 OA
ENDBRANCH  25  31
BRANCH  28  35
ATOM     35  O   UNL A   1     -28.193  -0.208  24.477  0.00  0.00    -0.456 OA
BRANCH  35  36
ATOM     36  C   UNL A   1     -29.460   0.005  23.866  0.00  0.00    +0.243 C 
BRANCH  36  37
ATOM     37  C   UNL A   1     -30.065  -1.377  23.573  0.00  0.00    +0.229 C 
ATOM     38  O   UNL A   1     -30.729  -1.878  24.721  0.00  0.00    -0.216 OA
ENDBRANCH  36  37
ENDBRANCH  35  36
ENDBRANCH  28  35
ENDBRANCH  23  24
BRANCH  23  39
ATOM     39  C   UNL A   1     -22.788   1.258  27.476  0.00  0.00    +0.281 C 
ATOM     40  N   UNL A   1     -21.901   1.923  26.736  0.00  0.00    -0.086 NA
ATOM     41  O   UNL A   1     -22.394   0.550  28.413  0.00  0.00    -0.270 OA
ENDBRANCH  23  39
ENDBRANCH  22  23
ENDBRANCH   1  22
TORSDOF 13
