REMARK  Name = No_1010-gen_results/8p0m/2024-11-27-11-27-31/
REMARK  10 active torsions:
REMARK  status: ('A' for Active; 'I' for Inactive)
REMARK    1  A    between atoms: C_3  and  C_7
REMARK    2  A    between atoms: C_7  and  C_9
REMARK    3  A    between atoms: C_9  and  C_10
REMARK    4  A    between atoms: C_10  and  C_11
REMARK    5  A    between atoms: C_11  and  C_12
REMARK    6  A    between atoms: C_12  and  C_13
REMARK    7  A    between atoms: N_15  and  C_17
REMARK    8  A    between atoms: C_17  and  C_18
REMARK    9  A    between atoms: C_18  and  C_19
REMARK   10  A    between atoms: C_18  and  C_25
REMARK                            x       y       z     vdW  Elec       q    Type
REMARK                         _______ _______ _______ _____ _____    ______ ____
ROOT
ATOM      1  C   UNL A   1     -24.128   1.736  29.215  0.00  0.00    +0.226 C 
ATOM      2  O   UNL A   1     -22.963   1.522  29.177  0.00  0.00    -0.275 OA
ATOM      3  N   UNL A   1     -24.778   1.666  30.418  0.00  0.00    -0.277 N 
ATOM      4  C   UNL A   1     -24.181   0.984  31.583  0.00  0.00    +0.115 C 
ENDROOT
BRANCH   1   5
ATOM      5  C   UNL A   1     -24.827   2.340  27.986  0.00  0.00    +0.085 C 
BRANCH   5   6
ATOM      6  C   UNL A   1     -24.424   1.943  26.951  0.00  0.00    +0.010 C 
BRANCH   6   7
ATOM      7  C   UNL A   1     -25.071   0.889  26.150  0.00  0.00    +0.002 C 
BRANCH   7   8
ATOM      8  C   UNL A   1     -25.986   0.026  26.727  0.00  0.00    +0.016 C 
BRANCH   8   9
ATOM      9  C   UNL A   1     -27.455   0.382  26.710  0.00  0.00    +0.079 C 
ATOM     10 BR   UNL A   1     -27.978   0.948  25.197  0.00  0.00    -0.077 Br
BRANCH   9  13
ATOM     11  C   UNL A   1     -28.016  -0.814  28.878  0.00  0.00    -0.003 A 
ATOM     12  C   UNL A   1     -28.469  -0.785  29.829  0.00  0.00    -0.000 A 
ATOM     13  C   UNL A   1     -28.196   0.348  28.055  0.00  0.00    -0.012 A 
ATOM     14  C   UNL A   1     -29.019   1.350  28.378  0.00  0.00    -0.003 A 
ATOM     15  C   UNL A   1     -29.625   1.268  29.601  0.00  0.00    -0.000 A 
ATOM     16  C   UNL A   1     -29.379   0.147  30.392  0.00  0.00    -0.000 A 
ENDBRANCH   9  13
ENDBRANCH   8   9
ENDBRANCH   7   8
ENDBRANCH   6   7
ENDBRANCH   5   6
ENDBRANCH   1   5
BRANCH   3  17
ATOM     17  C   UNL A   1     -26.199   1.933  30.493  0.00  0.00    +0.104 C 
BRANCH  17  18
ATOM     18  C   UNL A   1     -26.451   3.009  31.568  0.00  0.00    +0.082 C 
BRANCH  18  19
ATOM     19  C   UNL A   1     -26.496   4.359  30.986  0.00  0.00    +0.064 A 
ATOM     20  N   UNL A   1     -25.495   5.171  31.085  0.00  0.00    -0.248 NA
ATOM     21  C   UNL A   1     -25.470   6.402  30.389  0.00  0.00    +0.094 A 
ATOM     22  C   UNL A   1     -27.730   4.880  30.510  0.00  0.00    +0.015 A 
ATOM     23  C   UNL A   1     -27.792   6.117  29.857  0.00  0.00    -0.002 A 
ATOM     24  C   UNL A   1     -26.626   6.894  29.895  0.00  0.00    -0.003 A 
ATOM     25  C   UNL A   1     -26.632   8.229  29.229  0.00  0.00    +0.033 C 
ENDBRANCH  18  19
BRANCH  18  26
ATOM     26  C   UNL A   1     -26.805   2.607  32.685  0.00  0.00    -0.015 A 
ATOM     27  C   UNL A   1     -27.408   1.578  33.020  0.00  0.00    -0.004 A 
ATOM     28  C   UNL A   1     -27.711   1.181  34.406  0.00  0.00    -0.000 A 
ATOM     29  C   UNL A   1     -27.477   2.112  35.378  0.00  0.00    -0.000 A 
ATOM     30  C   UNL A   1     -26.882   3.322  35.111  0.00  0.00    -0.000 A 
ATOM     31  C   UNL A   1     -26.550   3.605  33.811  0.00  0.00    -0.004 A 
ENDBRANCH  18  26
ENDBRANCH  17  18
ENDBRANCH   3  17
TORSDOF 10
