MODEL 1011
MODEL 1
REMARK VINA RESULT:    -7.071      0.000      0.000
REMARK INTER + INTRA:          -9.124
REMARK INTER:                  -8.724
REMARK INTRA:                  -0.400
REMARK UNBOUND:                -0.400
REMARK  Name = No_1011-gen_results/8p0m/2024-11-27-11-27-31/
REMARK  4 active torsions:
REMARK  status: ('A' for Active; 'I' for Inactive)
REMARK    1  A    between atoms: C_2  and  O_7
REMARK    2  A    between atoms: O_7  and  C_8
REMARK    3  A    between atoms: C_10  and  C_11
REMARK    4  A    between atoms: C_11  and  C_15
REMARK                            x       y       z     vdW  Elec       q    Type
REMARK                         _______ _______ _______ _____ _____    ______ ____
ROOT
ATOM      1  C   UNL A   1     -24.168  -0.380  28.793  0.00  0.00    +0.145 A 
ATOM      2  C   UNL A   1     -24.738  -0.303  27.833  0.00  0.00    +0.034 A 
ATOM      3  C   UNL A   1     -24.224   0.562  26.715  0.00  0.00    -0.015 A 
ATOM      4  C   UNL A   1     -22.957   1.205  27.086  0.00  0.00    -0.004 A 
ATOM      5  C   UNL A   1     -22.356   1.014  28.285  0.00  0.00    +0.003 A 
ATOM      6  C   UNL A   1     -22.889   0.217  29.177  0.00  0.00    +0.037 A 
ENDROOT
BRANCH   1   7
ATOM      7  O   UNL A   1     -24.643  -1.220  29.730  0.00  0.00    -0.454 OA
BRANCH   7   9
ATOM      8  C   UNL A   1     -23.896  -3.063  28.891  0.00  0.00    +0.037 A 
ATOM      9  C   UNL A   1     -24.693  -2.651  29.444  0.00  0.00    +0.145 A 
ATOM     10  C   UNL A   1     -23.965  -4.506  28.611  0.00  0.00    +0.003 A 
ATOM     11  C   UNL A   1     -25.127  -5.256  28.956  0.00  0.00    +0.000 A 
ATOM     12  C   UNL A   1     -26.017  -3.186  29.864  0.00  0.00    +0.037 A 
ATOM     13  C   UNL A   1     -26.115  -4.525  29.630  0.00  0.00    +0.003 A 
ENDBRANCH   7   9
ENDBRANCH   1   7
BRANCH   3  14
ATOM     14  C   UNL A   1     -24.814   0.754  25.462  0.00  0.00    +0.052 C 
BRANCH  14  15
ATOM     15  C   UNL A   1     -25.533  -0.192  24.994  0.00  0.00    -0.026 C 
ATOM     16  C   UNL A   1     -26.933   0.059  24.613  0.00  0.00    -0.030 C 
ATOM     17  C   UNL A   1     -27.356   1.382  24.755  0.00  0.00    +0.030 C 
ENDBRANCH  14  15
ENDBRANCH   3  14
TORSDOF 4
ENDMDL
ENDMDL
