MODEL 1012
MODEL 1
REMARK VINA RESULT:    -4.976      0.000      0.000
REMARK INTER + INTRA:          -4.976
REMARK INTER:                  -4.976
REMARK INTRA:                   0.000
REMARK UNBOUND:                 0.000
REMARK  Name = No_1012-gen_results/8p0m/2024-11-27-11-27-31/
REMARK  0 active torsions:
REMARK  status: ('A' for Active; 'I' for Inactive)
REMARK                            x       y       z     vdW  Elec       q    Type
REMARK                         _______ _______ _______ _____ _____    ______ ____
ROOT
ATOM      1  C   UNL A   1     -24.396  -2.836  29.059  0.00  0.00    +0.030 C 
ATOM      2  C   UNL A   1     -25.415  -2.662  29.686  0.00  0.00    +0.033 C 
ATOM      3  C   UNL A   1     -26.374  -3.639  29.873  0.00  0.00    +0.005 C 
ATOM      4  C   UNL A   1     -26.035  -4.877  29.485  0.00  0.00    +0.001 C 
ATOM      5  C   UNL A   1     -23.431  -1.729  29.064  0.00  0.00    +0.125 C 
ATOM      6  C   UNL A   1     -24.800  -5.102  28.932  0.00  0.00    +0.005 C 
ATOM      7  C   UNL A   1     -23.992  -4.111  28.828  0.00  0.00    +0.033 C 
ATOM      8  O   UNL A   1     -22.389  -1.735  28.816  0.00  0.00    -0.232 OA
ENDROOT
TORSDOF 0
ENDMDL
ENDMDL
