MODEL 1013
MODEL 1
REMARK VINA RESULT:    -5.943      0.000      0.000
REMARK INTER + INTRA:          -6.603
REMARK INTER:                  -6.290
REMARK INTRA:                  -0.313
REMARK UNBOUND:                -0.313
REMARK  Name = No_1013-gen_results/8p0m/2024-11-27-11-27-31/
REMARK  1 active torsions:
REMARK  status: ('A' for Active; 'I' for Inactive)
REMARK    1  A    between atoms: C_3  and  C_4
REMARK                            x       y       z     vdW  Elec       q    Type
REMARK                         _______ _______ _______ _____ _____    ______ ____
ROOT
ATOM      1  C   UNL A   1     -24.609  -3.613  29.496  0.00  0.00    +0.011 A 
ATOM      2  C   UNL A   1     -23.784  -2.798  29.153  0.00  0.00    +0.001 A 
ATOM      3  C   UNL A   1     -24.057  -1.439  29.006  0.00  0.00    +0.000 A 
ATOM      4  C   UNL A   1     -26.034  -3.179  29.609  0.00  0.00    +0.058 A 
ATOM      5  C   UNL A   1     -26.393  -1.860  29.566  0.00  0.00    +0.011 A 
ATOM      6  C   UNL A   1     -25.418  -0.888  29.211  0.00  0.00    +0.001 A 
ATOM      7 CL   UNL A   1     -27.238  -4.324  30.035  0.00  0.00    -0.082 Cl
ENDROOT
BRANCH   3   8
ATOM      8  C   UNL A   1     -23.119  -0.381  28.583  0.00  0.00    +0.000 A 
ATOM      9  C   UNL A   1     -21.683  -0.443  28.677  0.00  0.00    +0.000 A 
ATOM     10  C   UNL A   1     -20.884   0.625  28.227  0.00  0.00    +0.000 A 
ATOM     11  C   UNL A   1     -21.423   1.669  27.413  0.00  0.00    +0.000 A 
ATOM     12  C   UNL A   1     -23.578   0.772  27.809  0.00  0.00    +0.000 A 
ATOM     13  C   UNL A   1     -22.755   1.725  27.286  0.00  0.00    +0.000 A 
ENDBRANCH   3   8
TORSDOF 1
ENDMDL
ENDMDL
