MODEL 1014
MODEL 1
REMARK VINA RESULT:    -6.827      0.000      0.000
REMARK INTER + INTRA:          -9.441
REMARK INTER:                  -8.424
REMARK INTRA:                  -1.017
REMARK UNBOUND:                -1.017
REMARK  Name = No_1014-gen_results/8p0m/2024-11-27-11-27-31/
REMARK  4 active torsions:
REMARK  status: ('A' for Active; 'I' for Inactive)
REMARK    1  A    between atoms: C_15  and  C_16
REMARK    2  A    between atoms: C_16  and  C_17
REMARK    3  A    between atoms: C_17  and  C_18
REMARK    4  A    between atoms: C_19  and  C_20
REMARK                            x       y       z     vdW  Elec       q    Type
REMARK                         _______ _______ _______ _____ _____    ______ ____
ROOT
ATOM      1  C   UNL A   1     -23.449  -2.713  28.995  0.00  0.00    +0.029 A 
ATOM      2  C   UNL A   1     -23.817  -1.791  29.685  0.00  0.00    -0.002 A 
ATOM      3  C   UNL A   1     -25.056  -1.816  30.316  0.00  0.00    -0.000 A 
ATOM      4  C   UNL A   1     -25.961  -2.921  30.129  0.00  0.00    +0.002 A 
ATOM      5  C   UNL A   1     -25.465  -3.932  29.296  0.00  0.00    +0.030 A 
ATOM      6  C   UNL A   1     -24.292  -3.853  28.710  0.00  0.00    +0.140 A 
ATOM      7  F   UNL A   1     -23.894  -4.846  27.937  0.00  0.00    -0.204 F 
ATOM      8  C   UNL A   1     -25.617  -0.729  31.200  0.00  0.00    -0.000 A 
ATOM      9  C   UNL A   1     -26.739  -0.808  31.830  0.00  0.00    -0.000 A 
ATOM     10  C   UNL A   1     -27.170   0.248  32.734  0.00  0.00    -0.000 A 
ATOM     11  C   UNL A   1     -26.229   1.222  33.123  0.00  0.00    -0.000 A 
ATOM     12  C   UNL A   1     -24.758   0.459  31.356  0.00  0.00    -0.000 A 
ATOM     13  C   UNL A   1     -23.532   0.564  30.743  0.00  0.00    -0.004 A 
ATOM     14  C   UNL A   1     -25.127   1.433  32.361  0.00  0.00    -0.000 A 
ATOM     15  C   UNL A   1     -23.020  -0.558  29.926  0.00  0.00    -0.022 A 
ENDROOT
BRANCH  15  16
ATOM     16  C   UNL A   1     -22.455  -0.059  28.663  0.00  0.00    +0.031 C 
BRANCH  16  17
ATOM     17  C   UNL A   1     -22.625   1.201  28.261  0.00  0.00    +0.031 C 
BRANCH  17  18
ATOM     18  C   UNL A   1     -23.294   1.400  27.119  0.00  0.00    -0.024 C 
ATOM     19  C   UNL A   1     -24.369   0.537  26.769  0.00  0.00    +0.018 C 
BRANCH  19  20
ATOM     20  C   UNL A   1     -25.081   0.723  25.520  0.00  0.00    +0.122 C 
ATOM     21  N   UNL A   1     -24.924   0.066  24.643  0.00  0.00    -0.146 NA
ENDBRANCH  19  20
ENDBRANCH  17  18
ENDBRANCH  16  17
ENDBRANCH  15  16
TORSDOF 4
ENDMDL
ENDMDL
