REMARK  Name = No_1014-gen_results/8p0m/2024-11-27-11-27-31/
REMARK  4 active torsions:
REMARK  status: ('A' for Active; 'I' for Inactive)
REMARK    1  A    between atoms: C_15  and  C_16
REMARK    2  A    between atoms: C_16  and  C_17
REMARK    3  A    between atoms: C_17  and  C_18
REMARK    4  A    between atoms: C_19  and  C_20
REMARK                            x       y       z     vdW  Elec       q    Type
REMARK                         _______ _______ _______ _____ _____    ______ ____
ROOT
ATOM      1  C   UNL A   1     -28.016  -0.814  28.878  0.00  0.00    +0.029 A 
ATOM      2  C   UNL A   1     -27.064  -0.119  28.608  0.00  0.00    -0.002 A 
ATOM      3  C   UNL A   1     -25.792  -0.430  29.076  0.00  0.00    -0.000 A 
ATOM      4  C   UNL A   1     -25.576  -1.565  29.936  0.00  0.00    +0.002 A 
ATOM      5  C   UNL A   1     -26.735  -2.300  30.217  0.00  0.00    +0.030 A 
ATOM      6  C   UNL A   1     -27.918  -1.954  29.763  0.00  0.00    +0.140 A 
ATOM      7  F   UNL A   1     -28.965  -2.696  30.072  0.00  0.00    -0.204 F 
ATOM      8  C   UNL A   1     -24.535   0.359  28.802  0.00  0.00    -0.000 A 
ATOM      9  C   UNL A   1     -23.356   0.009  29.190  0.00  0.00    -0.000 A 
ATOM     10  C   UNL A   1     -22.181   0.779  28.810  0.00  0.00    -0.000 A 
ATOM     11  C   UNL A   1     -22.313   1.746  27.794  0.00  0.00    -0.000 A 
ATOM     12  C   UNL A   1     -24.722   1.575  27.991  0.00  0.00    -0.000 A 
ATOM     13  C   UNL A   1     -25.953   1.958  27.515  0.00  0.00    -0.004 A 
ATOM     14  C   UNL A   1     -23.538   2.251  27.502  0.00  0.00    -0.000 A 
ATOM     15  C   UNL A   1     -27.139   1.115  27.780  0.00  0.00    -0.022 A 
ENDROOT
BRANCH  15  16
ATOM     16  C   UNL A   1     -28.277   1.946  28.202  0.00  0.00    +0.031 C 
BRANCH  16  17
ATOM     17  C   UNL A   1     -28.268   2.630  29.346  0.00  0.00    +0.031 C 
BRANCH  17  18
ATOM     18  C   UNL A   1     -27.416   3.657  29.445  0.00  0.00    -0.024 C 
ATOM     19  C   UNL A   1     -26.710   3.876  30.660  0.00  0.00    +0.018 C 
BRANCH  19  20
ATOM     20  C   UNL A   1     -25.807   5.003  30.790  0.00  0.00    +0.122 C 
ATOM     21  N   UNL A   1     -25.977   5.964  30.266  0.00  0.00    -0.146 NA
ENDBRANCH  19  20
ENDBRANCH  17  18
ENDBRANCH  16  17
ENDBRANCH  15  16
TORSDOF 4
