MODEL 1015
MODEL 1
REMARK VINA RESULT:    -6.287      0.000      0.000
REMARK INTER + INTRA:          -7.819
REMARK INTER:                  -7.390
REMARK INTRA:                  -0.429
REMARK UNBOUND:                -0.429
REMARK  Name = No_1015-gen_results/8p0m/2024-11-27-11-27-31/
REMARK  3 active torsions:
REMARK  status: ('A' for Active; 'I' for Inactive)
REMARK    1  A    between atoms: C_3  and  O_7
REMARK    2  A    between atoms: O_7  and  C_8
REMARK    3  A    between atoms: C_11  and  C_14
REMARK                            x       y       z     vdW  Elec       q    Type
REMARK                         _______ _______ _______ _____ _____    ______ ____
ROOT
ATOM      1  C   UNL A   1     -23.495  -0.588  30.190  0.00  0.00    +0.145 A 
ATOM      2  C   UNL A   1     -24.844  -0.689  30.513  0.00  0.00    +0.038 A 
ATOM      3  C   UNL A   1     -25.434  -1.951  30.679  0.00  0.00    +0.011 A 
ATOM      4  C   UNL A   1     -25.433  -2.879  29.747  0.00  0.00    +0.098 A 
ATOM      5  C   UNL A   1     -24.312  -2.835  28.805  0.00  0.00    +0.011 A 
ATOM      6  C   UNL A   1     -23.223  -1.723  29.129  0.00  0.00    +0.038 A 
ENDROOT
BRANCH   4   7
ATOM      7  C   UNL A   1     -26.246  -4.064  29.690  0.00  0.00    +0.477 C 
ATOM      8  N   UNL A   1     -27.520  -3.872  29.975  0.00  0.00    +0.205 NA
ATOM      9  N   UNL A   1     -25.712  -5.245  29.598  0.00  0.00    +0.205 NA
ENDBRANCH   4   7
BRANCH   1  10
ATOM     10  O   UNL A   1     -22.954   0.644  29.928  0.00  0.00    -0.454 OA
BRANCH  10  13
ATOM     11  C   UNL A   1     -24.380   1.761  28.317  0.00  0.00    +0.037 A 
ATOM     12  C   UNL A   1     -24.453   2.275  27.400  0.00  0.00    +0.003 A 
ATOM     13  C   UNL A   1     -23.084   1.241  28.650  0.00  0.00    +0.141 A 
ATOM     14  C   UNL A   1     -22.056   1.244  27.796  0.00  0.00    +0.013 A 
ATOM     15  C   UNL A   1     -22.264   1.867  26.597  0.00  0.00    -0.001 A 
ATOM     16  C   UNL A   1     -23.522   2.408  26.337  0.00  0.00    -0.000 A 
ATOM     17  C   UNL A   1     -20.793   0.649  28.137  0.00  0.00    +0.034 C 
ENDBRANCH  10  13
ENDBRANCH   1  10
TORSDOF 3
ENDMDL
ENDMDL
