REMARK  Name = outputs/IAG933/test6/raw/output_1015_IAG933_linker_design_.xyz
REMARK  9 active torsions:
REMARK  status: ('A' for Active; 'I' for Inactive)
REMARK    1  A    between atoms: C_1  and  C_2
REMARK    2  A    between atoms: C_1  and  C_8
REMARK    3  A    between atoms: C_1  and  N_36
REMARK    4  A    between atoms: C_9  and  N_37
REMARK    5  A    between atoms: C_13  and  N_35
REMARK    6  A    between atoms: C_14  and  C_15
REMARK    7  A    between atoms: C_21  and  O_22
REMARK    8  A    between atoms: O_22  and  C_23
REMARK    9  A    between atoms: C_23  and  C_24
REMARK                            x       y       z     vdW  Elec       q    Type
REMARK                         _______ _______ _______ _____ _____    ______ ____
ROOT
ATOM      1  C   UNL A   1     -21.985   0.704  28.493  0.00  0.00    +0.143 C 
ATOM      2  O   UNL A   1     -23.321   2.478  25.293  0.00  0.00    -0.269 OA
ATOM      3  C   UNL A   1     -21.609  -0.357  29.415  0.00  0.00    +0.053 C 
ATOM      4  C   UNL A   1     -20.983   1.144  27.610  0.00  0.00    +0.090 C 
ATOM      5  C   UNL A   1     -22.783   2.007  26.344  0.00  0.00    +0.289 C 
ATOM      6  C   UNL A   1     -23.668   1.540  27.460  0.00  0.00    +0.258 C 
ATOM      7  N   UNL A   1     -21.422   1.871  26.556  0.00  0.00    -0.177 NA
ATOM      8  N   UNL A   1     -24.816   1.121  27.418  0.00  0.00    -0.223 NA
ATOM      9  N   UNL A   1     -24.369  -0.370  28.938  0.00  0.00    -0.254 NA
ATOM     10  C   UNL A   1     -22.871  -0.529  29.015  0.00  0.00    +0.092 C 
ATOM     11  C   UNL A   1     -25.169  -0.065  28.092  0.00  0.00    +0.152 C 
ATOM     12  O   UNL A   1     -22.861   1.560  28.591  0.00  0.00    -0.331 OA
ENDROOT
BRANCH   8  13
ATOM     13  C   UNL A   1     -25.688   1.614  26.461  0.00  0.00    +0.132 C 
ATOM     14  C   UNL A   1     -26.250   2.920  26.395  0.00  0.00    +0.070 C 
ATOM     15  C   UNL A   1     -27.438   3.091  25.645  0.00  0.00    +0.103 C 
ATOM     16  N   UNL A   1     -28.075   2.089  25.003  0.00  0.00    -0.212 NA
ATOM     17  C   UNL A   1     -27.543   0.849  25.079  0.00  0.00    +0.235 C 
ATOM     18  C   UNL A   1     -26.354   0.576  25.777  0.00  0.00    +0.255 C 
ATOM     19  F   UNL A   1     -25.860  -0.681  25.795  0.00  0.00    -0.225 F 
BRANCH  14  20
ATOM     20  C   UNL A   1     -25.642   4.093  27.123  0.00  0.00    +0.264 C 
ATOM     21  N   UNL A   1     -25.614   5.252  26.449  0.00  0.00    -0.200 NA
ATOM     22  C   UNL A   1     -25.026   6.479  26.963  0.00  0.00    +0.139 C 
ATOM     23  O   UNL A   1     -25.143   3.966  28.243  0.00  0.00    -0.269 OA
ENDBRANCH  14  20
BRANCH  17  24
ATOM     24  O   UNL A   1     -28.193  -0.208  24.477  0.00  0.00    -0.459 OA
BRANCH  24  25
ATOM     25  C   UNL A   1     -29.460   0.005  23.866  0.00  0.00    +0.242 C 
BRANCH  25  26
ATOM     26  C   UNL A   1     -30.065  -1.377  23.573  0.00  0.00    +0.229 C 
ATOM     27  O   UNL A   1     -30.729  -1.878  24.721  0.00  0.00    -0.216 OA
ENDBRANCH  25  26
ENDBRANCH  24  25
ENDBRANCH  17  24
ENDBRANCH   8  13
BRANCH   9  28
ATOM     28  C   UNL A   1     -24.855  -1.012  30.143  0.00  0.00    +0.099 C 
BRANCH  28  29
ATOM     29  C   UNL A   1     -24.973  -2.505  29.788  0.00  0.00    -0.006 C 
ATOM     30  C   UNL A   1     -23.906  -3.173  29.146  0.00  0.00    -0.003 C 
ATOM     31  C   UNL A   1     -23.989  -4.549  28.853  0.00  0.00    -0.000 C 
ATOM     32  C   UNL A   1     -25.137  -5.280  29.205  0.00  0.00    -0.000 C 
ATOM     33  C   UNL A   1     -26.232  -4.611  29.784  0.00  0.00    -0.000 C 
ATOM     34  C   UNL A   1     -26.155  -3.232  30.065  0.00  0.00    -0.003 C 
ENDBRANCH  28  29
BRANCH  28  35
ATOM     35  C   UNL A   1     -25.387  -0.679  31.571  0.00  0.00    +0.111 C 
ATOM     36  C   UNL A   1     -25.189   0.773  32.028  0.00  0.00    +0.114 C 
ATOM     37  C   UNL A   1     -25.336   0.684  33.544  0.00  0.00    +0.042 C 
ATOM     38  C   UNL A   1     -24.829  -0.715  33.905  0.00  0.00    +0.091 C 
ATOM     39  N   UNL A   1     -24.758  -1.481  32.646  0.00  0.00    -0.216 NA
BRANCH  36  40
ATOM     40  N   UNL A   1     -25.391   1.760  31.042  0.00  0.00    -0.206 NA
ATOM     41  O   UNL A   1     -24.024   3.239  31.991  0.00  0.00    -0.273 OA
ATOM     42  C   UNL A   1     -25.065   3.035  31.408  0.00  0.00    +0.242 C 
ATOM     43  C   UNL A   1     -25.983   4.210  31.137  0.00  0.00    +0.096 C 
ENDBRANCH  36  40
ENDBRANCH  28  35
ENDBRANCH   9  28
TORSDOF 9
