MODEL 1016
MODEL 1
REMARK VINA RESULT:    -7.958      0.000      0.000
REMARK INTER + INTRA:         -12.847
REMARK INTER:                 -11.680
REMARK INTRA:                  -1.168
REMARK UNBOUND:                -1.168
REMARK  Name = No_1016-gen_results/8p0m/2024-11-27-11-27-31/
REMARK  8 active torsions:
REMARK  status: ('A' for Active; 'I' for Inactive)
REMARK    1  A    between atoms: C_3  and  C_7
REMARK    2  A    between atoms: C_6  and  C_13
REMARK    3  A    between atoms: N_14  and  C_15
REMARK    4  A    between atoms: C_17  and  C_29
REMARK    5  A    between atoms: C_19  and  C_22
REMARK    6  A    between atoms: C_29  and  O_31
REMARK    7  A    between atoms: O_31  and  C_32
REMARK    8  A    between atoms: C_32  and  C_33
REMARK                            x       y       z     vdW  Elec       q    Type
REMARK                         _______ _______ _______ _____ _____    ______ ____
ROOT
ATOM      1  C   UNL A   1     -26.744   1.623  25.489  0.00  0.00    +0.269 C 
ATOM      2  N   UNL A   1     -25.947   0.549  25.481  0.00  0.00    -0.175 NA
ATOM      3  O   UNL A   1     -26.479   2.576  26.225  0.00  0.00    -0.268 OA
ENDROOT
BRANCH   1   9
ATOM      4  C   UNL A   1     -28.412   0.541  23.852  0.00  0.00    +0.005 A 
ATOM      5  C   UNL A   1     -29.454   0.591  23.239  0.00  0.00    +0.000 A 
ATOM      6  C   UNL A   1     -30.266   1.723  23.189  0.00  0.00    +0.001 A 
ATOM      7  C   UNL A   1     -29.888   2.897  23.952  0.00  0.00    +0.000 A 
ATOM      8  C   UNL A   1     -28.691   2.789  24.659  0.00  0.00    +0.005 A 
ATOM      9  C   UNL A   1     -27.990   1.672  24.661  0.00  0.00    +0.055 A 
BRANCH   6  10
ATOM     10  C   UNL A   1     -31.554   1.862  22.451  0.00  0.00    +0.018 A 
ATOM     11  C   UNL A   1     -32.647   1.287  22.856  0.00  0.00    +0.099 A 
ATOM     12  C   UNL A   1     -33.810   1.310  22.082  0.00  0.00    +0.153 A 
ATOM     13  C   UNL A   1     -33.894   1.889  20.841  0.00  0.00    +0.038 A 
ATOM     14  C   UNL A   1     -31.559   2.459  21.112  0.00  0.00    +0.002 A 
ATOM     15  C   UNL A   1     -32.755   2.473  20.337  0.00  0.00    +0.003 A 
ATOM     16  O   UNL A   1     -34.963   0.757  22.611  0.00  0.00    -0.472 OA
ATOM     17  C   UNL A   1     -34.692  -0.065  23.689  0.00  0.00    +0.229 C 
ATOM     18  N   UNL A   1     -32.845   0.578  23.951  0.00  0.00    -0.231 NA
ATOM     19  C   UNL A   1     -33.810  -0.097  24.402  0.00  0.00    +0.160 C 
ENDBRANCH   6  10
ENDBRANCH   1   9
BRANCH   2  20
ATOM     20  C   UNL A   1     -25.200   0.213  26.582  0.00  0.00    +0.074 A 
ATOM     21  C   UNL A   1     -25.919  -0.316  27.683  0.00  0.00    +0.023 A 
ATOM     22  C   UNL A   1     -25.244  -0.553  28.943  0.00  0.00    +0.077 A 
ATOM     23  C   UNL A   1     -23.883  -0.215  29.020  0.00  0.00    +0.013 A 
ATOM     24  C   UNL A   1     -23.211   0.356  27.926  0.00  0.00    +0.081 A 
ATOM     25  C   UNL A   1     -23.902   0.595  26.727  0.00  0.00    +0.023 A 
BRANCH  24  26
ATOM     26  C   UNL A   1     -21.806   0.737  28.066  0.00  0.00    +0.388 C 
ATOM     27  O   UNL A   1     -20.933   0.173  28.578  0.00  0.00    -0.241 OA
ATOM     28  O   UNL A   1     -21.409   1.845  27.324  0.00  0.00    -0.241 OA
ENDBRANCH  24  26
BRANCH  22  29
ATOM     29  C   UNL A   1     -25.988  -1.100  30.064  0.00  0.00    +0.342 C 
ATOM     30  O   UNL A   1     -26.558  -0.496  30.802  0.00  0.00    -0.245 OA
BRANCH  29  31
ATOM     31  O   UNL A   1     -25.635  -2.386  30.369  0.00  0.00    -0.441 OA
BRANCH  31  32
ATOM     32  C   UNL A   1     -25.776  -3.352  29.327  0.00  0.00    +0.235 C 
BRANCH  32  33
ATOM     33  C   UNL A   1     -25.921  -4.386  29.464  0.00  0.00    +0.016 C 
ATOM     34  C   UNL A   1     -24.894  -5.337  29.173  0.00  0.00    -0.027 C 
ATOM     35  C   UNL A   1     -24.122  -5.023  28.531  0.00  0.00    +0.030 C 
ENDBRANCH  32  33
ENDBRANCH  31  32
ENDBRANCH  29  31
ENDBRANCH  22  29
ENDBRANCH   2  20
TORSDOF 8
ENDMDL
ENDMDL
