REMARK  Name = No_1017-gen_results/8p0m/2024-11-27-11-27-31/
REMARK  3 active torsions:
REMARK  status: ('A' for Active; 'I' for Inactive)
REMARK    1  A    between atoms: C_3  and  N_7
REMARK    2  A    between atoms: N_7  and  C_8
REMARK    3  A    between atoms: C_9  and  C_10
REMARK                            x       y       z     vdW  Elec       q    Type
REMARK                         _______ _______ _______ _____ _____    ______ ____
ROOT
ATOM      1  C   UNL A   1     -28.016  -0.814  28.878  0.00  0.00    +0.017 A 
ATOM      2  C   UNL A   1     -28.469  -0.785  29.829  0.00  0.00    +0.001 A 
ATOM      3  C   UNL A   1     -27.136   0.236  28.535  0.00  0.00    +0.070 A 
ATOM      4  C   UNL A   1     -26.875   1.282  29.398  0.00  0.00    +0.017 A 
ATOM      5  C   UNL A   1     -28.361   0.199  30.924  0.00  0.00    +0.000 A 
ATOM      6  C   UNL A   1     -27.528   1.223  30.636  0.00  0.00    +0.001 A 
ENDROOT
BRANCH   3   7
ATOM      7  N   UNL A   1     -26.449   0.286  27.312  0.00  0.00    -0.211 NA
BRANCH   7   8
ATOM      8  C   UNL A   1     -25.545   1.290  27.026  0.00  0.00    +0.086 C 
ATOM      9  C   UNL A   1     -24.335   1.208  27.116  0.00  0.00    +0.018 C 
BRANCH   9  10
ATOM     10  C   UNL A   1     -23.568   0.192  27.820  0.00  0.00    -0.003 C 
ATOM     11  C   UNL A   1     -22.206   0.351  28.214  0.00  0.00    -0.026 C 
ATOM     12  C   UNL A   1     -21.508   1.453  27.718  0.00  0.00    +0.031 C 
ENDBRANCH   9  10
ENDBRANCH   7   8
ENDBRANCH   3   7
TORSDOF 3
