MODEL 1017
MODEL 1
REMARK VINA RESULT:    -6.045      0.000      0.000
REMARK INTER + INTRA:          -7.408
REMARK INTER:                  -7.106
REMARK INTRA:                  -0.302
REMARK UNBOUND:                -0.302
REMARK  Name = No_1017-gen_results/8p0m/2024-11-27-11-27-31/
REMARK  3 active torsions:
REMARK  status: ('A' for Active; 'I' for Inactive)
REMARK    1  A    between atoms: C_3  and  N_7
REMARK    2  A    between atoms: N_7  and  C_8
REMARK    3  A    between atoms: C_9  and  C_10
REMARK                            x       y       z     vdW  Elec       q    Type
REMARK                         _______ _______ _______ _____ _____    ______ ____
ROOT
ATOM      1  C   UNL A   1     -24.023  -4.403  28.771  0.00  0.00    +0.017 A 
ATOM      2  C   UNL A   1     -24.846  -5.035  28.955  0.00  0.00    +0.001 A 
ATOM      3  C   UNL A   1     -24.144  -3.043  29.129  0.00  0.00    +0.070 A 
ATOM      4  C   UNL A   1     -25.299  -2.535  29.691  0.00  0.00    +0.017 A 
ATOM      5  C   UNL A   1     -26.173  -4.754  29.538  0.00  0.00    +0.000 A 
ATOM      6  C   UNL A   1     -26.331  -3.460  29.894  0.00  0.00    +0.001 A 
ENDROOT
BRANCH   3   7
ATOM      7  N   UNL A   1     -23.103  -2.116  28.963  0.00  0.00    -0.211 NA
BRANCH   7   8
ATOM      8  C   UNL A   1     -22.888  -1.094  29.868  0.00  0.00    +0.086 C 
ATOM      9  C   UNL A   1     -22.201  -0.108  29.681  0.00  0.00    +0.018 C 
BRANCH   9  10
ATOM     10  C   UNL A   1     -21.214   0.095  28.632  0.00  0.00    -0.003 C 
ATOM     11  C   UNL A   1     -21.280   1.142  27.666  0.00  0.00    -0.026 C 
ATOM     12  C   UNL A   1     -22.459   1.885  27.590  0.00  0.00    +0.031 C 
ENDBRANCH   9  10
ENDBRANCH   7   8
ENDBRANCH   3   7
TORSDOF 3
ENDMDL
ENDMDL
