MODEL 1018
MODEL 1
REMARK VINA RESULT:    -5.987      0.000      0.000
REMARK INTER + INTRA:          -7.016
REMARK INTER:                  -6.687
REMARK INTRA:                  -0.329
REMARK UNBOUND:                -0.329
REMARK  Name = No_1018-gen_results/8p0m/2024-11-27-11-27-31/
REMARK  2 active torsions:
REMARK  status: ('A' for Active; 'I' for Inactive)
REMARK    1  A    between atoms: C_1  and  C_11
REMARK    2  A    between atoms: C_6  and  C_7
REMARK                            x       y       z     vdW  Elec       q    Type
REMARK                         _______ _______ _______ _____ _____    ______ ____
ROOT
ATOM      1  C   UNL A   1     -23.798  -1.337  28.709  0.00  0.00    +0.078 C 
ATOM      2  C   UNL A   1     -24.363  -2.354  29.036  0.00  0.00    -0.038 C 
ATOM      3  C   UNL A   1     -23.926  -3.636  28.751  0.00  0.00    +0.022 C 
ATOM      4  C   UNL A   1     -24.620  -4.864  29.058  0.00  0.00    +0.004 C 
ATOM      5  C   UNL A   1     -25.649  -4.849  29.410  0.00  0.00    +0.001 C 
ATOM      6  C   UNL A   1     -26.400  -3.643  29.821  0.00  0.00    +0.004 C 
ATOM      7  C   UNL A   1     -25.729  -2.430  29.554  0.00  0.00    +0.022 C 
ENDROOT
BRANCH   6   8
ATOM      8  C   UNL A   1     -27.754  -3.642  30.366  0.00  0.00    +0.000 C 
ATOM      9  C   UNL A   1     -28.430  -4.784  30.555  0.00  0.00    +0.000 C 
ATOM     10  C   UNL A   1     -28.393  -2.395  30.708  0.00  0.00    +0.000 C 
ENDBRANCH   6   8
BRANCH   1  11
ATOM     11  C   UNL A   1     -22.538  -1.073  29.426  0.00  0.00    +0.387 C 
ATOM     12  O   UNL A   1     -22.640  -0.692  30.612  0.00  0.00    -0.241 OA
ATOM     13  O   UNL A   1     -21.460  -1.145  28.888  0.00  0.00    -0.241 OA
ENDBRANCH   1  11
TORSDOF 2
ENDMDL
ENDMDL
