REMARK  Name = No_1018-gen_results/8p0m/2024-11-27-11-27-31/
REMARK  2 active torsions:
REMARK  status: ('A' for Active; 'I' for Inactive)
REMARK    1  A    between atoms: C_1  and  C_11
REMARK    2  A    between atoms: C_6  and  C_7
REMARK                            x       y       z     vdW  Elec       q    Type
REMARK                         _______ _______ _______ _____ _____    ______ ____
ROOT
ATOM      1  C   UNL A   1     -28.016  -0.814  28.878  0.00  0.00    +0.078 C 
ATOM      2  C   UNL A   1     -27.064  -0.119  28.608  0.00  0.00    -0.038 C 
ATOM      3  C   UNL A   1     -26.972   0.714  27.506  0.00  0.00    +0.022 C 
ATOM      4  C   UNL A   1     -25.820   1.491  27.116  0.00  0.00    +0.004 C 
ATOM      5  C   UNL A   1     -24.858   1.342  27.601  0.00  0.00    +0.001 C 
ATOM      6  C   UNL A   1     -24.622   0.529  28.814  0.00  0.00    +0.004 C 
ATOM      7  C   UNL A   1     -25.744  -0.220  29.229  0.00  0.00    +0.022 C 
ENDROOT
BRANCH   6   8
ATOM      8  C   UNL A   1     -23.341   0.398  29.501  0.00  0.00    +0.000 C 
ATOM      9  C   UNL A   1     -23.274   0.278  30.835  0.00  0.00    +0.000 C 
ATOM     10  C   UNL A   1     -22.113   0.400  28.744  0.00  0.00    +0.000 C 
ENDBRANCH   6   8
BRANCH   1  11
ATOM     11  C   UNL A   1     -29.209  -0.076  29.329  0.00  0.00    +0.387 C 
ATOM     12  O   UNL A   1     -30.174  -0.764  29.725  0.00  0.00    -0.241 OA
ATOM     13  O   UNL A   1     -29.293   1.126  29.255  0.00  0.00    -0.241 OA
ENDBRANCH   1  11
TORSDOF 2
