MODEL 101
MODEL 1
REMARK VINA RESULT:    -6.383      0.000      0.000
REMARK INTER + INTRA:          -6.837
REMARK INTER:                  -6.756
REMARK INTRA:                  -0.081
REMARK UNBOUND:                -0.081
REMARK  Name = No_101-gen_results/8p0m/2024-11-27-11-27-31/
REMARK  1 active torsions:
REMARK  status: ('A' for Active; 'I' for Inactive)
REMARK    1  A    between atoms: C_9  and  C_11
REMARK                            x       y       z     vdW  Elec       q    Type
REMARK                         _______ _______ _______ _____ _____    ______ ____
ROOT
ATOM      1  C   UNL A   1     -30.690  -9.828  29.619  0.00  0.00    +0.000 A 
ATOM      2  C   UNL A   1     -30.567 -10.170  28.630  0.00  0.00    +0.000 A 
ATOM      3  C   UNL A   1     -29.997 -10.510  30.643  0.00  0.00    +0.000 A 
ATOM      4  C   UNL A   1     -29.975 -10.092  32.069  0.00  0.00    +0.000 A 
ATOM      5  C   UNL A   1     -29.782 -11.288  28.078  0.00  0.00    +0.000 A 
ATOM      6  C   UNL A   1     -29.071 -12.012  29.035  0.00  0.00    +0.000 A 
ATOM      7  C   UNL A   1     -29.119 -11.618  30.334  0.00  0.00    +0.000 A 
ATOM      8  C   UNL A   1     -29.261 -10.223  32.940  0.00  0.00    +0.005 A 
ATOM      9  C   UNL A   1     -28.136 -11.226  32.631  0.00  0.00    +0.057 A 
ATOM     10  C   UNL A   1     -28.102 -11.886  31.379  0.00  0.00    +0.005 A 
ENDROOT
BRANCH   9  11
ATOM     11  C   UNL A   1     -27.196 -11.622  33.753  0.00  0.00    +0.284 C 
ATOM     12  N   UNL A   1     -26.917 -10.838  34.517  0.00  0.00    -0.084 NA
ATOM     13  O   UNL A   1     -26.738 -12.792  33.759  0.00  0.00    -0.267 OA
ENDBRANCH   9  11
TORSDOF 1
ENDMDL
ENDMDL
