MODEL 1020
MODEL 1
REMARK VINA RESULT:    -3.894      0.000      0.000
REMARK INTER + INTRA:          -5.360
REMARK INTER:                  -4.805
REMARK INTRA:                  -0.555
REMARK UNBOUND:                -0.555
REMARK  Name = No_1020-gen_results/8p0m/2024-11-27-11-27-31/
REMARK  4 active torsions:
REMARK  status: ('A' for Active; 'I' for Inactive)
REMARK    1  A    between atoms: C_1  and  C_2
REMARK    2  A    between atoms: C_2  and  C_3
REMARK    3  A    between atoms: C_2  and  C_8
REMARK    4  A    between atoms: C_4  and  C_5
REMARK                            x       y       z     vdW  Elec       q    Type
REMARK                         _______ _______ _______ _____ _____    ______ ____
ROOT
ATOM      1  C   UNL A   1     -22.837  -0.891  29.449  0.00  0.00    +0.044 C 
ENDROOT
BRANCH   1   2
ATOM      2  C   UNL A   1     -23.420  -1.889  29.095  0.00  0.00    +0.009 C 
ATOM      3  C   UNL A   1     -24.732  -1.729  28.547  0.00  0.00    +0.001 C 
ENDBRANCH   1   2
BRANCH   1   4
ATOM      4  C   UNL A   1     -21.631  -0.480  28.916  0.00  0.00    -0.022 C 
ATOM      5  C   UNL A   1     -21.518   0.744  28.260  0.00  0.00    -0.004 C 
BRANCH   5   6
ATOM      6  C   UNL A   1     -22.682   1.539  27.897  0.00  0.00    -0.000 C 
ATOM      7  C   UNL A   1     -23.244   1.560  26.630  0.00  0.00    -0.000 C 
ENDBRANCH   5   6
ENDBRANCH   1   4
BRANCH   1   8
ATOM      8  C   UNL A   1     -22.997  -0.394  30.904  0.00  0.00    -0.022 C 
ATOM      9  C   UNL A   1     -22.957  -1.059  32.062  0.00  0.00    -0.005 C 
ENDBRANCH   1   8
TORSDOF 4
ENDMDL
ENDMDL
