REMARK  Name = No_1021-gen_results/8p0m/2024-11-27-11-27-31/
REMARK  4 active torsions:
REMARK  status: ('A' for Active; 'I' for Inactive)
REMARK    1  A    between atoms: C_1  and  C_2
REMARK    2  A    between atoms: C_5  and  N_13
REMARK    3  A    between atoms: N_13  and  C_14
REMARK    4  A    between atoms: C_14  and  C_15
REMARK                            x       y       z     vdW  Elec       q    Type
REMARK                         _______ _______ _______ _____ _____    ______ ____
ROOT
ATOM      1  C   UNL A   1     -28.016  -0.814  28.878  0.00  0.00    +0.036 A 
ATOM      2  C   UNL A   1     -28.182   0.428  28.113  0.00  0.00    +0.004 A 
ATOM      3  C   UNL A   1     -27.450   0.643  26.850  0.00  0.00    +0.015 A 
ATOM      4  C   UNL A   1     -26.181   0.036  26.715  0.00  0.00    +0.066 A 
ATOM      5  C   UNL A   1     -25.780  -0.933  27.694  0.00  0.00    +0.016 A 
ATOM      6  C   UNL A   1     -26.557  -1.213  28.741  0.00  0.00    +0.004 A 
ATOM      7  C   UNL A   1     -27.791   1.699  25.950  0.00  0.00    +0.001 A 
ATOM      8  C   UNL A   1     -28.718   2.520  26.402  0.00  0.00    +0.000 A 
ATOM      9  C   UNL A   1     -29.557   2.205  27.516  0.00  0.00    +0.000 A 
ATOM     10  C   UNL A   1     -29.265   1.206  28.332  0.00  0.00    +0.000 A 
ENDROOT
BRANCH   1  11
ATOM     11  C   UNL A   1     -28.469  -0.785  29.829  0.00  0.00    +0.163 A 
ATOM     12  N   UNL A   1     -29.610  -0.278  30.194  0.00  0.00    -0.215 NA
ATOM     13  N   UNL A   1     -28.184  -1.997  30.766  0.00  0.00    -0.225 NA
ATOM     14  C   UNL A   1     -30.434  -0.640  31.329  0.00  0.00    +0.141 A 
ATOM     15  C   UNL A   1     -28.972  -2.378  31.808  0.00  0.00    +0.103 A 
ATOM     16  C   UNL A   1     -30.039  -1.631  32.145  0.00  0.00    +0.051 A 
ATOM     17 CL   UNL A   1     -31.917   0.196  31.464  0.00  0.00    -0.061 Cl
ENDBRANCH   1  11
BRANCH   4  18
ATOM     18  N   UNL A   1     -25.194   0.179  25.768  0.00  0.00    -0.233 NA
BRANCH  18  19
ATOM     19  C   UNL A   1     -24.753   1.425  25.442  0.00  0.00    +0.139 C 
BRANCH  19  20
ATOM     20  C   UNL A   1     -23.765   1.988  26.372  0.00  0.00    -0.001 A 
ATOM     21  C   UNL A   1     -22.499   1.959  26.219  0.00  0.00    -0.003 A 
ATOM     22  C   UNL A   1     -21.663   2.313  27.395  0.00  0.00    -0.000 A 
ATOM     23  C   UNL A   1     -24.331   2.426  27.665  0.00  0.00    -0.003 A 
ATOM     24  C   UNL A   1     -23.535   2.689  28.805  0.00  0.00    -0.000 A 
ATOM     25  C   UNL A   1     -22.159   2.579  28.643  0.00  0.00    -0.000 A 
ENDBRANCH  19  20
ENDBRANCH  18  19
ENDBRANCH   4  18
TORSDOF 4
