MODEL 1021
MODEL 1
REMARK VINA RESULT:    -7.609      0.000      0.000
REMARK INTER + INTRA:         -10.082
REMARK INTER:                  -9.389
REMARK INTRA:                  -0.694
REMARK UNBOUND:                -0.694
REMARK  Name = No_1021-gen_results/8p0m/2024-11-27-11-27-31/
REMARK  4 active torsions:
REMARK  status: ('A' for Active; 'I' for Inactive)
REMARK    1  A    between atoms: C_1  and  C_2
REMARK    2  A    between atoms: C_5  and  N_13
REMARK    3  A    between atoms: N_13  and  C_14
REMARK    4  A    between atoms: C_14  and  C_15
REMARK                            x       y       z     vdW  Elec       q    Type
REMARK                         _______ _______ _______ _____ _____    ______ ____
ROOT
ATOM      1  C   UNL A   1     -26.385   1.304  26.693  0.00  0.00    +0.036 A 
ATOM      2  C   UNL A   1     -24.957   1.539  26.940  0.00  0.00    +0.004 A 
ATOM      3  C   UNL A   1     -24.205   0.702  27.894  0.00  0.00    +0.015 A 
ATOM      4  C   UNL A   1     -24.911   0.168  28.996  0.00  0.00    +0.066 A 
ATOM      5  C   UNL A   1     -26.342   0.266  29.003  0.00  0.00    +0.016 A 
ATOM      6  C   UNL A   1     -26.991   0.899  28.025  0.00  0.00    +0.004 A 
ATOM      7  C   UNL A   1     -22.778   0.718  27.952  0.00  0.00    +0.001 A 
ATOM      8  C   UNL A   1     -22.213   1.623  27.176  0.00  0.00    +0.000 A 
ATOM      9  C   UNL A   1     -22.913   2.285  26.120  0.00  0.00    +0.000 A 
ATOM     10  C   UNL A   1     -24.233   2.244  26.042  0.00  0.00    +0.000 A 
ENDROOT
BRANCH   1  11
ATOM     11  C   UNL A   1     -26.840   2.057  26.112  0.00  0.00    +0.163 A 
ATOM     12  N   UNL A   1     -27.599   1.954  25.061  0.00  0.00    -0.215 NA
ATOM     13  N   UNL A   1     -27.280   3.344  26.873  0.00  0.00    -0.225 NA
ATOM     14  C   UNL A   1     -28.585   2.893  24.567  0.00  0.00    +0.141 A 
ATOM     15  C   UNL A   1     -28.237   4.212  26.446  0.00  0.00    +0.103 A 
ATOM     16  C   UNL A   1     -28.810   4.033  25.241  0.00  0.00    +0.051 A 
ATOM     17 CL   UNL A   1     -29.455   2.395  23.185  0.00  0.00    -0.061 Cl
ENDBRANCH   1  11
BRANCH   4  18
ATOM     18  N   UNL A   1     -24.482  -0.485  30.128  0.00  0.00    -0.233 NA
BRANCH  18  19
ATOM     19  C   UNL A   1     -25.289  -1.411  30.715  0.00  0.00    +0.139 C 
BRANCH  19  20
ATOM     20  C   UNL A   1     -25.408  -2.675  29.976  0.00  0.00    -0.001 A 
ATOM     21  C   UNL A   1     -26.388  -3.488  30.048  0.00  0.00    -0.003 A 
ATOM     22  C   UNL A   1     -26.196  -4.839  29.460  0.00  0.00    -0.000 A 
ATOM     23  C   UNL A   1     -24.176  -3.083  29.269  0.00  0.00    -0.003 A 
ATOM     24  C   UNL A   1     -23.967  -4.393  28.778  0.00  0.00    -0.000 A 
ATOM     25  C   UNL A   1     -25.016  -5.291  28.932  0.00  0.00    -0.000 A 
ENDBRANCH  19  20
ENDBRANCH  18  19
ENDBRANCH   4  18
TORSDOF 4
ENDMDL
ENDMDL
