MODEL 1022
MODEL 1
REMARK VINA RESULT:    -3.719      0.000      0.000
REMARK INTER + INTRA:          -3.936
REMARK INTER:                  -3.936
REMARK INTRA:                   0.000
REMARK UNBOUND:                 0.000
REMARK  Name = No_1022-gen_results/8p0m/2024-11-27-11-27-31/
REMARK  1 active torsions:
REMARK  status: ('A' for Active; 'I' for Inactive)
REMARK    1  A    between atoms: C_2  and  P_3
REMARK                            x       y       z     vdW  Elec       q    Type
REMARK                         _______ _______ _______ _____ _____    ______ ____
ROOT
ATOM      1  P   UNL A   1      -9.111  -9.507  18.464  0.00  0.00    +0.134 P 
ATOM      2  O   UNL A   1     -10.433  -9.081  18.282  0.00  0.00    -0.459 OA
ATOM      3  O   UNL A   1      -8.246  -8.524  17.634  0.00  0.00    -0.356 OA
ATOM      4  O   UNL A   1      -8.858 -10.876  17.812  0.00  0.00    -0.356 OA
ENDROOT
BRANCH   1   6
ATOM      5 CL   UNL A   1      -7.490  -9.811  20.618  0.00  0.00    -0.105 Cl
ATOM      6  C   UNL A   1      -8.740  -9.441  20.004  0.00  0.00    +0.153 C 
ENDBRANCH   1   6
TORSDOF 1
ENDMDL
ENDMDL
