REMARK  Name = outputs/IAG933/test6/raw/output_1023_IAG933_linker_design_.xyz
REMARK  12 active torsions:
REMARK  status: ('A' for Active; 'I' for Inactive)
REMARK    1  A    between atoms: C_1  and  C_2
REMARK    2  A    between atoms: C_1  and  C_8
REMARK    3  A    between atoms: C_9  and  C_35
REMARK    4  A    between atoms: C_13  and  C_34
REMARK    5  A    between atoms: C_14  and  C_15
REMARK    6  A    between atoms: C_21  and  O_22
REMARK    7  A    between atoms: O_22  and  C_23
REMARK    8  A    between atoms: C_23  and  C_24
REMARK    9  A    between atoms: C_31  and  O_32
REMARK   10  A    between atoms: O_32  and  C_35
REMARK   11  A    between atoms: C_33  and  N_37
REMARK   12  A    between atoms: C_35  and  C_43
REMARK                            x       y       z     vdW  Elec       q    Type
REMARK                         _______ _______ _______ _____ _____    ______ ____
ROOT
ATOM      1  N   UNL A   1     -24.599   1.321  29.183  0.00  0.00    -0.246 NA
ATOM      2  C   UNL A   1     -24.095   1.773  30.288  0.00  0.00    +0.102 C 
ENDROOT
BRANCH   1   4
ATOM      3  C   UNL A   1     -23.361   1.855  25.680  0.00  0.00    -0.002 C 
ATOM      4  C   UNL A   1     -23.764   1.402  28.062  0.00  0.00    +0.077 C 
ATOM      5  C   UNL A   1     -24.232   1.597  26.734  0.00  0.00    +0.003 C 
ATOM      6  C   UNL A   1     -21.973   1.859  25.873  0.00  0.00    -0.000 C 
ATOM      7  C   UNL A   1     -21.435   1.540  27.088  0.00  0.00    +0.002 C 
ATOM      8  C   UNL A   1     -22.322   1.303  28.134  0.00  0.00    +0.019 C 
BRANCH   5   9
ATOM      9  C   UNL A   1     -25.688   1.614  26.461  0.00  0.00    +0.094 C 
ATOM     10  C   UNL A   1     -26.250   2.920  26.395  0.00  0.00    +0.059 C 
ATOM     11  C   UNL A   1     -27.438   3.091  25.645  0.00  0.00    +0.102 C 
ATOM     12  N   UNL A   1     -28.075   2.089  25.003  0.00  0.00    -0.212 NA
ATOM     13  C   UNL A   1     -27.543   0.849  25.079  0.00  0.00    +0.234 C 
ATOM     14  C   UNL A   1     -26.354   0.576  25.777  0.00  0.00    +0.244 C 
ATOM     15  F   UNL A   1     -25.860  -0.681  25.795  0.00  0.00    -0.227 F 
BRANCH  10  16
ATOM     16  C   UNL A   1     -25.642   4.093  27.123  0.00  0.00    +0.263 C 
ATOM     17  N   UNL A   1     -25.614   5.252  26.449  0.00  0.00    -0.200 NA
ATOM     18  C   UNL A   1     -25.026   6.479  26.963  0.00  0.00    +0.139 C 
ATOM     19  O   UNL A   1     -25.143   3.966  28.243  0.00  0.00    -0.269 OA
ENDBRANCH  10  16
BRANCH  13  20
ATOM     20  O   UNL A   1     -28.193  -0.208  24.477  0.00  0.00    -0.459 OA
BRANCH  20  21
ATOM     21  C   UNL A   1     -29.460   0.005  23.866  0.00  0.00    +0.242 C 
BRANCH  21  22
ATOM     22  C   UNL A   1     -30.065  -1.377  23.573  0.00  0.00    +0.229 C 
ATOM     23  O   UNL A   1     -30.729  -1.878  24.721  0.00  0.00    -0.216 OA
ENDBRANCH  21  22
ENDBRANCH  20  21
ENDBRANCH  13  20
ENDBRANCH   5   9
ENDBRANCH   1   4
BRANCH   2  24
ATOM     24  C   UNL A   1     -24.398   2.093  31.719  0.00  0.00    +0.157 C 
BRANCH  24  26
ATOM     25  C   UNL A   1     -25.387  -0.679  31.571  0.00  0.00    +0.080 C 
ATOM     26  C   UNL A   1     -25.189   0.773  32.028  0.00  0.00    +0.051 C 
ATOM     27  C   UNL A   1     -25.336   0.684  33.544  0.00  0.00    +0.023 C 
ATOM     28  C   UNL A   1     -24.829  -0.715  33.905  0.00  0.00    +0.089 C 
ATOM     29  N   UNL A   1     -24.758  -1.481  32.646  0.00  0.00    -0.219 NA
BRANCH  25  30
ATOM     30  C   UNL A   1     -24.855  -1.012  30.143  0.00  0.00    +0.044 C 
BRANCH  30  31
ATOM     31  C   UNL A   1     -24.973  -2.505  29.788  0.00  0.00    -0.021 C 
ATOM     32  C   UNL A   1     -23.906  -3.173  29.146  0.00  0.00    -0.004 C 
ATOM     33  C   UNL A   1     -23.989  -4.549  28.853  0.00  0.00    -0.000 C 
ATOM     34  C   UNL A   1     -25.137  -5.280  29.205  0.00  0.00    -0.000 C 
ATOM     35  C   UNL A   1     -26.232  -4.611  29.784  0.00  0.00    -0.000 C 
ATOM     36  C   UNL A   1     -26.155  -3.232  30.065  0.00  0.00    -0.004 C 
ENDBRANCH  30  31
ENDBRANCH  25  30
ENDBRANCH  24  26
BRANCH  24  37
ATOM     37  O   UNL A   1     -24.756   3.801  31.507  0.00  0.00    -0.350 OA
BRANCH  37  40
ATOM     38  C   UNL A   1     -25.854   5.589  34.297  0.00  0.00    +0.035 C 
ATOM     39  O   UNL A   1     -26.025   7.105  32.350  0.00  0.00    -0.351 OA
ATOM     40  C   UNL A   1     -24.947   4.931  32.237  0.00  0.00    +0.145 C 
ATOM     41  C   UNL A   1     -25.490   6.962  33.675  0.00  0.00    +0.142 C 
ATOM     42  C   UNL A   1     -25.560   6.070  31.498  0.00  0.00    +0.172 C 
ATOM     43  C   UNL A   1     -25.956   4.463  33.284  0.00  0.00    +0.035 C 
ENDBRANCH  37  40
ENDBRANCH  24  37
ENDBRANCH   2  24
TORSDOF 12
