MODEL 1023
MODEL 1
REMARK VINA RESULT:    -7.769      0.000      0.000
REMARK INTER + INTRA:         -11.652
REMARK INTER:                 -10.495
REMARK INTRA:                  -1.158
REMARK UNBOUND:                -1.158
REMARK  Name = No_1023-gen_results/8p0m/2024-11-27-11-27-31/
REMARK  6 active torsions:
REMARK  status: ('A' for Active; 'I' for Inactive)
REMARK    1  A    between atoms: C_2  and  C_6
REMARK    2  A    between atoms: C_4  and  C_11
REMARK    3  A    between atoms: N_8  and  C_9
REMARK    4  A    between atoms: C_18  and  N_19
REMARK    5  A    between atoms: N_19  and  C_21
REMARK    6  A    between atoms: C_21  and  C_22
REMARK                            x       y       z     vdW  Elec       q    Type
REMARK                         _______ _______ _______ _____ _____    ______ ____
ROOT
ATOM      1  C   UNL A   1     -26.497   0.335  24.853  0.00  0.00    +0.245 C 
ATOM      2  N   UNL A   1     -26.201   1.000  25.899  0.00  0.00    -0.174 NA
ATOM      3  O   UNL A   1     -25.783  -0.682  24.489  0.00  0.00    -0.273 OA
ENDROOT
BRANCH   1   5
ATOM      4  C   UNL A   1     -28.055   1.877  24.220  0.00  0.00    +0.009 C 
ATOM      5  C   UNL A   1     -27.682   0.892  24.168  0.00  0.00    +0.079 C 
ATOM      6  C   UNL A   1     -29.125   2.148  23.261  0.00  0.00    +0.004 C 
ATOM      7  C   UNL A   1     -30.228   1.617  23.381  0.00  0.00    +0.019 C 
ATOM      8  C   UNL A   1     -30.132   0.057  23.354  0.00  0.00    +0.004 C 
ATOM      9  C   UNL A   1     -28.954  -0.277  24.298  0.00  0.00    +0.009 C 
ATOM     10  C   UNL A   1     -30.905   1.930  24.746  0.00  0.00    +0.004 C 
BRANCH   7  11
ATOM     11  C   UNL A   1     -31.289   1.871  22.198  0.00  0.00    -0.023 A 
ATOM     12  C   UNL A   1     -31.392   2.639  21.503  0.00  0.00    -0.004 A 
ATOM     13  C   UNL A   1     -32.325   0.672  22.196  0.00  0.00    -0.004 A 
ATOM     14  C   UNL A   1     -33.417   0.713  21.337  0.00  0.00    -0.000 A 
ATOM     15  C   UNL A   1     -32.635   2.880  20.585  0.00  0.00    -0.000 A 
ATOM     16  C   UNL A   1     -33.592   1.807  20.560  0.00  0.00    -0.000 A 
ENDBRANCH   7  11
ENDBRANCH   1   5
BRANCH   2  17
ATOM     17  C   UNL A   1     -25.711   0.416  27.051  0.00  0.00    +0.135 C 
ATOM     18  C   UNL A   1     -26.623   0.189  28.033  0.00  0.00    +0.225 C 
ATOM     19  F   UNL A   1     -27.769   0.805  28.133  0.00  0.00    -0.185 F 
BRANCH  18  20
ATOM     20  N   UNL A   1     -26.528  -0.601  28.901  0.00  0.00    -0.206 NA
BRANCH  20  21
ATOM     21  C   UNL A   1     -25.387  -1.349  29.230  0.00  0.00    +0.141 C 
BRANCH  21  22
ATOM     22  C   UNL A   1     -25.328  -2.545  29.233  0.00  0.00    -0.001 A 
ATOM     23  C   UNL A   1     -26.223  -3.374  29.840  0.00  0.00    -0.003 A 
ATOM     24  C   UNL A   1     -26.047  -4.862  29.571  0.00  0.00    -0.000 A 
ATOM     25  C   UNL A   1     -24.232  -3.338  28.641  0.00  0.00    -0.003 A 
ATOM     26  C   UNL A   1     -23.999  -4.616  28.522  0.00  0.00    -0.000 A 
ATOM     27  C   UNL A   1     -24.970  -5.393  29.055  0.00  0.00    -0.000 A 
ENDBRANCH  21  22
ENDBRANCH  20  21
ENDBRANCH  18  20
ENDBRANCH   2  17
TORSDOF 6
ENDMDL
ENDMDL
