MODEL 1025
MODEL 1
REMARK VINA RESULT:    -3.512      0.000      0.000
REMARK INTER + INTRA:          -3.788
REMARK INTER:                  -3.717
REMARK INTRA:                  -0.071
REMARK UNBOUND:                -0.071
REMARK  Name = No_1025-gen_results/8p0m/2024-11-27-11-27-31/
REMARK  1 active torsions:
REMARK  status: ('A' for Active; 'I' for Inactive)
REMARK    1  A    between atoms: C_3  and  C_4
REMARK                            x       y       z     vdW  Elec       q    Type
REMARK                         _______ _______ _______ _____ _____    ______ ____
ROOT
ATOM      1 CL   UNL A   1      -9.242 -10.562  17.571  0.00  0.00    -0.081 Cl
ATOM      2  C   UNL A   1     -10.020  -9.811  18.399  0.00  0.00    +0.068 C 
ATOM      3  C   UNL A   1      -9.510  -9.301  19.553  0.00  0.00    +0.012 C 
ENDROOT
BRANCH   3   4
ATOM      4  C   UNL A   1      -8.119  -9.579  19.935  0.00  0.00    +0.001 C 
ATOM      5  C   UNL A   1      -7.271  -8.435  19.836  0.00  0.00    +0.000 C 
ENDBRANCH   3   4
TORSDOF 1
ENDMDL
ENDMDL
