REMARK  Name = No_1026-gen_results/8p0m/2024-11-27-11-27-31/
REMARK  2 active torsions:
REMARK  status: ('A' for Active; 'I' for Inactive)
REMARK    1  A    between atoms: C_1  and  C_2
REMARK    2  A    between atoms: C_1  and  C_4
REMARK                            x       y       z     vdW  Elec       q    Type
REMARK                         _______ _______ _______ _____ _____    ______ ____
ROOT
ATOM      1  C   UNL A   1     -28.016  -0.814  28.878  0.00  0.00    +0.047 C 
ENDROOT
BRANCH   1   2
ATOM      2  C   UNL A   1     -27.064  -0.119  28.608  0.00  0.00    +0.067 C 
ATOM      3  N   UNL A   1     -26.951   1.129  28.957  0.00  0.00    -0.271 NA
ATOM      4  C   UNL A   1     -25.767   1.949  28.601  0.00  0.00    +0.151 C 
ENDBRANCH   1   2
BRANCH   1   5
ATOM      5  C   UNL A   1     -29.109  -0.210  29.632  0.00  0.00    +0.006 C 
ATOM      6  C   UNL A   1     -29.088   1.063  29.942  0.00  0.00    +0.000 C 
ENDBRANCH   1   5
TORSDOF 2
