MODEL 1026
MODEL 1
REMARK VINA RESULT:    -3.464      0.000      0.000
REMARK INTER + INTRA:          -3.879
REMARK INTER:                  -3.869
REMARK INTRA:                  -0.010
REMARK UNBOUND:                -0.010
REMARK  Name = No_1026-gen_results/8p0m/2024-11-27-11-27-31/
REMARK  2 active torsions:
REMARK  status: ('A' for Active; 'I' for Inactive)
REMARK    1  A    between atoms: C_1  and  C_2
REMARK    2  A    between atoms: C_1  and  C_4
REMARK                            x       y       z     vdW  Elec       q    Type
REMARK                         _______ _______ _______ _____ _____    ______ ____
ROOT
ATOM      1  C   UNL A   1      -8.996  -9.089  20.278  0.00  0.00    +0.047 C 
ENDROOT
BRANCH   1   2
ATOM      2  C   UNL A   1      -9.764  -9.402  19.398  0.00  0.00    +0.067 C 
ATOM      3  N   UNL A   1      -9.415 -10.035  18.317  0.00  0.00    -0.271 NA
ATOM      4  C   UNL A   1     -10.390 -10.396  17.258  0.00  0.00    +0.151 C 
ENDBRANCH   1   2
BRANCH   1   5
ATOM      5  C   UNL A   1      -7.573  -9.045  19.957  0.00  0.00    +0.006 C 
ATOM      6  C   UNL A   1      -6.996  -7.919  19.615  0.00  0.00    +0.000 C 
ENDBRANCH   1   5
TORSDOF 2
ENDMDL
ENDMDL
