MODEL 1028
MODEL 1
REMARK VINA RESULT:    -6.261      0.000      0.000
REMARK INTER + INTRA:          -6.835
REMARK INTER:                  -6.627
REMARK INTRA:                  -0.207
REMARK UNBOUND:                -0.207
REMARK  Name = No_1028-gen_results/8p0m/2024-11-27-11-27-31/
REMARK  1 active torsions:
REMARK  status: ('A' for Active; 'I' for Inactive)
REMARK    1  A    between atoms: C_3  and  C_7
REMARK                            x       y       z     vdW  Elec       q    Type
REMARK                         _______ _______ _______ _____ _____    ______ ____
ROOT
ATOM      1  C   UNL A   1     -24.121  -1.245  29.055  0.00  0.00    +0.058 A 
ATOM      2  C   UNL A   1     -23.500  -0.695  30.163  0.00  0.00    +0.279 A 
ATOM      3  N   UNL A   1     -23.089   0.551  30.065  0.00  0.00    -0.206 NA
ATOM      4  O   UNL A   1     -23.345  -1.337  31.252  0.00  0.00    -0.265 OA
ATOM      5  C   UNL A   1     -23.166   1.375  28.871  0.00  0.00    +0.102 A 
ATOM      6  C   UNL A   1     -24.266  -0.427  27.874  0.00  0.00    +0.006 A 
ATOM      7  C   UNL A   1     -23.765   0.802  27.870  0.00  0.00    +0.021 A 
ENDROOT
BRANCH   1  10
ATOM      8  C   UNL A   1     -26.213  -4.208  29.692  0.00  0.00    +0.000 A 
ATOM      9  C   UNL A   1     -25.747  -3.093  29.649  0.00  0.00    +0.000 A 
ATOM     10  C   UNL A   1     -24.528  -2.790  29.044  0.00  0.00    +0.005 A 
ATOM     11  C   UNL A   1     -23.840  -3.498  28.659  0.00  0.00    +0.000 A 
ATOM     12  C   UNL A   1     -24.178  -4.936  28.624  0.00  0.00    +0.000 A 
ATOM     13  C   UNL A   1     -25.323  -5.269  29.178  0.00  0.00    +0.000 A 
ENDBRANCH   1  10
TORSDOF 1
ENDMDL
ENDMDL
