MODEL 1029
MODEL 1
REMARK VINA RESULT:    -6.637      0.000      0.000
REMARK INTER + INTRA:          -7.375
REMARK INTER:                  -7.025
REMARK INTRA:                  -0.350
REMARK UNBOUND:                -0.350
REMARK  Name = No_1029-gen_results/8p0m/2024-11-27-11-27-31/
REMARK  1 active torsions:
REMARK  status: ('A' for Active; 'I' for Inactive)
REMARK    1  A    between atoms: C_2  and  C_8
REMARK                            x       y       z     vdW  Elec       q    Type
REMARK                         _______ _______ _______ _____ _____    ______ ____
ROOT
ATOM      1  C   UNL A   1     -25.869  -2.744  29.519  0.00  0.00    +0.011 A 
ATOM      2  C   UNL A   1     -24.768  -2.515  29.075  0.00  0.00    +0.001 A 
ATOM      3  C   UNL A   1     -23.931  -3.545  28.661  0.00  0.00    +0.000 A 
ATOM      4  C   UNL A   1     -24.332  -4.923  28.790  0.00  0.00    +0.001 A 
ATOM      5  C   UNL A   1     -25.611  -5.099  29.334  0.00  0.00    +0.011 A 
ATOM      6  C   UNL A   1     -26.356  -4.091  29.727  0.00  0.00    +0.058 A 
ATOM      7 CL   UNL A   1     -27.872  -4.424  30.428  0.00  0.00    -0.082 Cl
ENDROOT
BRANCH   2   8
ATOM      8  C   UNL A   1     -24.176  -1.154  28.900  0.00  0.00    +0.000 A 
ATOM      9  C   UNL A   1     -24.398  -0.441  27.849  0.00  0.00    +0.000 A 
ATOM     10  C   UNL A   1     -23.697   0.807  27.571  0.00  0.00    +0.000 A 
ATOM     11  C   UNL A   1     -22.712   1.008  27.850  0.00  0.00    +0.000 A 
ATOM     12  C   UNL A   1     -22.175   0.279  29.077  0.00  0.00    +0.000 A 
ATOM     13  C   UNL A   1     -22.592  -1.173  29.101  0.00  0.00    +0.000 A 
ENDBRANCH   2   8
TORSDOF 1
ENDMDL
ENDMDL
