REMARK  Name = outputs/IAG933/test6/raw/output_1029_IAG933_linker_design_.xyz
REMARK  16 active torsions:
REMARK  status: ('A' for Active; 'I' for Inactive)
REMARK    1  A    between atoms: C_1  and  C_2
REMARK    2  A    between atoms: C_1  and  C_8
REMARK    3  A    between atoms: C_1  and  N_37
REMARK    4  A    between atoms: C_13  and  C_30
REMARK    5  A    between atoms: C_14  and  C_15
REMARK    6  A    between atoms: C_21  and  O_22
REMARK    7  A    between atoms: O_22  and  C_23
REMARK    8  A    between atoms: C_23  and  C_24
REMARK    9  A    between atoms: C_28  and  O_29
REMARK   10  A    between atoms: C_28  and  C_41
REMARK   11  A    between atoms: C_31  and  O_38
REMARK   12  A    between atoms: C_31  and  O_42
REMARK   13  A    between atoms: C_36  and  O_38
REMARK   14  A    between atoms: C_36  and  C_41
REMARK   15  A    between atoms: N_37  and  O_42
REMARK   16  A    between atoms: N_37  and  C_43
REMARK                            x       y       z     vdW  Elec       q    Type
REMARK                         _______ _______ _______ _____ _____    ______ ____
ROOT
ATOM      1  C   UNL A   1     -24.506   1.397  27.282  0.00  0.00    +0.022 C 
ATOM      2  F   UNL A   1     -20.907   2.200  27.035  0.00  0.00    -0.204 F 
ATOM      3  C   UNL A   1     -23.233   0.513  29.141  0.00  0.00    +0.021 C 
ATOM      4  C   UNL A   1     -23.301   1.944  26.773  0.00  0.00    +0.031 C 
ATOM      5  C   UNL A   1     -22.120   1.720  27.471  0.00  0.00    +0.140 C 
ATOM      6  C   UNL A   1     -22.059   1.038  28.668  0.00  0.00    +0.031 C 
ATOM      7  C   UNL A   1     -24.482   0.657  28.523  0.00  0.00    +0.083 C 
ENDROOT
BRANCH   1   8
ATOM      8  C   UNL A   1     -25.688   1.614  26.461  0.00  0.00    +0.040 C 
ATOM      9  C   UNL A   1     -26.250   2.920  26.395  0.00  0.00    +0.077 C 
ATOM     10  C   UNL A   1     -27.438   3.091  25.645  0.00  0.00    +0.107 C 
ATOM     11  N   UNL A   1     -28.075   2.089  25.003  0.00  0.00    -0.208 NA
ATOM     12  C   UNL A   1     -27.543   0.849  25.079  0.00  0.00    +0.253 C 
ATOM     13  C   UNL A   1     -26.354   0.576  25.777  0.00  0.00    +0.193 C 
ATOM     14  F   UNL A   1     -25.860  -0.681  25.795  0.00  0.00    -0.199 F 
BRANCH   9  15
ATOM     15  C   UNL A   1     -25.642   4.093  27.123  0.00  0.00    +0.266 C 
ATOM     16  N   UNL A   1     -25.614   5.252  26.449  0.00  0.00    -0.200 NA
ATOM     17  C   UNL A   1     -25.026   6.479  26.963  0.00  0.00    +0.139 C 
ATOM     18  O   UNL A   1     -25.143   3.966  28.243  0.00  0.00    -0.268 OA
ENDBRANCH   9  15
BRANCH  12  19
ATOM     19  O   UNL A   1     -28.193  -0.208  24.477  0.00  0.00    -0.456 OA
BRANCH  19  20
ATOM     20  C   UNL A   1     -29.460   0.005  23.866  0.00  0.00    +0.243 C 
BRANCH  20  21
ATOM     21  C   UNL A   1     -30.065  -1.377  23.573  0.00  0.00    +0.229 C 
ATOM     22  O   UNL A   1     -30.729  -1.878  24.721  0.00  0.00    -0.216 OA
ENDBRANCH  20  21
ENDBRANCH  19  20
ENDBRANCH  12  19
ENDBRANCH   1   8
BRANCH   7  23
ATOM     23  N   UNL A   1     -25.515  -0.008  29.174  0.00  0.00    -0.233 N 
BRANCH  23  24
ATOM     24  O   UNL A   1     -26.788   0.639  28.962  0.00  0.00    -0.223 OA
BRANCH  24  25
ATOM     25  C   UNL A   1     -27.629  -0.449  28.378  0.00  0.00    +0.320 C 
BRANCH  25  26
ATOM     26  O   UNL A   1     -28.864  -0.301  27.543  0.00  0.00    -0.325 OA
BRANCH  26  27
ATOM     27  C   UNL A   1     -30.126   0.297  27.897  0.00  0.00    +0.148 C 
BRANCH  27  28
ATOM     28  C   UNL A   1     -29.921   1.743  28.340  0.00  0.00    +0.064 C 
BRANCH  28  29
ATOM     29  C   UNL A   1     -29.100   1.667  29.670  0.00  0.00    +0.145 C 
BRANCH  29  30
ATOM     30  O   UNL A   1     -28.236   2.801  29.831  0.00  0.00    -0.351 OA
ATOM     31  C   UNL A   1     -28.687   4.041  29.302  0.00  0.00    +0.174 C 
ENDBRANCH  29  30
ENDBRANCH  28  29
ENDBRANCH  27  28
ENDBRANCH  26  27
ENDBRANCH  25  26
ENDBRANCH  24  25
ENDBRANCH  23  24
BRANCH  23  32
ATOM     32  C   UNL A   1     -24.855  -1.012  30.143  0.00  0.00    +0.148 C 
BRANCH  32  33
ATOM     33  C   UNL A   1     -24.973  -2.505  29.788  0.00  0.00    +0.002 C 
ATOM     34  C   UNL A   1     -23.906  -3.173  29.146  0.00  0.00    -0.002 C 
ATOM     35  C   UNL A   1     -23.989  -4.549  28.853  0.00  0.00    -0.000 C 
ATOM     36  C   UNL A   1     -25.137  -5.280  29.205  0.00  0.00    -0.000 C 
ATOM     37  C   UNL A   1     -26.232  -4.611  29.784  0.00  0.00    -0.000 C 
ATOM     38  C   UNL A   1     -26.155  -3.232  30.065  0.00  0.00    -0.002 C 
ENDBRANCH  32  33
BRANCH  32  39
ATOM     39  C   UNL A   1     -25.387  -0.679  31.571  0.00  0.00    +0.100 C 
ATOM     40  C   UNL A   1     -25.189   0.773  32.028  0.00  0.00    +0.021 C 
ATOM     41  C   UNL A   1     -25.336   0.684  33.544  0.00  0.00    +0.020 C 
ATOM     42  C   UNL A   1     -24.829  -0.715  33.905  0.00  0.00    +0.089 C 
ATOM     43  N   UNL A   1     -24.758  -1.481  32.646  0.00  0.00    -0.217 NA
ENDBRANCH  32  39
ENDBRANCH  23  32
ENDBRANCH   7  23
TORSDOF 16
