MODEL 102
MODEL 1
REMARK VINA RESULT:    -4.967      0.000      0.000
REMARK INTER + INTRA:          -5.798
REMARK INTER:                  -5.548
REMARK INTRA:                  -0.250
REMARK UNBOUND:                -0.250
REMARK  Name = No_102-gen_results/8p0m/2024-11-27-11-27-31/
REMARK  2 active torsions:
REMARK  status: ('A' for Active; 'I' for Inactive)
REMARK    1  A    between atoms: C_3  and  C_7
REMARK    2  A    between atoms: C_7  and  C_8
REMARK                            x       y       z     vdW  Elec       q    Type
REMARK                         _______ _______ _______ _____ _____    ______ ____
ROOT
ATOM      1  C   UNL A   1     -23.883  -3.716  28.590  0.00  0.00    -0.004 A 
ATOM      2  C   UNL A   1     -24.126  -4.742  28.596  0.00  0.00    -0.000 A 
ATOM      3  C   UNL A   1     -24.842  -2.809  29.092  0.00  0.00    -0.018 A 
ATOM      4  C   UNL A   1     -25.816  -3.139  29.606  0.00  0.00    -0.004 A 
ATOM      5  C   UNL A   1     -25.300  -5.405  29.165  0.00  0.00    -0.000 A 
ATOM      6  C   UNL A   1     -26.189  -4.529  29.689  0.00  0.00    -0.000 A 
ENDROOT
BRANCH   3   7
ATOM      7  C   UNL A   1     -24.487  -1.296  29.078  0.00  0.00    +0.052 C 
BRANCH   7   8
ATOM      8  C   UNL A   1     -23.098  -1.010  29.032  0.00  0.00    -0.021 C 
ATOM      9  C   UNL A   1     -22.428  -0.468  30.126  0.00  0.00    -0.005 C 
ENDBRANCH   7   8
ENDBRANCH   3   7
TORSDOF 2
ENDMDL
ENDMDL
