MODEL 1030
MODEL 1
REMARK VINA RESULT:    -6.584      0.000      0.000
REMARK INTER + INTRA:          -6.584
REMARK INTER:                  -6.584
REMARK INTRA:                   0.000
REMARK UNBOUND:                 0.000
REMARK  Name = No_1030-gen_results/8p0m/2024-11-27-11-27-31/
REMARK  0 active torsions:
REMARK  status: ('A' for Active; 'I' for Inactive)
REMARK                            x       y       z     vdW  Elec       q    Type
REMARK                         _______ _______ _______ _____ _____    ______ ____
ROOT
ATOM      1  C   UNL A   1     -23.744   0.418  27.276  0.00  0.00    -0.004 A 
ATOM      2  C   UNL A   1     -24.458   0.988  26.751  0.00  0.00    -0.000 A 
ATOM      3  C   UNL A   1     -22.494   1.067  27.550  0.00  0.00    -0.000 A 
ATOM      4  C   UNL A   1     -21.500   0.449  28.452  0.00  0.00    -0.000 A 
ATOM      5  C   UNL A   1     -21.947  -0.390  29.490  0.00  0.00    -0.004 A 
ATOM      6  C   UNL A   1     -23.305  -0.769  29.524  0.00  0.00    -0.022 A 
ATOM      7  C   UNL A   1     -24.168  -0.321  28.595  0.00  0.00    -0.025 A 
ATOM      8  C   UNL A   1     -24.265   1.832  25.745  0.00  0.00    -0.000 A 
ATOM      9  C   UNL A   1     -22.928   2.340  25.730  0.00  0.00    -0.000 A 
ATOM     10  C   UNL A   1     -21.959   1.909  26.614  0.00  0.00    -0.000 A 
ATOM     11  C   UNL A   1     -25.569  -0.899  28.714  0.00  0.00    +0.031 C 
ATOM     12  C   UNL A   1     -25.711  -1.982  29.417  0.00  0.00    +0.030 C 
ATOM     13  C   UNL A   1     -25.483  -1.881  30.808  0.00  0.00    -0.030 C 
ATOM     14  C   UNL A   1     -24.398  -1.498  31.552  0.00  0.00    -0.026 C 
ATOM     15  C   UNL A   1     -23.495  -0.701  30.860  0.00  0.00    +0.052 C 
ENDROOT
TORSDOF 0
ENDMDL
ENDMDL
