MODEL 1031
MODEL 1
REMARK VINA RESULT:    -8.471      0.000      0.000
REMARK INTER + INTRA:          -9.349
REMARK INTER:                  -8.966
REMARK INTRA:                  -0.383
REMARK UNBOUND:                -0.383
REMARK  Name = No_1031-gen_results/8p0m/2024-11-27-11-27-31/
REMARK  1 active torsions:
REMARK  status: ('A' for Active; 'I' for Inactive)
REMARK    1  A    between atoms: C_10  and  C_11
REMARK                            x       y       z     vdW  Elec       q    Type
REMARK                         _______ _______ _______ _____ _____    ______ ____
ROOT
ATOM      1  C   UNL A   1     -24.829  -1.003  28.807  0.00  0.00    +0.101 C 
ATOM      2  N   UNL A   1     -23.922  -0.383  29.611  0.00  0.00    -0.260 N 
ATOM      3  C   UNL A   1     -23.537   0.850  29.389  0.00  0.00    +0.307 C 
ATOM      4  C   UNL A   1     -23.404  -1.000  30.760  0.00  0.00    +0.117 C 
ATOM      5  O   UNL A   1     -23.142   1.673  30.086  0.00  0.00    -0.252 OA
ATOM      6  N   UNL A   1     -23.723   1.220  27.979  0.00  0.00    -0.266 N 
ATOM      7  C   UNL A   1     -23.357   2.642  27.545  0.00  0.00    +0.095 C 
ATOM      8  C   UNL A   1     -23.548   2.729  26.179  0.00  0.00    +0.022 C 
ATOM      9  C   UNL A   1     -24.084   1.769  25.505  0.00  0.00    +0.004 C 
ATOM     10  C   UNL A   1     -24.242   0.704  25.999  0.00  0.00    +0.020 C 
ATOM     11  C   UNL A   1     -24.197   0.354  27.209  0.00  0.00    +0.079 C 
ATOM     12  C   UNL A   1     -24.728  -0.800  27.685  0.00  0.00    +0.044 C 
ENDROOT
BRANCH   1  22
ATOM     13  C   UNL A   1     -27.659  -4.833  30.389  0.00  0.00    -0.000 A 
ATOM     14  C   UNL A   1     -28.376  -4.122  30.690  0.00  0.00    -0.000 A 
ATOM     15  C   UNL A   1     -26.454  -4.358  29.827  0.00  0.00    -0.000 A 
ATOM     16  C   UNL A   1     -26.209  -3.009  29.658  0.00  0.00    -0.002 A 
ATOM     17  C   UNL A   1     -27.201  -2.143  30.087  0.00  0.00    -0.000 A 
ATOM     18  C   UNL A   1     -28.346  -2.652  30.663  0.00  0.00    -0.000 A 
ATOM     19  C   UNL A   1     -25.342  -5.258  29.378  0.00  0.00    -0.000 A 
ATOM     20  C   UNL A   1     -24.277  -4.684  28.662  0.00  0.00    -0.000 A 
ATOM     21  C   UNL A   1     -24.064  -3.323  28.605  0.00  0.00    -0.003 A 
ATOM     22  C   UNL A   1     -25.079  -2.460  29.014  0.00  0.00    -0.004 A 
ENDBRANCH   1  22
TORSDOF 1
ENDMDL
ENDMDL
