MODEL 1032
MODEL 1
REMARK VINA RESULT:    -4.491      0.000      0.000
REMARK INTER + INTRA:          -4.491
REMARK INTER:                  -4.491
REMARK INTRA:                   0.000
REMARK UNBOUND:                 0.000
REMARK  Name = No_1032-gen_results/8p0m/2024-11-27-11-27-31/
REMARK  0 active torsions:
REMARK  status: ('A' for Active; 'I' for Inactive)
REMARK                            x       y       z     vdW  Elec       q    Type
REMARK                         _______ _______ _______ _____ _____    ______ ____
ROOT
ATOM      1  C   UNL A   1     -25.581  -2.653  29.787  0.00  0.00    +0.023 A 
ATOM      2  C   UNL A   1     -26.267  -3.443  29.913  0.00  0.00    +0.059 A 
ATOM      3  C   UNL A   1     -24.337  -2.949  29.187  0.00  0.00    +0.059 A 
ATOM      4  C   UNL A   1     -24.006  -4.228  28.784  0.00  0.00    +0.011 A 
ATOM      5  C   UNL A   1     -26.167  -4.876  29.573  0.00  0.00    +0.011 A 
ATOM      6  C   UNL A   1     -24.990  -5.203  28.997  0.00  0.00    +0.002 A 
ATOM      7 CL   UNL A   1     -23.147  -1.735  28.883  0.00  0.00    -0.082 Cl
ATOM      8 CL   UNL A   1     -27.933  -3.212  30.654  0.00  0.00    -0.082 Cl
ENDROOT
TORSDOF 0
ENDMDL
ENDMDL
