REMARK  Name = No_1032-gen_results/8p0m/2024-11-27-11-27-31/
REMARK  0 active torsions:
REMARK  status: ('A' for Active; 'I' for Inactive)
REMARK                            x       y       z     vdW  Elec       q    Type
REMARK                         _______ _______ _______ _____ _____    ______ ____
ROOT
ATOM      1  C   UNL A   1     -28.016  -0.814  28.878  0.00  0.00    +0.023 A 
ATOM      2  C   UNL A   1     -28.469  -0.785  29.829  0.00  0.00    +0.059 A 
ATOM      3  C   UNL A   1     -27.136   0.236  28.535  0.00  0.00    +0.059 A 
ATOM      4  C   UNL A   1     -26.875   1.282  29.398  0.00  0.00    +0.011 A 
ATOM      5  C   UNL A   1     -28.361   0.199  30.924  0.00  0.00    +0.011 A 
ATOM      6  C   UNL A   1     -27.528   1.223  30.636  0.00  0.00    +0.002 A 
ATOM      7 CL   UNL A   1     -26.296   0.279  27.026  0.00  0.00    -0.082 Cl
ATOM      8 CL   UNL A   1     -29.618  -2.089  30.430  0.00  0.00    -0.082 Cl
ENDROOT
TORSDOF 0
