MODEL 1033
MODEL 1
REMARK VINA RESULT:    -6.371      0.000      0.000
REMARK INTER + INTRA:          -6.371
REMARK INTER:                  -6.371
REMARK INTRA:                   0.000
REMARK UNBOUND:                 0.000
REMARK  Name = No_1033-gen_results/8p0m/2024-11-27-11-27-31/
REMARK  0 active torsions:
REMARK  status: ('A' for Active; 'I' for Inactive)
REMARK                            x       y       z     vdW  Elec       q    Type
REMARK                         _______ _______ _______ _____ _____    ______ ____
ROOT
ATOM      1  C   UNL A   1     -29.828 -10.418  32.812  0.00  0.00    +0.004 A 
ATOM      2  C   UNL A   1     -29.804 -10.862  31.688  0.00  0.00    +0.035 A 
ATOM      3  C   UNL A   1     -28.815 -11.684  31.176  0.00  0.00    -0.013 A 
ATOM      4  C   UNL A   1     -27.759 -12.055  32.059  0.00  0.00    +0.014 A 
ATOM      5  C   UNL A   1     -27.890 -11.680  33.342  0.00  0.00    +0.089 A 
ATOM      6  C   UNL A   1     -28.883 -10.941  33.745  0.00  0.00    +0.018 A 
ATOM      7  C   UNL A   1     -28.758 -12.096  29.728  0.00  0.00    +0.053 C 
ATOM      8  C   UNL A   1     -29.464 -11.291  28.916  0.00  0.00    -0.015 A 
ATOM      9  C   UNL A   1     -29.576 -11.629  27.485  0.00  0.00    -0.004 A 
ATOM     10  C   UNL A   1     -30.522 -10.927  26.667  0.00  0.00    -0.000 A 
ATOM     11  C   UNL A   1     -31.191  -9.841  27.130  0.00  0.00    +0.000 A 
ATOM     12  C   UNL A   1     -30.999  -9.392  28.456  0.00  0.00    +0.003 A 
ATOM     13  C   UNL A   1     -30.208 -10.139  29.317  0.00  0.00    +0.035 A 
ATOM     14  C   UNL A   1     -30.532 -10.043  30.645  0.00  0.00    +0.195 C 
ATOM     15  O   UNL A   1     -31.301  -9.108  31.085  0.00  0.00    -0.287 OA
ATOM     16  N   UNL A   1     -26.861 -12.318  34.101  0.00  0.00    -0.128 NA
ENDROOT
TORSDOF 0
ENDMDL
ENDMDL
