MODEL 1034
MODEL 1
REMARK VINA RESULT:    -6.767      0.000      0.000
REMARK INTER + INTRA:          -8.629
REMARK INTER:                  -7.954
REMARK INTRA:                  -0.675
REMARK UNBOUND:                -0.675
REMARK  Name = No_1034-gen_results/8p0m/2024-11-27-11-27-31/
REMARK  3 active torsions:
REMARK  status: ('A' for Active; 'I' for Inactive)
REMARK    1  A    between atoms: C_2  and  O_12
REMARK    2  A    between atoms: C_10  and  C_20
REMARK    3  A    between atoms: O_12  and  C_13
REMARK                            x       y       z     vdW  Elec       q    Type
REMARK                         _______ _______ _______ _____ _____    ______ ____
ROOT
ATOM      1  C   UNL A   1     -24.680   1.217  25.490  0.00  0.00    +0.037 A 
ATOM      2  C   UNL A   1     -25.546   0.623  25.405  0.00  0.00    +0.145 A 
ATOM      3  C   UNL A   1     -23.924   0.978  26.719  0.00  0.00    +0.003 A 
ATOM      4  C   UNL A   1     -24.317   0.048  27.649  0.00  0.00    +0.005 A 
ATOM      5  C   UNL A   1     -26.191  -0.417  26.206  0.00  0.00    +0.037 A 
ATOM      6  C   UNL A   1     -25.467  -0.656  27.399  0.00  0.00    +0.003 A 
ATOM      7  C   UNL A   1     -22.651   1.626  27.208  0.00  0.00    +0.003 A 
ATOM      8  C   UNL A   1     -21.771   1.161  27.790  0.00  0.00    +0.042 A 
ATOM      9  C   UNL A   1     -22.171   0.035  28.763  0.00  0.00    +0.197 A 
ATOM     10  C   UNL A   1     -23.384  -0.580  28.568  0.00  0.00    +0.083 A 
ATOM     11  O   UNL A   1     -21.211  -0.318  29.671  0.00  0.00    -0.287 OA
ENDROOT
BRANCH  10  12
ATOM     12  C   UNL A   1     -23.727  -1.703  29.470  0.00  0.00    +0.344 C 
ATOM     13  F   UNL A   1     -23.265  -2.721  28.882  0.00  0.00    -0.193 F 
ATOM     14  F   UNL A   1     -24.299  -1.716  30.424  0.00  0.00    -0.193 F 
ENDBRANCH  10  12
BRANCH   2  15
ATOM     15  O   UNL A   1     -26.412   0.887  24.212  0.00  0.00    -0.454 OA
BRANCH  15  16
ATOM     16  C   UNL A   1     -27.459   1.506  24.288  0.00  0.00    +0.145 A 
ATOM     17  C   UNL A   1     -27.614   2.543  24.743  0.00  0.00    +0.038 A 
ATOM     18  C   UNL A   1     -28.822   3.291  24.686  0.00  0.00    +0.015 A 
ATOM     19  C   UNL A   1     -28.592   0.882  23.585  0.00  0.00    +0.038 A 
ATOM     20  C   UNL A   1     -29.806   1.488  23.490  0.00  0.00    +0.015 A 
ATOM     21  C   UNL A   1     -29.901   2.744  24.087  0.00  0.00    +0.058 A 
ATOM     22 CL   UNL A   1     -31.372   3.624  24.042  0.00  0.00    -0.082 Cl
ENDBRANCH  15  16
ENDBRANCH   2  15
TORSDOF 3
ENDMDL
ENDMDL
