MODEL 1035
MODEL 1
REMARK VINA RESULT:    -5.546      0.000      0.000
REMARK INTER + INTRA:          -5.546
REMARK INTER:                  -5.546
REMARK INTRA:                   0.000
REMARK UNBOUND:                 0.000
REMARK  Name = No_1035-gen_results/8p0m/2024-11-27-11-27-31/
REMARK  0 active torsions:
REMARK  status: ('A' for Active; 'I' for Inactive)
REMARK                            x       y       z     vdW  Elec       q    Type
REMARK                         _______ _______ _______ _____ _____    ______ ____
ROOT
ATOM      1  C   UNL A   1     -26.488  -3.879  29.976  0.00  0.00    +0.000 A 
ATOM      2  C   UNL A   1     -26.192  -4.838  29.653  0.00  0.00    +0.000 A 
ATOM      3  C   UNL A   1     -25.497  -2.801  29.833  0.00  0.00    +0.000 A 
ATOM      4  C   UNL A   1     -24.262  -3.036  29.161  0.00  0.00    +0.000 A 
ATOM      5  C   UNL A   1     -24.041  -4.323  28.741  0.00  0.00    +0.000 A 
ATOM      6  C   UNL A   1     -24.976  -5.281  28.921  0.00  0.00    +0.000 A 
ATOM      7  C   UNL A   1     -23.287  -1.972  29.002  0.00  0.00    +0.000 A 
ATOM      8  C   UNL A   1     -23.397  -0.788  29.352  0.00  0.00    +0.000 A 
ATOM      9  C   UNL A   1     -24.274  -0.413  30.308  0.00  0.00    +0.000 A 
ATOM     10  C   UNL A   1     -25.544  -1.440  30.432  0.00  0.00    +0.000 A 
ENDROOT
TORSDOF 0
ENDMDL
ENDMDL
