MODEL 1036
MODEL 1
REMARK VINA RESULT:    -6.180      0.000      0.000
REMARK INTER + INTRA:          -7.768
REMARK INTER:                  -7.264
REMARK INTRA:                  -0.504
REMARK UNBOUND:                -0.504
REMARK  Name = No_1036-gen_results/8p0m/2024-11-27-11-27-31/
REMARK  3 active torsions:
REMARK  status: ('A' for Active; 'I' for Inactive)
REMARK    1  A    between atoms: C_10  and  C_11
REMARK    2  A    between atoms: C_11  and  C_12
REMARK    3  A    between atoms: C_12  and  C_14
REMARK                            x       y       z     vdW  Elec       q    Type
REMARK                         _______ _______ _______ _____ _____    ______ ____
ROOT
ATOM      1  C   UNL A   1     -26.047  -2.964  30.068  0.00  0.00    +0.030 A 
ATOM      2  C   UNL A   1     -26.883  -2.339  30.217  0.00  0.00    +0.003 A 
ATOM      3  C   UNL A   1     -26.329  -4.317  29.679  0.00  0.00    +0.173 C 
ATOM      4  C   UNL A   1     -25.246  -5.222  29.242  0.00  0.00    +0.070 C 
ATOM      5  C   UNL A   1     -24.106  -4.677  28.623  0.00  0.00    +0.013 C 
ATOM      6  C   UNL A   1     -23.942  -3.276  28.608  0.00  0.00    +0.027 C 
ATOM      7  C   UNL A   1     -24.869  -2.468  29.155  0.00  0.00    -0.023 A 
ATOM      8  C   UNL A   1     -26.674  -0.867  30.657  0.00  0.00    -0.000 A 
ATOM      9  C   UNL A   1     -25.508  -0.261  30.117  0.00  0.00    -0.005 A 
ATOM     10  C   UNL A   1     -24.526  -1.029  29.354  0.00  0.00    -0.026 A 
ATOM     11  O   UNL A   1     -27.286  -4.979  30.306  0.00  0.00    -0.291 OA
ENDROOT
BRANCH  10  12
ATOM     12  C   UNL A   1     -23.304  -0.479  28.961  0.00  0.00    +0.024 C 
ATOM     13  C   UNL A   1     -22.414  -0.417  30.217  0.00  0.00    +0.005 C 
BRANCH  12  14
ATOM     14  C   UNL A   1     -22.985   0.213  28.009  0.00  0.00    +0.025 C 
BRANCH  14  15
ATOM     15  C   UNL A   1     -22.480   1.537  28.169  0.00  0.00    +0.110 C 
ATOM     16  N   UNL A   1     -23.577   2.384  28.166  0.00  0.00    -0.131 NA
ENDBRANCH  14  15
ENDBRANCH  12  14
ENDBRANCH  10  12
TORSDOF 3
ENDMDL
ENDMDL
