MODEL 1037
MODEL 1
REMARK VINA RESULT:    -6.914      0.000      0.000
REMARK INTER + INTRA:          -8.581
REMARK INTER:                  -8.127
REMARK INTRA:                  -0.454
REMARK UNBOUND:                -0.454
REMARK  Name = No_1037-gen_results/8p0m/2024-11-27-11-27-31/
REMARK  3 active torsions:
REMARK  status: ('A' for Active; 'I' for Inactive)
REMARK    1  A    between atoms: C_2  and  C_14
REMARK    2  A    between atoms: C_4  and  C_7
REMARK    3  A    between atoms: C_7  and  C_8
REMARK                            x       y       z     vdW  Elec       q    Type
REMARK                         _______ _______ _______ _____ _____    ______ ____
ROOT
ATOM      1  C   UNL A   1     -25.621  -3.264  29.577  0.00  0.00    +0.036 A 
ATOM      2  C   UNL A   1     -26.470  -2.802  29.997  0.00  0.00    +0.082 A 
ATOM      3  C   UNL A   1     -24.487  -2.386  29.248  0.00  0.00    +0.137 A 
ATOM      4  C   UNL A   1     -24.505  -1.010  29.621  0.00  0.00    +0.008 A 
ATOM      5  C   UNL A   1     -26.720  -1.434  30.526  0.00  0.00    +0.006 A 
ATOM      6  C   UNL A   1     -25.693  -0.586  30.231  0.00  0.00    -0.002 A 
ATOM      7  F   UNL A   1     -23.388  -2.813  28.602  0.00  0.00    -0.204 F 
ENDROOT
BRANCH   4   8
ATOM      8  C   UNL A   1     -23.429  -0.119  29.337  0.00  0.00    +0.040 C 
ATOM      9  C   UNL A   1     -22.095  -0.685  29.754  0.00  0.00    +0.009 C 
ATOM     10  C   UNL A   1     -23.610   1.218  30.314  0.00  0.00    +0.009 C 
BRANCH   8  11
ATOM     11  C   UNL A   1     -23.436   0.449  28.056  0.00  0.00    -0.018 A 
ATOM     12  C   UNL A   1     -24.352   0.012  27.057  0.00  0.00    +0.007 A 
ATOM     13  C   UNL A   1     -24.440   0.640  25.841  0.00  0.00    +0.057 A 
ATOM     14  C   UNL A   1     -22.489   1.440  27.625  0.00  0.00    -0.004 A 
ATOM     15  C   UNL A   1     -22.624   2.170  26.462  0.00  0.00    +0.001 A 
ATOM     16  C   UNL A   1     -23.613   1.759  25.507  0.00  0.00    +0.011 A 
ATOM     17 CL   UNL A   1     -25.673   0.217  24.695  0.00  0.00    -0.082 Cl
ENDBRANCH   8  11
ENDBRANCH   4   8
BRANCH   2  18
ATOM     18  C   UNL A   1     -27.730  -3.762  30.348  0.00  0.00    +0.388 C 
ATOM     19  O   UNL A   1     -28.719  -3.208  30.243  0.00  0.00    -0.241 OA
ATOM     20  O   UNL A   1     -27.577  -5.066  30.414  0.00  0.00    -0.241 OA
ENDBRANCH   2  18
TORSDOF 3
ENDMDL
ENDMDL
