REMARK  Name = No_1038-gen_results/8p0m/2024-11-27-11-27-31/
REMARK  0 active torsions:
REMARK  status: ('A' for Active; 'I' for Inactive)
REMARK                            x       y       z     vdW  Elec       q    Type
REMARK                         _______ _______ _______ _____ _____    ______ ____
ROOT
ATOM      1  O   UNL A   1     -28.123  -1.335  28.487  0.00  0.00    -0.268 OA
ATOM      2  C   UNL A   1     -27.064  -0.824  28.869  0.00  0.00    +0.265 C 
ATOM      3  C   UNL A   1     -26.402  -0.062  28.622  0.00  0.00    +0.051 A 
ATOM      4  N   UNL A   1     -26.265  -1.867  29.761  0.00  0.00    -0.201 NA
ATOM      5  C   UNL A   1     -26.844   1.134  27.880  0.00  0.00    +0.004 A 
ATOM      6  C   UNL A   1     -25.000  -1.671  30.179  0.00  0.00    +0.120 C 
ATOM      7  C   UNL A   1     -24.996   0.197  29.199  0.00  0.00    -0.016 A 
ATOM      8  C   UNL A   1     -24.372  -0.567  29.937  0.00  0.00    +0.050 C 
ATOM      9  C   UNL A   1     -27.721   1.215  27.383  0.00  0.00    +0.000 A 
ATOM     10  C   UNL A   1     -28.239   2.309  26.473  0.00  0.00    +0.000 A 
ATOM     11  C   UNL A   1     -27.374   3.416  26.347  0.00  0.00    +0.000 A 
ATOM     12  C   UNL A   1     -26.089   3.356  26.897  0.00  0.00    +0.000 A 
ATOM     13  C   UNL A   1     -25.747   2.260  27.675  0.00  0.00    +0.000 A 
ATOM     14  C   UNL A   1     -24.462   2.274  28.242  0.00  0.00    -0.000 A 
ATOM     15  C   UNL A   1     -24.172   1.375  28.902  0.00  0.00    -0.004 A 
ENDROOT
TORSDOF 0
