MODEL 1039
MODEL 1
REMARK VINA RESULT:    -7.263      0.000      0.000
REMARK INTER + INTRA:         -14.966
REMARK INTER:                 -11.085
REMARK INTRA:                  -3.881
REMARK UNBOUND:                -3.881
REMARK  Name = No_1039-gen_results/8p0m/2024-11-27-11-27-31/
REMARK  9 active torsions:
REMARK  status: ('A' for Active; 'I' for Inactive)
REMARK    1  A    between atoms: C_2  and  C_7
REMARK    2  A    between atoms: C_6  and  O_25
REMARK    3  A    between atoms: C_7  and  C_8
REMARK    4  A    between atoms: C_7  and  C_14
REMARK    5  A    between atoms: C_14  and  N_15
REMARK    6  A    between atoms: C_17  and  C_18
REMARK    7  A    between atoms: O_25  and  C_26
REMARK    8  A    between atoms: C_26  and  C_27
REMARK    9  A    between atoms: C_26  and  C_30
REMARK                            x       y       z     vdW  Elec       q    Type
REMARK                         _______ _______ _______ _____ _____    ______ ____
ROOT
ATOM      1  C   UNL A   1     -25.414  -1.342  29.971  0.00  0.00    +0.065 C 
ENDROOT
BRANCH   1   3
ATOM      2  C   UNL A   1     -26.681  -0.187  28.294  0.00  0.00    +0.033 A 
ATOM      3  C   UNL A   1     -26.470  -0.426  29.460  0.00  0.00    -0.014 A 
ATOM      4  C   UNL A   1     -27.244   0.148  30.463  0.00  0.00    -0.004 A 
ATOM      5  C   UNL A   1     -28.293   1.082  30.145  0.00  0.00    +0.003 A 
ATOM      6  C   UNL A   1     -28.454   1.320  28.774  0.00  0.00    +0.037 A 
ATOM      7  C   UNL A   1     -27.684   0.764  27.866  0.00  0.00    +0.139 A 
BRANCH   7   8
ATOM      8  O   UNL A   1     -27.839   1.095  26.568  0.00  0.00    -0.461 OA
BRANCH   8   9
ATOM      9  C   UNL A   1     -28.257   0.216  25.647  0.00  0.00    +0.363 C 
BRANCH   9  10
ATOM     10  C   UNL A   1     -27.510   0.406  24.340  0.00  0.00    +0.445 C 
ATOM     11  F   UNL A   1     -27.275   1.598  24.162  0.00  0.00    -0.166 F 
ATOM     12  F   UNL A   1     -26.368  -0.225  24.437  0.00  0.00    -0.166 F 
ATOM     13  F   UNL A   1     -28.282  -0.123  23.366  0.00  0.00    -0.166 F 
ENDBRANCH   9  10
BRANCH   9  14
ATOM     14  C   UNL A   1     -29.659   0.312  25.449  0.00  0.00    +0.413 C 
ATOM     15  O   UNL A   1     -30.311  -0.746  25.615  0.00  0.00    -0.241 OA
ATOM     16  O   UNL A   1     -30.238   1.358  25.198  0.00  0.00    -0.241 OA
ENDBRANCH   9  14
ENDBRANCH   8   9
ENDBRANCH   7   8
ENDBRANCH   1   3
BRANCH   1  17
ATOM     17  C   UNL A   1     -25.201  -2.515  29.711  0.00  0.00    -0.017 A 
ATOM     18  C   UNL A   1     -26.311  -3.512  30.041  0.00  0.00    -0.004 A 
ATOM     19  C   UNL A   1     -26.135  -4.866  29.563  0.00  0.00    -0.000 A 
ATOM     20  C   UNL A   1     -24.997  -5.233  28.949  0.00  0.00    -0.000 A 
ATOM     21  C   UNL A   1     -24.027  -4.337  28.554  0.00  0.00    -0.000 A 
ATOM     22  C   UNL A   1     -24.142  -2.996  28.929  0.00  0.00    -0.004 A 
ENDBRANCH   1  17
BRANCH   1  23
ATOM     23  C   UNL A   1     -24.233  -0.575  30.629  0.00  0.00    +0.104 C 
ATOM     24  C   UNL A   1     -23.913  -1.099  31.883  0.00  0.00    +0.024 C 
BRANCH  23  25
ATOM     25  N   UNL A   1     -23.412   0.054  30.005  0.00  0.00    -0.203 NA
ATOM     26  C   UNL A   1     -23.574   1.335  29.758  0.00  0.00    +0.265 C 
ATOM     27  O   UNL A   1     -23.447   2.056  30.796  0.00  0.00    -0.268 OA
BRANCH  26  28
ATOM     28  C   UNL A   1     -23.838   1.794  28.519  0.00  0.00    +0.055 A 
ATOM     29  C   UNL A   1     -24.472   2.740  28.283  0.00  0.00    +0.005 A 
ATOM     30  C   UNL A   1     -24.996   3.174  26.994  0.00  0.00    +0.000 A 
ATOM     31  C   UNL A   1     -24.546   2.423  25.947  0.00  0.00    +0.000 A 
ATOM     32  C   UNL A   1     -23.806   1.268  26.083  0.00  0.00    +0.000 A 
ATOM     33  C   UNL A   1     -23.443   0.906  27.381  0.00  0.00    +0.005 A 
ENDBRANCH  26  28
ENDBRANCH  23  25
ENDBRANCH   1  23
TORSDOF 9
ENDMDL
ENDMDL
