REMARK  Name = No_1039-gen_results/8p0m/2024-11-27-11-27-31/
REMARK  9 active torsions:
REMARK  status: ('A' for Active; 'I' for Inactive)
REMARK    1  A    between atoms: C_2  and  C_7
REMARK    2  A    between atoms: C_6  and  O_25
REMARK    3  A    between atoms: C_7  and  C_8
REMARK    4  A    between atoms: C_7  and  C_14
REMARK    5  A    between atoms: C_14  and  N_15
REMARK    6  A    between atoms: C_17  and  C_18
REMARK    7  A    between atoms: O_25  and  C_26
REMARK    8  A    between atoms: C_26  and  C_27
REMARK    9  A    between atoms: C_26  and  C_30
REMARK                            x       y       z     vdW  Elec       q    Type
REMARK                         _______ _______ _______ _____ _____    ______ ____
ROOT
ATOM      1  C   UNL A   1     -27.106   1.102  27.759  0.00  0.00    +0.065 C 
ENDROOT
BRANCH   1   3
ATOM      2  C   UNL A   1     -28.016  -0.814  28.878  0.00  0.00    +0.033 A 
ATOM      3  C   UNL A   1     -27.064  -0.119  28.608  0.00  0.00    -0.014 A 
ATOM      4  C   UNL A   1     -25.792  -0.430  29.076  0.00  0.00    -0.004 A 
ATOM      5  C   UNL A   1     -25.576  -1.565  29.936  0.00  0.00    +0.003 A 
ATOM      6  C   UNL A   1     -26.735  -2.300  30.217  0.00  0.00    +0.037 A 
ATOM      7  C   UNL A   1     -27.918  -1.954  29.763  0.00  0.00    +0.139 A 
BRANCH   7   8
ATOM      8  O   UNL A   1     -29.007  -2.658  30.134  0.00  0.00    -0.461 OA
BRANCH   8   9
ATOM      9  C   UNL A   1     -30.120  -2.071  30.595  0.00  0.00    +0.363 C 
BRANCH   9  10
ATOM     10  C   UNL A   1     -30.165  -2.113  32.111  0.00  0.00    +0.445 C 
ATOM     11  F   UNL A   1     -29.274  -1.408  32.576  0.00  0.00    -0.166 F 
ATOM     12  F   UNL A   1     -31.316  -1.619  32.490  0.00  0.00    -0.166 F 
ATOM     13  F   UNL A   1     -30.045  -3.409  32.472  0.00  0.00    -0.166 F 
ENDBRANCH   9  10
BRANCH   9  14
ATOM     14  C   UNL A   1     -31.280  -2.668  30.036  0.00  0.00    +0.413 C 
ATOM     15  O   UNL A   1     -32.201  -1.881  29.712  0.00  0.00    -0.241 OA
ATOM     16  O   UNL A   1     -31.385  -3.864  29.808  0.00  0.00    -0.241 OA
ENDBRANCH   9  14
ENDBRANCH   8   9
ENDBRANCH   7   8
ENDBRANCH   1   3
BRANCH   1  17
ATOM     17  C   UNL A   1     -26.716   2.235  27.994  0.00  0.00    -0.017 A 
ATOM     18  C   UNL A   1     -26.069   2.477  29.357  0.00  0.00    -0.004 A 
ATOM     19  C   UNL A   1     -25.441   3.764  29.561  0.00  0.00    -0.000 A 
ATOM     20  C   UNL A   1     -25.522   4.722  28.622  0.00  0.00    -0.000 A 
ATOM     21  C   UNL A   1     -26.012   4.499  27.353  0.00  0.00    -0.000 A 
ATOM     22  C   UNL A   1     -26.592   3.265  27.052  0.00  0.00    -0.004 A 
ENDBRANCH   1  17
BRANCH   1  23
ATOM     23  C   UNL A   1     -27.343   0.772  26.258  0.00  0.00    +0.104 C 
ATOM     24  C   UNL A   1     -26.195   0.993  25.494  0.00  0.00    +0.024 C 
BRANCH  23  25
ATOM     25  N   UNL A   1     -28.199   0.015  25.866  0.00  0.00    -0.203 NA
ATOM     26  C   UNL A   1     -29.021   0.354  24.898  0.00  0.00    +0.265 C 
ATOM     27  O   UNL A   1     -28.450   0.413  23.765  0.00  0.00    -0.268 OA
BRANCH  26  28
ATOM     28  C   UNL A   1     -30.327   0.596  25.125  0.00  0.00    +0.055 A 
ATOM     29  C   UNL A   1     -30.846   0.515  26.163  0.00  0.00    +0.005 A 
ATOM     30  C   UNL A   1     -32.273   0.531  26.460  0.00  0.00    +0.000 A 
ATOM     31  C   UNL A   1     -33.048   0.815  25.373  0.00  0.00    +0.000 A 
ATOM     32  C   UNL A   1     -32.569   0.917  24.085  0.00  0.00    +0.000 A 
ATOM     33  C   UNL A   1     -31.189   0.792  23.917  0.00  0.00    +0.005 A 
ENDBRANCH  26  28
ENDBRANCH  23  25
ENDBRANCH   1  23
TORSDOF 9
