REMARK  Name = No_104-gen_results/8p0m/2024-11-27-11-27-31/
REMARK  4 active torsions:
REMARK  status: ('A' for Active; 'I' for Inactive)
REMARK    1  A    between atoms: C_6  and  O_14
REMARK    2  A    between atoms: C_8  and  C_11
REMARK    3  A    between atoms: O_14  and  C_15
REMARK    4  A    between atoms: C_15  and  C_16
REMARK                            x       y       z     vdW  Elec       q    Type
REMARK                         _______ _______ _______ _____ _____    ______ ____
ROOT
ATOM      1  C   UNL A   1     -28.016  -0.814  28.878  0.00  0.00    +0.037 A 
ATOM      2  C   UNL A   1     -27.064  -0.119  28.608  0.00  0.00    +0.003 A 
ATOM      3  C   UNL A   1     -25.765  -0.390  29.036  0.00  0.00    +0.000 A 
ATOM      4  C   UNL A   1     -25.530  -1.530  29.901  0.00  0.00    +0.003 A 
ATOM      5  C   UNL A   1     -26.658  -2.292  30.203  0.00  0.00    +0.037 A 
ATOM      6  C   UNL A   1     -27.855  -1.956  29.763  0.00  0.00    +0.139 A 
ATOM      7  C   UNL A   1     -24.544   0.413  28.738  0.00  0.00    +0.007 A 
ATOM      8  C   UNL A   1     -23.323   0.048  29.050  0.00  0.00    +0.080 A 
ATOM      9  C   UNL A   1     -23.202  -1.237  29.757  0.00  0.00    +0.007 A 
ATOM     10  C   UNL A   1     -24.226  -1.965  30.212  0.00  0.00    +0.000 A 
ENDROOT
BRANCH   8  11
ATOM     11  C   UNL A   1     -22.115   0.775  28.716  0.00  0.00    +0.388 C 
ATOM     12  O   UNL A   1     -22.255   1.850  28.159  0.00  0.00    -0.241 OA
ATOM     13  O   UNL A   1     -20.951   0.182  28.766  0.00  0.00    -0.241 OA
ENDBRANCH   8  11
BRANCH   6  14
ATOM     14  O   UNL A   1     -29.063  -2.539  30.110  0.00  0.00    -0.471 OA
BRANCH  14  15
ATOM     15  C   UNL A   1     -29.033  -3.761  30.729  0.00  0.00    +0.232 C 
BRANCH  15  16
ATOM     16  C   UNL A   1     -29.224  -3.989  31.917  0.00  0.00    +0.021 A 
ATOM     17  C   UNL A   1     -30.568  -3.773  32.298  0.00  0.00    -0.001 A 
ATOM     18  C   UNL A   1     -30.897  -3.998  33.640  0.00  0.00    -0.000 A 
ATOM     19  C   UNL A   1     -30.080  -4.703  34.371  0.00  0.00    -0.000 A 
ATOM     20  C   UNL A   1     -28.852  -5.220  33.920  0.00  0.00    -0.000 A 
ATOM     21  C   UNL A   1     -28.547  -4.926  32.695  0.00  0.00    -0.001 A 
ENDBRANCH  15  16
ENDBRANCH  14  15
ENDBRANCH   6  14
TORSDOF 4
