REMARK  Name = No_1040-gen_results/8p0m/2024-11-27-11-27-31/
REMARK  2 active torsions:
REMARK  status: ('A' for Active; 'I' for Inactive)
REMARK    1  A    between atoms: C_1  and  C_2
REMARK    2  A    between atoms: C_5  and  C_10
REMARK                            x       y       z     vdW  Elec       q    Type
REMARK                         _______ _______ _______ _____ _____    ______ ____
ROOT
ATOM      1  C   UNL A   1     -27.064  -0.119  28.608  0.00  0.00    +0.028 A 
ATOM      2  C   UNL A   1     -26.972   0.714  27.506  0.00  0.00    +0.140 A 
ATOM      3  C   UNL A   1     -25.820   1.491  27.116  0.00  0.00    +0.036 A 
ATOM      4  C   UNL A   1     -24.858   1.342  27.601  0.00  0.00    +0.082 A 
ATOM      5  C   UNL A   1     -24.622   0.529  28.814  0.00  0.00    +0.007 A 
ATOM      6  C   UNL A   1     -25.734  -0.181  29.191  0.00  0.00    +0.002 A 
ATOM      7  F   UNL A   1     -28.088   0.842  26.804  0.00  0.00    -0.204 F 
ENDROOT
BRANCH   1   8
ATOM      8  C   UNL A   1     -28.016  -0.814  28.878  0.00  0.00    +0.002 A 
ATOM      9  C   UNL A   1     -28.627  -0.474  30.249  0.00  0.00    +0.000 A 
ATOM     10  C   UNL A   1     -29.729  -1.277  30.724  0.00  0.00    +0.000 A 
ATOM     11  C   UNL A   1     -30.093  -2.207  29.964  0.00  0.00    +0.000 A 
ATOM     12  C   UNL A   1     -29.631  -2.756  28.967  0.00  0.00    +0.000 A 
ATOM     13  C   UNL A   1     -28.570  -2.009  28.427  0.00  0.00    +0.000 A 
ENDBRANCH   1   8
BRANCH   4  14
ATOM     14  C   UNL A   1     -23.510   2.134  27.307  0.00  0.00    +0.388 C 
ATOM     15  O   UNL A   1     -22.594   2.219  28.109  0.00  0.00    -0.241 OA
ATOM     16  O   UNL A   1     -23.444   2.736  26.142  0.00  0.00    -0.241 OA
ENDBRANCH   4  14
TORSDOF 2
