MODEL 1040
MODEL 1
REMARK VINA RESULT:    -6.908      0.000      0.000
REMARK INTER + INTRA:          -8.177
REMARK INTER:                  -7.716
REMARK INTRA:                  -0.461
REMARK UNBOUND:                -0.461
REMARK  Name = No_1040-gen_results/8p0m/2024-11-27-11-27-31/
REMARK  2 active torsions:
REMARK  status: ('A' for Active; 'I' for Inactive)
REMARK    1  A    between atoms: C_1  and  C_2
REMARK    2  A    between atoms: C_5  and  C_10
REMARK                            x       y       z     vdW  Elec       q    Type
REMARK                         _______ _______ _______ _____ _____    ______ ____
ROOT
ATOM      1  C   UNL A   1     -24.541  -1.720  28.393  0.00  0.00    +0.028 A 
ATOM      2  C   UNL A   1     -23.502  -0.966  28.912  0.00  0.00    +0.140 A 
ATOM      3  C   UNL A   1     -23.035   0.304  28.410  0.00  0.00    +0.036 A 
ATOM      4  C   UNL A   1     -23.597   0.844  27.652  0.00  0.00    +0.082 A 
ATOM      5  C   UNL A   1     -24.748   0.311  26.891  0.00  0.00    +0.007 A 
ATOM      6  C   UNL A   1     -25.163  -0.910  27.360  0.00  0.00    +0.002 A 
ATOM      7  F   UNL A   1     -22.851  -1.525  29.921  0.00  0.00    -0.204 F 
ENDROOT
BRANCH   1   8
ATOM      8  C   UNL A   1     -24.960  -2.749  28.871  0.00  0.00    +0.002 A 
ATOM      9  C   UNL A   1     -24.153  -3.981  28.426  0.00  0.00    +0.000 A 
ATOM     10  C   UNL A   1     -24.592  -5.283  28.871  0.00  0.00    +0.000 A 
ATOM     11  C   UNL A   1     -25.621  -5.295  29.589  0.00  0.00    +0.000 A 
ATOM     12  C   UNL A   1     -26.497  -4.484  29.879  0.00  0.00    +0.000 A 
ATOM     13  C   UNL A   1     -26.122  -3.182  29.505  0.00  0.00    +0.000 A 
ENDBRANCH   1   8
BRANCH   4  14
ATOM     14  C   UNL A   1     -23.203   2.231  26.980  0.00  0.00    +0.388 C 
ATOM     15  O   UNL A   1     -22.410   2.327  26.057  0.00  0.00    -0.241 OA
ATOM     16  O   UNL A   1     -23.760   3.298  27.504  0.00  0.00    -0.241 OA
ENDBRANCH   4  14
TORSDOF 2
ENDMDL
ENDMDL
