REMARK  Name = outputs/IAG933/test6/raw/output_1041_IAG933_linker_design_.xyz
REMARK  11 active torsions:
REMARK  status: ('A' for Active; 'I' for Inactive)
REMARK    1  A    between atoms: C_1  and  C_2
REMARK    2  A    between atoms: C_1  and  C_8
REMARK    3  A    between atoms: C_1  and  N_41
REMARK    4  A    between atoms: C_13  and  C_35
REMARK    5  A    between atoms: C_14  and  C_15
REMARK    6  A    between atoms: C_21  and  O_22
REMARK    7  A    between atoms: O_22  and  C_23
REMARK    8  A    between atoms: C_23  and  C_24
REMARK    9  A    between atoms: C_30  and  C_33
REMARK   10  A    between atoms: C_30  and  C_38
REMARK   11  A    between atoms: C_35  and  C_43
REMARK                            x       y       z     vdW  Elec       q    Type
REMARK                         _______ _______ _______ _____ _____    ______ ____
ROOT
ATOM      1  C   UNL A   1     -20.597  -0.186  28.445  0.00  0.00    +0.209 C 
ATOM      2  C   UNL A   1     -22.606   0.816  28.033  0.00  0.00    +0.100 C 
ATOM      3  O   UNL A   1     -22.608   1.171  30.230  0.00  0.00    -0.208 OA
ATOM      4  C   UNL A   1     -21.229  -0.856  29.390  0.00  0.00    +0.094 C 
ATOM      5  C   UNL A   1     -21.011   2.081  26.521  0.00  0.00    +0.012 C 
ATOM      6  C   UNL A   1     -21.365   1.322  27.627  0.00  0.00    +0.115 C 
ATOM      7  C   UNL A   1     -22.694   0.195  29.290  0.00  0.00    +0.184 C 
ATOM      8  O   UNL A   1     -20.398   1.165  28.322  0.00  0.00    -0.480 OA
ATOM      9  N   UNL A   1     -24.119  -0.313  29.428  0.00  0.00    -0.247 NA
ATOM     10  C   UNL A   1     -24.796   0.547  28.244  0.00  0.00    +0.075 C 
ATOM     11  C   UNL A   1     -24.002   1.065  27.495  0.00  0.00    +0.027 C 
ENDROOT
BRANCH   9  12
ATOM     12  C   UNL A   1     -24.855  -1.012  30.143  0.00  0.00    +0.098 C 
BRANCH  12  13
ATOM     13  C   UNL A   1     -24.973  -2.505  29.788  0.00  0.00    -0.006 C 
ATOM     14  C   UNL A   1     -23.906  -3.173  29.146  0.00  0.00    -0.003 C 
ATOM     15  C   UNL A   1     -23.989  -4.549  28.853  0.00  0.00    -0.000 C 
ATOM     16  C   UNL A   1     -25.137  -5.280  29.205  0.00  0.00    -0.000 C 
ATOM     17  C   UNL A   1     -26.232  -4.611  29.784  0.00  0.00    -0.000 C 
ATOM     18  C   UNL A   1     -26.155  -3.232  30.065  0.00  0.00    -0.003 C 
ENDBRANCH  12  13
BRANCH  12  19
ATOM     19  C   UNL A   1     -25.387  -0.679  31.571  0.00  0.00    +0.092 C 
ATOM     20  C   UNL A   1     -25.189   0.773  32.028  0.00  0.00    +0.021 C 
ATOM     21  C   UNL A   1     -25.336   0.684  33.544  0.00  0.00    +0.020 C 
ATOM     22  C   UNL A   1     -24.829  -0.715  33.905  0.00  0.00    +0.089 C 
ATOM     23  N   UNL A   1     -24.758  -1.481  32.646  0.00  0.00    -0.218 NA
ENDBRANCH  12  19
ENDBRANCH   9  12
BRANCH   5  24
ATOM     24  C   UNL A   1     -21.795   2.534  25.372  0.00  0.00    +0.101 C 
BRANCH  24  26
ATOM     25  F   UNL A   1     -23.475   1.207  24.267  0.00  0.00    -0.198 F 
ATOM     26  C   UNL A   1     -22.924   2.162  24.770  0.00  0.00    +0.323 C 
ATOM     27  F   UNL A   1     -23.724   3.263  24.782  0.00  0.00    -0.198 F 
ENDBRANCH  24  26
ENDBRANCH   5  24
BRANCH  11  28
ATOM     28  C   UNL A   1     -24.505   1.330  26.719  0.00  0.00    +0.010 C 
BRANCH  28  29
ATOM     29  C   UNL A   1     -25.688   1.614  26.461  0.00  0.00    +0.070 C 
ATOM     30  C   UNL A   1     -26.250   2.920  26.395  0.00  0.00    +0.055 C 
ATOM     31  C   UNL A   1     -27.438   3.091  25.645  0.00  0.00    +0.102 C 
ATOM     32  N   UNL A   1     -28.075   2.089  25.003  0.00  0.00    -0.212 NA
ATOM     33  C   UNL A   1     -27.543   0.849  25.079  0.00  0.00    +0.234 C 
ATOM     34  C   UNL A   1     -26.354   0.576  25.777  0.00  0.00    +0.240 C 
ATOM     35  F   UNL A   1     -25.860  -0.681  25.795  0.00  0.00    -0.227 F 
BRANCH  30  36
ATOM     36  C   UNL A   1     -25.642   4.093  27.123  0.00  0.00    +0.262 C 
ATOM     37  N   UNL A   1     -25.614   5.252  26.449  0.00  0.00    -0.200 NA
ATOM     38  C   UNL A   1     -25.026   6.479  26.963  0.00  0.00    +0.139 C 
ATOM     39  O   UNL A   1     -25.143   3.966  28.243  0.00  0.00    -0.269 OA
ENDBRANCH  30  36
BRANCH  33  40
ATOM     40  O   UNL A   1     -28.193  -0.208  24.477  0.00  0.00    -0.459 OA
BRANCH  40  41
ATOM     41  C   UNL A   1     -29.460   0.005  23.866  0.00  0.00    +0.242 C 
BRANCH  41  42
ATOM     42  C   UNL A   1     -30.065  -1.377  23.573  0.00  0.00    +0.229 C 
ATOM     43  O   UNL A   1     -30.729  -1.878  24.721  0.00  0.00    -0.216 OA
ENDBRANCH  41  42
ENDBRANCH  40  41
ENDBRANCH  33  40
ENDBRANCH  28  29
ENDBRANCH  11  28
TORSDOF 11
