MODEL 1041
MODEL 1
REMARK VINA RESULT:    -6.727      0.000      0.000
REMARK INTER + INTRA:         -12.425
REMARK INTER:                 -10.660
REMARK INTRA:                  -1.765
REMARK UNBOUND:                -1.765
REMARK  Name = No_1041-gen_results/8p0m/2024-11-27-11-27-31/
REMARK  10 active torsions:
REMARK  status: ('A' for Active; 'I' for Inactive)
REMARK    1  A    between atoms: C_3  and  C_8
REMARK    2  A    between atoms: C_6  and  O_7
REMARK    3  A    between atoms: O_7  and  C_14
REMARK    4  A    between atoms: C_14  and  C_15
REMARK    5  A    between atoms: C_15  and  C_16
REMARK    6  A    between atoms: C_16  and  C_17
REMARK    7  A    between atoms: C_17  and  C_18
REMARK    8  A    between atoms: C_19  and  C_20
REMARK    9  A    between atoms: C_21  and  C_22
REMARK   10  A    between atoms: C_23  and  C_24
REMARK                            x       y       z     vdW  Elec       q    Type
REMARK                         _______ _______ _______ _____ _____    ______ ____
ROOT
ATOM      1  O   UNL A   1     -23.767   2.527  26.560  0.00  0.00    -0.475 OA
ENDROOT
BRANCH   1   7
ATOM      2  C   UNL A   1     -24.862   0.651  25.403  0.00  0.00    +0.037 A 
ATOM      3  C   UNL A   1     -25.855   0.140  24.940  0.00  0.00    +0.003 A 
ATOM      4  C   UNL A   1     -27.055   0.839  24.868  0.00  0.00    +0.000 A 
ATOM      5  C   UNL A   1     -27.164   2.178  25.385  0.00  0.00    +0.003 A 
ATOM      6  C   UNL A   1     -25.974   2.683  25.924  0.00  0.00    +0.037 A 
ATOM      7  C   UNL A   1     -24.870   1.975  25.984  0.00  0.00    +0.139 A 
BRANCH   4   8
ATOM      8  C   UNL A   1     -28.354   0.317  24.304  0.00  0.00    +0.000 A 
ATOM      9  C   UNL A   1     -28.505  -1.023  24.027  0.00  0.00    +0.000 A 
ATOM     10  C   UNL A   1     -29.696  -1.499  23.446  0.00  0.00    +0.000 A 
ATOM     11  C   UNL A   1     -30.786  -0.590  23.169  0.00  0.00    +0.000 A 
ATOM     12  C   UNL A   1     -30.542   0.741  23.339  0.00  0.00    +0.000 A 
ATOM     13  C   UNL A   1     -29.383   1.183  23.885  0.00  0.00    +0.000 A 
ENDBRANCH   4   8
ENDBRANCH   1   7
BRANCH   1  14
ATOM     14  C   UNL A   1     -22.524   1.975  26.346  0.00  0.00    +0.205 C 
BRANCH  14  15
ATOM     15  C   UNL A   1     -21.806   1.796  27.517  0.00  0.00    +0.048 C 
BRANCH  15  16
ATOM     16  C   UNL A   1     -21.478   0.590  27.900  0.00  0.00    +0.009 C 
BRANCH  16  17
ATOM     17  C   UNL A   1     -21.939   0.122  29.055  0.00  0.00    +0.026 C 
BRANCH  17  18
ATOM     18  C   UNL A   1     -23.076   0.854  29.650  0.00  0.00    -0.026 C 
ATOM     19  C   UNL A   1     -23.697   0.263  30.674  0.00  0.00    -0.005 C 
BRANCH  19  20
ATOM     20  C   UNL A   1     -23.326  -0.943  31.196  0.00  0.00    -0.000 C 
ATOM     21  C   UNL A   1     -23.975  -1.774  31.285  0.00  0.00    -0.000 C 
BRANCH  21  22
ATOM     22  C   UNL A   1     -25.198  -1.959  30.565  0.00  0.00    -0.000 C 
ATOM     23  C   UNL A   1     -25.294  -2.624  29.339  0.00  0.00    -0.000 C 
BRANCH  23  24
ATOM     24  C   UNL A   1     -24.114  -3.255  28.798  0.00  0.00    +0.000 C 
ATOM     25  C   UNL A   1     -24.035  -4.614  28.561  0.00  0.00    +0.000 C 
ENDBRANCH  23  24
ENDBRANCH  21  22
ENDBRANCH  19  20
ENDBRANCH  17  18
ENDBRANCH  16  17
ENDBRANCH  15  16
ENDBRANCH  14  15
ENDBRANCH   1  14
TORSDOF 10
ENDMDL
ENDMDL
