REMARK  Name = outputs/IAG933/test6/raw/output_1043_IAG933_linker_design_.xyz
REMARK  15 active torsions:
REMARK  status: ('A' for Active; 'I' for Inactive)
REMARK    1  A    between atoms: C_1  and  C_2
REMARK    2  A    between atoms: C_1  and  C_8
REMARK    3  A    between atoms: C_1  and  N_34
REMARK    4  A    between atoms: C_13  and  C_38
REMARK    5  A    between atoms: C_14  and  C_15
REMARK    6  A    between atoms: C_21  and  O_22
REMARK    7  A    between atoms: O_22  and  C_23
REMARK    8  A    between atoms: C_23  and  C_24
REMARK    9  A    between atoms: C_32  and  C_43
REMARK   10  A    between atoms: C_32  and  O_45
REMARK   11  A    between atoms: C_32  and  C_47
REMARK   12  A    between atoms: N_34  and  C_39
REMARK   13  A    between atoms: C_35  and  C_39
REMARK   14  A    between atoms: C_36  and  C_47
REMARK   15  A    between atoms: C_39  and  C_43
REMARK                            x       y       z     vdW  Elec       q    Type
REMARK                         _______ _______ _______ _____ _____    ______ ____
ROOT
ATOM      1  C   UNL A   1     -25.329   0.811  28.742  0.00  0.00    +0.078 C 
ENDROOT
BRANCH   1   5
ATOM      2  O   UNL A   1     -22.355  -0.053  29.616  0.00  0.00    -0.223 OA
ATOM      3  C   UNL A   1     -21.253   1.041  27.791  0.00  0.00    +0.033 C 
ATOM      4  C   UNL A   1     -22.819   1.641  25.928  0.00  0.00    +0.001 C 
ATOM      5  C   UNL A   1     -23.855   1.500  28.260  0.00  0.00    +0.047 C 
ATOM      6  C   UNL A   1     -22.490   0.762  28.459  0.00  0.00    +0.153 C 
ATOM      7  C   UNL A   1     -24.206   1.402  26.643  0.00  0.00    +0.011 C 
ATOM      8  C   UNL A   1     -21.537   1.832  26.595  0.00  0.00    +0.003 C 
BRANCH   7   9
ATOM      9  C   UNL A   1     -25.688   1.614  26.461  0.00  0.00    +0.070 C 
ATOM     10  C   UNL A   1     -26.250   2.920  26.395  0.00  0.00    +0.055 C 
ATOM     11  C   UNL A   1     -27.438   3.091  25.645  0.00  0.00    +0.102 C 
ATOM     12  N   UNL A   1     -28.075   2.089  25.003  0.00  0.00    -0.212 NA
ATOM     13  C   UNL A   1     -27.543   0.849  25.079  0.00  0.00    +0.234 C 
ATOM     14  C   UNL A   1     -26.354   0.576  25.777  0.00  0.00    +0.240 C 
ATOM     15  F   UNL A   1     -25.860  -0.681  25.795  0.00  0.00    -0.227 F 
BRANCH  10  16
ATOM     16  C   UNL A   1     -25.642   4.093  27.123  0.00  0.00    +0.262 C 
ATOM     17  N   UNL A   1     -25.614   5.252  26.449  0.00  0.00    -0.200 NA
ATOM     18  C   UNL A   1     -25.026   6.479  26.963  0.00  0.00    +0.139 C 
ATOM     19  O   UNL A   1     -25.143   3.966  28.243  0.00  0.00    -0.269 OA
ENDBRANCH  10  16
BRANCH  13  20
ATOM     20  O   UNL A   1     -28.193  -0.208  24.477  0.00  0.00    -0.459 OA
BRANCH  20  21
ATOM     21  C   UNL A   1     -29.460   0.005  23.866  0.00  0.00    +0.242 C 
BRANCH  21  22
ATOM     22  C   UNL A   1     -30.065  -1.377  23.573  0.00  0.00    +0.229 C 
ATOM     23  O   UNL A   1     -30.729  -1.878  24.721  0.00  0.00    -0.216 OA
ENDBRANCH  21  22
ENDBRANCH  20  21
ENDBRANCH  13  20
ENDBRANCH   7   9
ENDBRANCH   1   5
BRANCH   1  24
ATOM     24  N   UNL A   1     -25.078  -0.223  29.301  0.00  0.00    -0.215 NA
BRANCH  24  25
ATOM     25  C   UNL A   1     -24.855  -1.012  30.143  0.00  0.00    +0.111 C 
BRANCH  25  26
ATOM     26  C   UNL A   1     -24.973  -2.505  29.788  0.00  0.00    -0.005 C 
ATOM     27  C   UNL A   1     -23.906  -3.173  29.146  0.00  0.00    -0.003 C 
ATOM     28  C   UNL A   1     -23.989  -4.549  28.853  0.00  0.00    -0.000 C 
ATOM     29  C   UNL A   1     -25.137  -5.280  29.205  0.00  0.00    -0.000 C 
ATOM     30  C   UNL A   1     -26.232  -4.611  29.784  0.00  0.00    -0.000 C 
ATOM     31  C   UNL A   1     -26.155  -3.232  30.065  0.00  0.00    -0.003 C 
ENDBRANCH  25  26
BRANCH  25  32
ATOM     32  C   UNL A   1     -25.387  -0.679  31.571  0.00  0.00    +0.093 C 
ATOM     33  C   UNL A   1     -25.189   0.773  32.028  0.00  0.00    +0.021 C 
ATOM     34  C   UNL A   1     -25.336   0.684  33.544  0.00  0.00    +0.020 C 
ATOM     35  C   UNL A   1     -24.829  -0.715  33.905  0.00  0.00    +0.089 C 
ATOM     36  N   UNL A   1     -24.758  -1.481  32.646  0.00  0.00    -0.218 NA
ENDBRANCH  25  32
ENDBRANCH  24  25
ENDBRANCH   1  24
BRANCH   1  37
ATOM     37  C   UNL A   1     -26.873   1.341  28.768  0.00  0.00    +0.051 C 
BRANCH  37  38
ATOM     38  C   UNL A   1     -28.027   0.309  28.452  0.00  0.00    +0.161 C 
BRANCH  38  40
ATOM     39  O   UNL A   1     -30.248   1.224  27.777  0.00  0.00    -0.035 OA
ATOM     40  O   UNL A   1     -29.021   0.755  27.480  0.00  0.00    -0.191 OA
ENDBRANCH  38  40
BRANCH  38  41
ATOM     41  C   UNL A   1     -28.959   0.216  29.660  0.00  0.00    +0.062 C 
BRANCH  41  43
ATOM     42  C   UNL A   1     -30.121   3.636  31.771  0.00  0.00    +0.021 C 
ATOM     43  C   UNL A   1     -29.675   1.408  30.477  0.00  0.00    +0.017 C 
ATOM     44  O   UNL A   1     -28.475   2.053  32.614  0.00  0.00    -0.468 OA
ATOM     45  C   UNL A   1     -28.948   3.325  32.583  0.00  0.00    +0.232 C 
ATOM     46  C   UNL A   1     -30.396   2.856  30.572  0.00  0.00    -0.002 C 
ATOM     47  C   UNL A   1     -29.205   1.165  32.000  0.00  0.00    +0.168 C 
ENDBRANCH  41  43
ENDBRANCH  38  41
ENDBRANCH  37  38
ENDBRANCH   1  37
TORSDOF 15
