MODEL 1043
MODEL 1
REMARK VINA RESULT:    -7.531      0.000      0.000
REMARK INTER + INTRA:          -9.141
REMARK INTER:                  -8.411
REMARK INTRA:                  -0.730
REMARK UNBOUND:                -0.730
REMARK  Name = No_1043-gen_results/8p0m/2024-11-27-11-27-31/
REMARK  2 active torsions:
REMARK  status: ('A' for Active; 'I' for Inactive)
REMARK    1  A    between atoms: C_5  and  C_8
REMARK    2  A    between atoms: C_14  and  C_15
REMARK                            x       y       z     vdW  Elec       q    Type
REMARK                         _______ _______ _______ _____ _____    ______ ____
ROOT
ATOM      1  C   UNL A   1     -12.911   3.238  38.324  0.00  0.00    +0.037 A 
ATOM      2  C   UNL A   1     -13.948   3.329  38.160  0.00  0.00    +0.003 A 
ATOM      3  C   UNL A   1     -12.110   2.793  37.250  0.00  0.00    +0.136 A 
ATOM      4  C   UNL A   1     -12.650   2.470  36.020  0.00  0.00    +0.017 A 
ATOM      5  C   UNL A   1     -11.860   2.010  34.889  0.00  0.00    +0.066 C 
ATOM      6  C   UNL A   1     -14.815   3.106  37.010  0.00  0.00    -0.000 A 
ATOM      7  C   UNL A   1     -14.051   2.639  35.866  0.00  0.00    -0.001 A 
ATOM      8  C   UNL A   1     -10.670   1.238  35.275  0.00  0.00    -0.017 A 
ATOM      9  C   UNL A   1      -9.695   0.945  34.318  0.00  0.00    -0.004 A 
ATOM     10  C   UNL A   1      -8.557   0.496  34.652  0.00  0.00    -0.000 A 
ATOM     11  C   UNL A   1     -10.451   0.615  36.480  0.00  0.00    +0.018 A 
ATOM     12  C   UNL A   1     -11.338   0.428  37.414  0.00  0.00    +0.210 C 
ATOM     13  O   UNL A   1     -11.380   1.513  37.773  0.00  0.00    -0.471 OA
ATOM     14  C   UNL A   1      -9.185  -0.004  36.565  0.00  0.00    -0.001 A 
ATOM     15  C   UNL A   1      -8.290  -0.195  35.734  0.00  0.00    -0.000 A 
ENDROOT
BRANCH  12  16
ATOM     16  C   UNL A   1     -11.474  -0.345  38.288  0.00  0.00    +0.021 A 
ATOM     17  C   UNL A   1     -11.849  -1.733  38.024  0.00  0.00    -0.001 A 
ATOM     18  C   UNL A   1     -12.041  -2.645  39.008  0.00  0.00    -0.000 A 
ATOM     19  C   UNL A   1     -11.362  -0.123  39.673  0.00  0.00    -0.001 A 
ATOM     20  C   UNL A   1     -11.530  -0.986  40.723  0.00  0.00    -0.000 A 
ATOM     21  C   UNL A   1     -11.853  -2.321  40.373  0.00  0.00    -0.000 A 
ENDBRANCH  12  16
BRANCH   5  22
ATOM     22  C   UNL A   1     -12.101   2.181  33.799  0.00  0.00    +0.118 C 
ATOM     23  N   UNL A   1     -12.848   1.288  33.033  0.00  0.00    -0.131 NA
ENDBRANCH   5  22
TORSDOF 2
ENDMDL
ENDMDL
