MODEL 1044
MODEL 1
REMARK VINA RESULT:    -6.107      0.000      0.000
REMARK INTER + INTRA:          -8.100
REMARK INTER:                  -7.535
REMARK INTRA:                  -0.565
REMARK UNBOUND:                -0.565
REMARK  Name = No_1044-gen_results/8p0m/2024-11-27-11-27-31/
REMARK  4 active torsions:
REMARK  status: ('A' for Active; 'I' for Inactive)
REMARK    1  A    between atoms: C_1  and  C_2
REMARK    2  A    between atoms: C_1  and  C_8
REMARK    3  A    between atoms: C_5  and  C_10
REMARK    4  A    between atoms: C_9  and  C_14
REMARK                            x       y       z     vdW  Elec       q    Type
REMARK                         _______ _______ _______ _____ _____    ______ ____
ROOT
ATOM      1  C   UNL A   1     -24.026   0.039  28.915  0.00  0.00    -0.018 A 
ATOM      2  C   UNL A   1     -24.791   0.076  27.861  0.00  0.00    -0.004 A 
ATOM      3  C   UNL A   1     -24.486   0.760  26.580  0.00  0.00    +0.004 A 
ATOM      4  C   UNL A   1     -23.259   1.478  26.523  0.00  0.00    +0.071 A 
ATOM      5  C   UNL A   1     -22.478   1.491  27.650  0.00  0.00    +0.004 A 
ATOM      6  C   UNL A   1     -22.799   0.866  28.807  0.00  0.00    -0.004 A 
ENDROOT
BRANCH   4   7
ATOM      7  C   UNL A   1     -22.850   2.156  25.316  0.00  0.00    +0.419 C 
ATOM      8  F   UNL A   1     -23.124   1.644  24.273  0.00  0.00    -0.166 F 
ATOM      9  F   UNL A   1     -23.234   3.500  25.317  0.00  0.00    -0.166 F 
ATOM     10  F   UNL A   1     -21.435   2.376  25.348  0.00  0.00    -0.166 F 
ENDBRANCH   4   7
BRANCH   1  11
ATOM     11  C   UNL A   1     -24.246  -0.504  29.973  0.00  0.00    +0.052 C 
BRANCH  11  12
ATOM     12  C   UNL A   1     -25.232  -1.668  29.881  0.00  0.00    -0.021 C 
ATOM     13  C   UNL A   1     -24.838  -2.840  29.740  0.00  0.00    -0.005 C 
BRANCH  13  14
ATOM     14  C   UNL A   1     -25.742  -3.958  29.675  0.00  0.00    -0.005 C 
ATOM     15  C   UNL A   1     -25.300  -5.135  29.059  0.00  0.00    -0.026 C 
ATOM     16  C   UNL A   1     -24.044  -5.134  28.493  0.00  0.00    +0.031 C 
ENDBRANCH  13  14
ENDBRANCH  11  12
ENDBRANCH   1  11
TORSDOF 4
ENDMDL
ENDMDL
