REMARK  Name = No_1044-gen_results/8p0m/2024-11-27-11-27-31/
REMARK  4 active torsions:
REMARK  status: ('A' for Active; 'I' for Inactive)
REMARK    1  A    between atoms: C_1  and  C_2
REMARK    2  A    between atoms: C_1  and  C_8
REMARK    3  A    between atoms: C_5  and  C_10
REMARK    4  A    between atoms: C_9  and  C_14
REMARK                            x       y       z     vdW  Elec       q    Type
REMARK                         _______ _______ _______ _____ _____    ______ ____
ROOT
ATOM      1  C   UNL A   1     -27.064  -0.119  28.608  0.00  0.00    -0.018 A 
ATOM      2  C   UNL A   1     -26.876   1.133  28.913  0.00  0.00    -0.004 A 
ATOM      3  C   UNL A   1     -25.688   1.952  28.567  0.00  0.00    +0.004 A 
ATOM      4  C   UNL A   1     -24.639   1.283  27.875  0.00  0.00    +0.071 A 
ATOM      5  C   UNL A   1     -24.807  -0.051  27.604  0.00  0.00    +0.004 A 
ATOM      6  C   UNL A   1     -25.902  -0.767  27.951  0.00  0.00    -0.004 A 
ENDROOT
BRANCH   4   7
ATOM      7  C   UNL A   1     -23.450   1.991  27.465  0.00  0.00    +0.419 C 
ATOM      8  F   UNL A   1     -23.446   2.485  26.378  0.00  0.00    -0.166 F 
ATOM      9  F   UNL A   1     -23.037   2.918  28.426  0.00  0.00    -0.166 F 
ATOM     10  F   UNL A   1     -22.318   1.118  27.563  0.00  0.00    -0.166 F 
ENDBRANCH   4   7
BRANCH   1  11
ATOM     11  C   UNL A   1     -28.016  -0.814  28.878  0.00  0.00    +0.052 C 
BRANCH  11  12
ATOM     12  C   UNL A   1     -28.639  -0.512  30.240  0.00  0.00    -0.021 C 
ATOM     13  C   UNL A   1     -29.654  -1.114  30.635  0.00  0.00    -0.005 C 
BRANCH  13  14
ATOM     14  C   UNL A   1     -30.248  -0.868  31.923  0.00  0.00    -0.005 C 
ATOM     15  C   UNL A   1     -29.678   0.116  32.740  0.00  0.00    -0.026 C 
ATOM     16  C   UNL A   1     -28.541   0.750  32.290  0.00  0.00    +0.031 C 
ENDBRANCH  13  14
ENDBRANCH  11  12
ENDBRANCH   1  11
TORSDOF 4
