MODEL 1045
MODEL 1
REMARK VINA RESULT:    -6.046      0.000      0.000
REMARK INTER + INTRA:          -6.931
REMARK INTER:                  -6.753
REMARK INTRA:                  -0.177
REMARK UNBOUND:                -0.177
REMARK  Name = No_1045-gen_results/8p0m/2024-11-27-11-27-31/
REMARK  2 active torsions:
REMARK  status: ('A' for Active; 'I' for Inactive)
REMARK    1  A    between atoms: C_2  and  C_7
REMARK    2  A    between atoms: N_9  and  C_11
REMARK                            x       y       z     vdW  Elec       q    Type
REMARK                         _______ _______ _______ _____ _____    ______ ____
ROOT
ATOM      1  C   UNL A   1     -24.464   0.219  29.411  0.00  0.00    +0.253 C 
ATOM      2  O   UNL A   1     -24.357   1.247  29.074  0.00  0.00    -0.270 OA
ATOM      3  N   UNL A   1     -24.879  -0.811  28.562  0.00  0.00    -0.253 N 
ATOM      4  C   UNL A   1     -25.196  -0.492  27.213  0.00  0.00    +0.120 C 
ENDROOT
BRANCH   1   6
ATOM      5  C   UNL A   1     -25.163  -0.153  31.550  0.00  0.00    +0.004 A 
ATOM      6  C   UNL A   1     -24.333  -0.312  30.921  0.00  0.00    +0.054 A 
ATOM      7  C   UNL A   1     -25.007  -0.651  32.970  0.00  0.00    +0.000 A 
ATOM      8  C   UNL A   1     -23.757  -1.148  33.395  0.00  0.00    +0.000 A 
ATOM      9  C   UNL A   1     -22.936  -0.763  31.115  0.00  0.00    +0.004 A 
ATOM     10  C   UNL A   1     -22.753  -1.223  32.412  0.00  0.00    +0.000 A 
ENDBRANCH   1   6
BRANCH   3  11
ATOM     11  C   UNL A   1     -25.006  -2.209  28.949  0.00  0.00    +0.054 A 
ATOM     12  C   UNL A   1     -24.067  -2.963  28.570  0.00  0.00    +0.015 A 
ATOM     13  C   UNL A   1     -24.225  -4.365  28.803  0.00  0.00    +0.001 A 
ATOM     14  C   UNL A   1     -25.372  -4.900  29.407  0.00  0.00    +0.000 A 
ATOM     15  C   UNL A   1     -26.393  -3.955  29.758  0.00  0.00    +0.001 A 
ATOM     16  C   UNL A   1     -26.252  -2.658  29.477  0.00  0.00    +0.015 A 
ENDBRANCH   3  11
TORSDOF 2
ENDMDL
ENDMDL
