MODEL 1046
MODEL 1
REMARK VINA RESULT:    -6.799      0.000      0.000
REMARK INTER + INTRA:          -7.972
REMARK INTER:                  -7.594
REMARK INTRA:                  -0.378
REMARK UNBOUND:                -0.378
REMARK  Name = No_1046-gen_results/8p0m/2024-11-27-11-27-31/
REMARK  2 active torsions:
REMARK  status: ('A' for Active; 'I' for Inactive)
REMARK    1  A    between atoms: C_6  and  O_7
REMARK    2  A    between atoms: O_7  and  C_16
REMARK                            x       y       z     vdW  Elec       q    Type
REMARK                         _______ _______ _______ _____ _____    ______ ____
ROOT
ATOM      1  C   UNL A   1     -25.017   0.273  25.276  0.00  0.00    +0.041 A 
ATOM      2  C   UNL A   1     -26.011  -0.025  24.655  0.00  0.00    +0.042 A 
ATOM      3  C   UNL A   1     -27.193   0.713  24.691  0.00  0.00    +0.161 A 
ATOM      4  C   UNL A   1     -27.276   1.871  25.560  0.00  0.00    +0.108 A 
ATOM      5  C   UNL A   1     -26.081   2.152  26.261  0.00  0.00    +0.057 A 
ATOM      6  C   UNL A   1     -25.018   1.394  26.167  0.00  0.00    +0.147 A 
ATOM      7  O   UNL A   1     -28.360   0.401  24.020  0.00  0.00    -0.451 OA
ATOM      8  C   UNL A   1     -29.495   1.079  24.051  0.00  0.00    +0.160 A 
ATOM      9  C   UNL A   1     -30.485   0.631  23.176  0.00  0.00    +0.039 A 
ATOM     10  C   UNL A   1     -31.332   1.492  22.449  0.00  0.00    +0.003 A 
ATOM     11  C   UNL A   1     -31.345   2.804  23.059  0.00  0.00    +0.002 A 
ATOM     12  C   UNL A   1     -30.379   3.236  23.963  0.00  0.00    +0.020 A 
ATOM     13  C   UNL A   1     -29.427   2.400  24.400  0.00  0.00    +0.105 A 
ATOM     14  N   UNL A   1     -28.333   2.725  25.476  0.00  0.00    -0.206 NA
ENDROOT
BRANCH   6  15
ATOM     15  O   UNL A   1     -23.937   1.732  26.931  0.00  0.00    -0.454 OA
BRANCH  15  16
ATOM     16  C   UNL A   1     -23.068   0.847  27.374  0.00  0.00    +0.145 A 
ATOM     17  C   UNL A   1     -23.533   0.209  28.417  0.00  0.00    +0.037 A 
ATOM     18  C   UNL A   1     -22.616  -0.585  29.217  0.00  0.00    +0.003 A 
ATOM     19  C   UNL A   1     -21.641  -0.302  29.256  0.00  0.00    +0.000 A 
ATOM     20  C   UNL A   1     -20.885   0.436  28.220  0.00  0.00    +0.003 A 
ATOM     21  C   UNL A   1     -21.801   1.541  27.613  0.00  0.00    +0.037 A 
ENDBRANCH  15  16
ENDBRANCH   6  15
TORSDOF 2
ENDMDL
ENDMDL
