MODEL 1047
MODEL 1
REMARK VINA RESULT:    -7.808      0.000      0.000
REMARK INTER + INTRA:         -11.322
REMARK INTER:                 -10.091
REMARK INTRA:                  -1.231
REMARK UNBOUND:                -1.231
REMARK  Name = No_1047-gen_results/8p0m/2024-11-27-11-27-31/
REMARK  5 active torsions:
REMARK  status: ('A' for Active; 'I' for Inactive)
REMARK    1  A    between atoms: C_1  and  C_7
REMARK    2  A    between atoms: C_3  and  C_14
REMARK    3  A    between atoms: C_5  and  C_10
REMARK    4  A    between atoms: N_12  and  C_13
REMARK    5  A    between atoms: C_14  and  C_15
REMARK                            x       y       z     vdW  Elec       q    Type
REMARK                         _______ _______ _______ _____ _____    ______ ____
ROOT
ATOM      1  C   UNL A   1     -12.825   1.880  34.480  0.00  0.00    +0.080 A 
ATOM      2  C   UNL A   1     -12.021   1.110  34.954  0.00  0.00    +0.003 A 
ATOM      3  C   UNL A   1     -11.670   1.099  36.290  0.00  0.00    -0.018 A 
ATOM      4  C   UNL A   1     -12.321   2.019  37.159  0.00  0.00    +0.001 A 
ATOM      5  C   UNL A   1     -13.331   2.739  36.615  0.00  0.00    +0.055 A 
ATOM      6  C   UNL A   1     -13.625   2.655  35.332  0.00  0.00    +0.011 A 
ENDROOT
BRANCH   1   7
ATOM      7  C   UNL A   1     -13.157   1.813  33.010  0.00  0.00    +0.388 C 
ATOM      8  O   UNL A   1     -12.486   1.074  32.300  0.00  0.00    -0.241 OA
ATOM      9  O   UNL A   1     -14.018   2.609  32.473  0.00  0.00    -0.241 OA
ENDBRANCH   1   7
BRANCH   5  10
ATOM     10  C   UNL A   1     -14.023   3.666  37.540  0.00  0.00    +0.269 C 
ATOM     11  O   UNL A   1     -14.231   4.837  37.426  0.00  0.00    -0.268 OA
ATOM     12  N   UNL A   1     -14.967   2.987  38.406  0.00  0.00    -0.175 NA
BRANCH  12  13
ATOM     13  C   UNL A   1     -15.830   3.729  39.249  0.00  0.00    +0.074 A 
ATOM     14  C   UNL A   1     -17.140   3.485  38.990  0.00  0.00    +0.017 A 
ATOM     15  C   UNL A   1     -17.824   3.004  39.641  0.00  0.00    +0.001 A 
ATOM     16  C   UNL A   1     -17.303   2.115  40.623  0.00  0.00    +0.000 A 
ATOM     17  C   UNL A   1     -16.287   2.593  41.387  0.00  0.00    +0.001 A 
ATOM     18  C   UNL A   1     -15.526   3.683  40.717  0.00  0.00    +0.017 A 
ENDBRANCH  12  13
ENDBRANCH   5  10
BRANCH   3  19
ATOM     19  C   UNL A   1     -10.525   0.272  36.845  0.00  0.00    +0.045 C 
ATOM     20  C   UNL A   1      -9.219   0.358  36.409  0.00  0.00    +0.009 C 
BRANCH  19  21
ATOM     21  C   UNL A   1     -10.861  -0.617  37.810  0.00  0.00    -0.018 A 
ATOM     22  C   UNL A   1     -11.107  -0.217  39.141  0.00  0.00    -0.004 A 
ATOM     23  C   UNL A   1     -11.614  -1.075  40.128  0.00  0.00    -0.000 A 
ATOM     24  C   UNL A   1     -11.973  -2.386  39.808  0.00  0.00    -0.000 A 
ATOM     25  C   UNL A   1     -12.053  -2.713  38.453  0.00  0.00    -0.000 A 
ATOM     26  C   UNL A   1     -11.552  -1.826  37.472  0.00  0.00    -0.004 A 
ENDBRANCH  19  21
ENDBRANCH   3  19
TORSDOF 5
ENDMDL
ENDMDL
