REMARK  Name = outputs/IAG933/test6/raw/output_1047_IAG933_linker_design_.xyz
REMARK  13 active torsions:
REMARK  status: ('A' for Active; 'I' for Inactive)
REMARK    1  A    between atoms: C_1  and  C_2
REMARK    2  A    between atoms: C_1  and  C_8
REMARK    3  A    between atoms: C_1  and  N_36
REMARK    4  A    between atoms: C_13  and  C_33
REMARK    5  A    between atoms: C_14  and  C_15
REMARK    6  A    between atoms: C_21  and  O_22
REMARK    7  A    between atoms: O_22  and  C_23
REMARK    8  A    between atoms: C_23  and  C_24
REMARK    9  A    between atoms: C_35  and  C_38
REMARK   10  A    between atoms: N_36  and  C_41
REMARK   11  A    between atoms: N_36  and  C_42
REMARK   12  A    between atoms: C_37  and  C_40
REMARK   13  A    between atoms: C_39  and  C_42
REMARK                            x       y       z     vdW  Elec       q    Type
REMARK                         _______ _______ _______ _____ _____    ______ ____
ROOT
ATOM      1  C   UNL A   1     -23.329   2.282  26.341  0.00  0.00    +0.011 C 
ATOM      2  C   UNL A   1     -22.140   1.926  27.033  0.00  0.00    +0.213 C 
ATOM      3  F   UNL A   1     -20.985   2.575  27.155  0.00  0.00    -0.227 F 
ATOM      4  C   UNL A   1     -24.396   1.422  26.867  0.00  0.00    -0.003 C 
ATOM      5  C   UNL A   1     -22.484   0.832  27.858  0.00  0.00    +0.107 C 
ATOM      6  C   UNL A   1     -23.833   0.568  27.818  0.00  0.00    +0.050 C 
ENDROOT
BRANCH   4   7
ATOM      7  C   UNL A   1     -25.688   1.614  26.461  0.00  0.00    +0.093 C 
ATOM      8  C   UNL A   1     -26.250   2.920  26.395  0.00  0.00    +0.059 C 
ATOM      9  C   UNL A   1     -27.438   3.091  25.645  0.00  0.00    +0.102 C 
ATOM     10  N   UNL A   1     -28.075   2.089  25.003  0.00  0.00    -0.212 NA
ATOM     11  C   UNL A   1     -27.543   0.849  25.079  0.00  0.00    +0.234 C 
ATOM     12  C   UNL A   1     -26.354   0.576  25.777  0.00  0.00    +0.244 C 
ATOM     13  F   UNL A   1     -25.860  -0.681  25.795  0.00  0.00    -0.227 F 
BRANCH   8  14
ATOM     14  C   UNL A   1     -25.642   4.093  27.123  0.00  0.00    +0.263 C 
ATOM     15  N   UNL A   1     -25.614   5.252  26.449  0.00  0.00    -0.200 NA
ATOM     16  C   UNL A   1     -25.026   6.479  26.963  0.00  0.00    +0.139 C 
ATOM     17  O   UNL A   1     -25.143   3.966  28.243  0.00  0.00    -0.269 OA
ENDBRANCH   8  14
BRANCH  11  18
ATOM     18  O   UNL A   1     -28.193  -0.208  24.477  0.00  0.00    -0.459 OA
BRANCH  18  19
ATOM     19  C   UNL A   1     -29.460   0.005  23.866  0.00  0.00    +0.242 C 
BRANCH  19  20
ATOM     20  C   UNL A   1     -30.065  -1.377  23.573  0.00  0.00    +0.229 C 
ATOM     21  O   UNL A   1     -30.729  -1.878  24.721  0.00  0.00    -0.216 OA
ENDBRANCH  19  20
ENDBRANCH  18  19
ENDBRANCH  11  18
ENDBRANCH   4   7
BRANCH   5  24
ATOM     22  O   UNL A   1     -20.286   0.514  28.393  0.00  0.00    -0.241 OA
ATOM     23  O   UNL A   1     -21.740  -0.190  29.849  0.00  0.00    -0.241 OA
ATOM     24  C   UNL A   1     -21.461   0.317  28.727  0.00  0.00    +0.388 C 
ENDBRANCH   5  24
BRANCH   6  25
ATOM     25  N   UNL A   1     -24.504  -0.000  29.060  0.00  0.00    -0.293 N 
BRANCH  25  26
ATOM     26  C   UNL A   1     -24.855  -1.012  30.143  0.00  0.00    +0.112 C 
BRANCH  26  27
ATOM     27  C   UNL A   1     -24.973  -2.505  29.788  0.00  0.00    -0.003 C 
ATOM     28  C   UNL A   1     -23.906  -3.173  29.146  0.00  0.00    -0.003 C 
ATOM     29  C   UNL A   1     -23.989  -4.549  28.853  0.00  0.00    -0.000 C 
ATOM     30  C   UNL A   1     -25.137  -5.280  29.205  0.00  0.00    -0.000 C 
ATOM     31  C   UNL A   1     -26.232  -4.611  29.784  0.00  0.00    -0.000 C 
ATOM     32  C   UNL A   1     -26.155  -3.232  30.065  0.00  0.00    -0.003 C 
ENDBRANCH  26  27
BRANCH  26  33
ATOM     33  C   UNL A   1     -25.387  -0.679  31.571  0.00  0.00    +0.095 C 
ATOM     34  C   UNL A   1     -25.189   0.773  32.028  0.00  0.00    +0.021 C 
ATOM     35  C   UNL A   1     -25.336   0.684  33.544  0.00  0.00    +0.020 C 
ATOM     36  C   UNL A   1     -24.829  -0.715  33.905  0.00  0.00    +0.089 C 
ATOM     37  N   UNL A   1     -24.758  -1.481  32.646  0.00  0.00    -0.217 NA
ENDBRANCH  26  33
ENDBRANCH  25  26
BRANCH  25  38
ATOM     38  C   UNL A   1     -23.880   1.181  29.929  0.00  0.00    +0.169 C 
BRANCH  38  39
ATOM     39  C   UNL A   1     -23.930   2.297  30.491  0.00  0.00    -0.069 C 
ATOM     40  C   UNL A   1     -24.230   3.199  31.117  0.00  0.00    -0.089 C 
BRANCH  40  42
ATOM     41  C   UNL A   1     -25.585   5.308  31.556  0.00  0.00    +0.015 C 
ATOM     42  C   UNL A   1     -24.888   4.081  32.104  0.00  0.00    +0.076 C 
ENDBRANCH  40  42
ENDBRANCH  38  39
ENDBRANCH  25  38
ENDBRANCH   6  25
TORSDOF 13
