MODEL 1049
MODEL 1
REMARK VINA RESULT:    -5.905      0.000      0.000
REMARK INTER + INTRA:          -8.231
REMARK INTER:                  -7.286
REMARK INTRA:                  -0.946
REMARK UNBOUND:                -0.946
REMARK  Name = No_1049-gen_results/8p0m/2024-11-27-11-27-31/
REMARK  4 active torsions:
REMARK  status: ('A' for Active; 'I' for Inactive)
REMARK    1  A    between atoms: C_3  and  C_4
REMARK    2  A    between atoms: C_4  and  C_9
REMARK    3  A    between atoms: C_9  and  C_10
REMARK    4  A    between atoms: C_10  and  C_11
REMARK                            x       y       z     vdW  Elec       q    Type
REMARK                         _______ _______ _______ _____ _____    ______ ____
ROOT
ATOM      1  C   UNL A   1     -22.421   0.165  28.954  0.00  0.00    +0.023 C 
ATOM      2  C   UNL A   1     -21.191  -0.387  28.955  0.00  0.00    +0.005 C 
ENDROOT
BRANCH   1   5
ATOM      3  C   UNL A   1     -22.401   1.894  27.102  0.00  0.00    -0.004 A 
ATOM      4  C   UNL A   1     -22.803   2.173  26.169  0.00  0.00    -0.000 A 
ATOM      5  C   UNL A   1     -23.022   0.775  27.751  0.00  0.00    -0.022 A 
ATOM      6  C   UNL A   1     -24.070   1.807  25.554  0.00  0.00    -0.000 A 
ATOM      7  C   UNL A   1     -24.708   0.790  26.169  0.00  0.00    -0.000 A 
ATOM      8  C   UNL A   1     -24.174   0.198  27.310  0.00  0.00    -0.004 A 
ENDBRANCH   1   5
BRANCH   1   9
ATOM      9  C   UNL A   1     -23.044   0.291  30.252  0.00  0.00    +0.009 C 
BRANCH   9  10
ATOM     10  C   UNL A   1     -23.554  -0.868  30.944  0.00  0.00    +0.022 C 
ATOM     11  C   UNL A   1     -23.067  -1.262  32.286  0.00  0.00    +0.005 C 
BRANCH  10  12
ATOM     12  C   UNL A   1     -24.449  -1.793  30.471  0.00  0.00    -0.031 C 
ATOM     13  C   UNL A   1     -24.070  -2.780  29.605  0.00  0.00    -0.030 C 
ATOM     14  C   UNL A   1     -24.903  -3.876  29.165  0.00  0.00    +0.030 C 
ENDBRANCH  10  12
ENDBRANCH   9  10
ENDBRANCH   1   9
TORSDOF 4
ENDMDL
ENDMDL
