MODEL 104
MODEL 1
REMARK VINA RESULT:    -7.381      0.000      0.000
REMARK INTER + INTRA:          -9.532
REMARK INTER:                  -9.107
REMARK INTRA:                  -0.425
REMARK UNBOUND:                -0.425
REMARK  Name = No_104-gen_results/8p0m/2024-11-27-11-27-31/
REMARK  4 active torsions:
REMARK  status: ('A' for Active; 'I' for Inactive)
REMARK    1  A    between atoms: C_6  and  O_14
REMARK    2  A    between atoms: C_8  and  C_11
REMARK    3  A    between atoms: O_14  and  C_15
REMARK    4  A    between atoms: C_15  and  C_16
REMARK                            x       y       z     vdW  Elec       q    Type
REMARK                         _______ _______ _______ _____ _____    ______ ____
ROOT
ATOM      1  C   UNL A   1     -23.999  -3.845  28.686  0.00  0.00    +0.037 A 
ATOM      2  C   UNL A   1     -24.943  -4.553  28.951  0.00  0.00    +0.003 A 
ATOM      3  C   UNL A   1     -26.057  -4.119  29.668  0.00  0.00    +0.000 A 
ATOM      4  C   UNL A   1     -26.079  -2.764  30.184  0.00  0.00    +0.003 A 
ATOM      5  C   UNL A   1     -24.963  -1.988  29.873  0.00  0.00    +0.037 A 
ATOM      6  C   UNL A   1     -23.945  -2.485  29.196  0.00  0.00    +0.139 A 
ATOM      7  C   UNL A   1     -27.257  -4.928  30.024  0.00  0.00    +0.007 A 
ATOM      8  C   UNL A   1     -28.339  -4.442  30.584  0.00  0.00    +0.080 A 
ATOM      9  C   UNL A   1     -28.312  -3.000  30.879  0.00  0.00    +0.007 A 
ATOM     10  C   UNL A   1     -27.245  -2.207  30.748  0.00  0.00    +0.000 A 
ENDROOT
BRANCH   8  11
ATOM     11  C   UNL A   1     -29.544  -5.190  30.881  0.00  0.00    +0.388 C 
ATOM     12  O   UNL A   1     -29.402  -6.257  31.454  0.00  0.00    -0.241 OA
ATOM     13  O   UNL A   1     -30.680  -4.864  30.323  0.00  0.00    -0.241 OA
ENDBRANCH   8  11
BRANCH   6  14
ATOM     14  O   UNL A   1     -22.728  -1.869  28.953  0.00  0.00    -0.471 OA
BRANCH  14  15
ATOM     15  C   UNL A   1     -22.632  -0.522  29.182  0.00  0.00    +0.232 C 
BRANCH  15  16
ATOM     16  C   UNL A   1     -22.778   0.376  28.362  0.00  0.00    +0.021 A 
ATOM     17  C   UNL A   1     -21.545   0.904  27.915  0.00  0.00    -0.001 A 
ATOM     18  C   UNL A   1     -21.595   1.943  26.978  0.00  0.00    -0.000 A 
ATOM     19  C   UNL A   1     -22.704   2.133  26.319  0.00  0.00    -0.000 A 
ATOM     20  C   UNL A   1     -23.884   1.394  26.517  0.00  0.00    -0.000 A 
ATOM     21  C   UNL A   1     -23.821   0.492  27.446  0.00  0.00    -0.001 A 
ENDBRANCH  15  16
ENDBRANCH  14  15
ENDBRANCH   6  14
TORSDOF 4
ENDMDL
ENDMDL
