REMARK  Name = No_105-gen_results/8p0m/2024-11-27-11-27-31/
REMARK  3 active torsions:
REMARK  status: ('A' for Active; 'I' for Inactive)
REMARK    1  A    between atoms: C_2  and  C_14
REMARK    2  A    between atoms: C_3  and  C_4
REMARK    3  A    between atoms: C_4  and  C_8
REMARK                            x       y       z     vdW  Elec       q    Type
REMARK                         _______ _______ _______ _____ _____    ______ ____
ROOT
ATOM      1  C   UNL A   1     -28.016  -0.814  28.878  0.00  0.00    +0.001 A 
ATOM      2  C   UNL A   1     -28.469  -0.785  29.829  0.00  0.00    +0.055 A 
ATOM      3  C   UNL A   1     -26.504  -0.778  28.877  0.00  0.00    -0.018 A 
ATOM      4  C   UNL A   1     -27.918  -0.937  31.182  0.00  0.00    +0.004 A 
ATOM      5  C   UNL A   1     -26.542  -0.940  31.261  0.00  0.00    -0.000 A 
ATOM      6  C   UNL A   1     -25.783  -0.893  30.120  0.00  0.00    -0.004 A 
ENDROOT
BRANCH   2   7
ATOM      7  C   UNL A   1     -30.051  -0.775  29.852  0.00  0.00    +0.265 C 
ATOM      8  O   UNL A   1     -30.513  -0.182  28.974  0.00  0.00    -0.268 OA
ATOM      9  N   UNL A   1     -30.726  -1.068  30.987  0.00  0.00    -0.200 NA
ATOM     10  C   UNL A   1     -32.171  -0.968  30.983  0.00  0.00    +0.139 C 
ENDBRANCH   2   7
BRANCH   3  11
ATOM     11  C   UNL A   1     -25.654  -0.660  27.719  0.00  0.00    +0.053 C 
BRANCH  11  12
ATOM     12  C   UNL A   1     -25.926   0.282  26.744  0.00  0.00    -0.018 A 
ATOM     13  C   UNL A   1     -24.990   0.678  25.868  0.00  0.00    -0.004 A 
ATOM     14  C   UNL A   1     -25.317   1.263  24.729  0.00  0.00    -0.000 A 
ATOM     15  C   UNL A   1     -27.240   0.718  26.516  0.00  0.00    -0.004 A 
ATOM     16  C   UNL A   1     -27.567   1.387  25.386  0.00  0.00    -0.000 A 
ATOM     17  C   UNL A   1     -26.578   1.712  24.486  0.00  0.00    -0.000 A 
ENDBRANCH  11  12
ENDBRANCH   3  11
TORSDOF 3
