MODEL 1050
MODEL 1
REMARK VINA RESULT:    -5.465      0.000      0.000
REMARK INTER + INTRA:          -5.465
REMARK INTER:                  -5.465
REMARK INTRA:                   0.000
REMARK UNBOUND:                 0.000
REMARK  Name = No_1050-gen_results/8p0m/2024-11-27-11-27-31/
REMARK  0 active torsions:
REMARK  status: ('A' for Active; 'I' for Inactive)
REMARK                            x       y       z     vdW  Elec       q    Type
REMARK                         _______ _______ _______ _____ _____    ______ ____
ROOT
ATOM      1  C   UNL A   1     -24.289  -2.239  29.227  0.00  0.00    +0.049 A 
ATOM      2  C   UNL A   1     -23.342  -1.517  29.436  0.00  0.00    +0.222 A 
ATOM      3  N   UNL A   1     -23.254  -0.704  30.447  0.00  0.00    -0.216 NA
ATOM      4  C   UNL A   1     -25.407  -2.184  30.163  0.00  0.00    +0.005 A 
ATOM      5  C   UNL A   1     -26.490  -3.072  29.948  0.00  0.00    +0.004 A 
ATOM      6  C   UNL A   1     -25.344  -1.473  31.339  0.00  0.00    +0.021 A 
ATOM      7  C   UNL A   1     -24.195  -0.629  31.416  0.00  0.00    +0.101 A 
ATOM      8  C   UNL A   1     -26.337  -4.365  29.686  0.00  0.00    +0.042 A 
ATOM      9  C   UNL A   1     -24.969  -4.777  29.155  0.00  0.00    +0.196 A 
ATOM     10  C   UNL A   1     -23.959  -3.783  29.053  0.00  0.00    +0.046 A 
ATOM     11  F   UNL A   1     -22.298  -1.461  28.569  0.00  0.00    -0.183 F 
ATOM     12  O   UNL A   1     -24.781  -5.969  28.553  0.00  0.00    -0.287 OA
ENDROOT
TORSDOF 0
ENDMDL
ENDMDL
