REMARK  Name = No_1051-gen_results/8p0m/2024-11-27-11-27-31/
REMARK  0 active torsions:
REMARK  status: ('A' for Active; 'I' for Inactive)
REMARK                            x       y       z     vdW  Elec       q    Type
REMARK                         _______ _______ _______ _____ _____    ______ ____
ROOT
ATOM      1 CL   UNL A   1     -28.149  -0.820  28.908  0.00  0.00    -0.082 Cl
ATOM      2  C   UNL A   1     -28.532  -0.047  29.773  0.00  0.00    +0.058 A 
ATOM      3  C   UNL A   1     -29.701   0.035  30.242  0.00  0.00    +0.011 A 
ATOM      4  C   UNL A   1     -27.457   0.897  30.382  0.00  0.00    +0.011 A 
ATOM      5  C   UNL A   1     -27.854   1.853  31.446  0.00  0.00    +0.001 A 
ATOM      6  C   UNL A   1     -30.062   1.052  31.347  0.00  0.00    +0.001 A 
ATOM      7  C   UNL A   1     -29.124   1.867  31.875  0.00  0.00    +0.000 A 
ENDROOT
TORSDOF 0
