MODEL 1051
MODEL 1
REMARK VINA RESULT:    -4.400      0.000      0.000
REMARK INTER + INTRA:          -4.400
REMARK INTER:                  -4.400
REMARK INTRA:                   0.000
REMARK UNBOUND:                 0.000
REMARK  Name = No_1051-gen_results/8p0m/2024-11-27-11-27-31/
REMARK  0 active torsions:
REMARK  status: ('A' for Active; 'I' for Inactive)
REMARK                            x       y       z     vdW  Elec       q    Type
REMARK                         _______ _______ _______ _____ _____    ______ ____
ROOT
ATOM      1 CL   UNL A   1      -9.206 -10.851  16.910  0.00  0.00    -0.082 Cl
ATOM      2  C   UNL A   1      -9.231 -10.319  18.010  0.00  0.00    +0.058 A 
ATOM      3  C   UNL A   1     -10.202  -9.694  18.519  0.00  0.00    +0.011 A 
ATOM      4  C   UNL A   1      -7.951 -10.470  18.879  0.00  0.00    +0.011 A 
ATOM      5  C   UNL A   1      -7.919  -9.857  20.231  0.00  0.00    +0.001 A 
ATOM      6  C   UNL A   1     -10.114  -9.071  19.930  0.00  0.00    +0.001 A 
ATOM      7  C   UNL A   1      -9.001  -9.207  20.682  0.00  0.00    +0.000 A 
ENDROOT
TORSDOF 0
ENDMDL
ENDMDL
