REMARK  Name = No_1052-gen_results/8p0m/2024-11-27-11-27-31/
REMARK  0 active torsions:
REMARK  status: ('A' for Active; 'I' for Inactive)
REMARK                            x       y       z     vdW  Elec       q    Type
REMARK                         _______ _______ _______ _____ _____    ______ ____
ROOT
ATOM      1  O   UNL A   1     -28.123  -1.335  28.487  0.00  0.00    -0.273 OA
ATOM      2  C   UNL A   1     -27.481  -0.404  28.709  0.00  0.00    +0.243 C 
ATOM      3  C   UNL A   1     -27.190   0.246  29.527  0.00  0.00    +0.087 C 
ATOM      4  N   UNL A   1     -26.602  -0.158  27.552  0.00  0.00    -0.189 NA
ATOM      5  C   UNL A   1     -25.642   0.903  27.582  0.00  0.00    +0.172 C 
ATOM      6  C   UNL A   1     -25.500   1.614  28.737  0.00  0.00    +0.055 C 
ATOM      7  C   UNL A   1     -26.255   1.316  29.813  0.00  0.00    +0.014 C 
ATOM      8  N   UNL A   1     -24.895   1.148  26.495  0.00  0.00    -0.166 NA
ATOM      9  C   UNL A   1     -23.905   2.147  26.657  0.00  0.00    +0.242 C 
ATOM     10  N   UNL A   1     -23.674   2.804  27.701  0.00  0.00    -0.185 NA
ATOM     11  C   UNL A   1     -24.411   2.593  28.727  0.00  0.00    +0.095 C 
ATOM     12  N   UNL A   1     -23.125   2.399  25.549  0.00  0.00    -0.094 NA
ENDROOT
TORSDOF 0
