MODEL 1052
MODEL 1
REMARK VINA RESULT:    -5.331      0.000      0.000
REMARK INTER + INTRA:          -5.331
REMARK INTER:                  -5.331
REMARK INTRA:                   0.000
REMARK UNBOUND:                 0.000
REMARK  Name = No_1052-gen_results/8p0m/2024-11-27-11-27-31/
REMARK  0 active torsions:
REMARK  status: ('A' for Active; 'I' for Inactive)
REMARK                            x       y       z     vdW  Elec       q    Type
REMARK                         _______ _______ _______ _____ _____    ______ ____
ROOT
ATOM      1  O   UNL A   1     -28.899 -15.742  13.401  0.00  0.00    -0.273 OA
ATOM      2  C   UNL A   1     -29.495 -15.328  12.506  0.00  0.00    +0.243 C 
ATOM      3  C   UNL A   1     -30.090 -15.659  11.662  0.00  0.00    +0.087 C 
ATOM      4  N   UNL A   1     -29.692 -13.882  12.707  0.00  0.00    -0.189 NA
ATOM      5  C   UNL A   1     -30.465 -13.118  11.775  0.00  0.00    +0.172 C 
ATOM      6  C   UNL A   1     -31.086 -13.778  10.756  0.00  0.00    +0.055 C 
ATOM      7  C   UNL A   1     -30.962 -15.115  10.640  0.00  0.00    +0.014 C 
ATOM      8  N   UNL A   1     -30.580 -11.792  11.943  0.00  0.00    -0.166 NA
ATOM      9  C   UNL A   1     -31.447 -11.142  11.032  0.00  0.00    +0.242 C 
ATOM     10  N   UNL A   1     -32.097 -11.686  10.106  0.00  0.00    -0.185 NA
ATOM     11  C   UNL A   1     -31.958 -12.946   9.925  0.00  0.00    +0.095 C 
ATOM     12  N   UNL A   1     -31.581  -9.781  11.203  0.00  0.00    -0.094 NA
ENDROOT
TORSDOF 0
ENDMDL
ENDMDL
