MODEL 1053
MODEL 1
REMARK VINA RESULT:    -5.174      0.000      0.000
REMARK INTER + INTRA:          -5.511
REMARK INTER:                  -5.476
REMARK INTRA:                  -0.035
REMARK UNBOUND:                -0.035
REMARK  Name = No_1053-gen_results/8p0m/2024-11-27-11-27-31/
REMARK  1 active torsions:
REMARK  status: ('A' for Active; 'I' for Inactive)
REMARK    1  A    between atoms: C_2  and  C_7
REMARK                            x       y       z     vdW  Elec       q    Type
REMARK                         _______ _______ _______ _____ _____    ______ ____
ROOT
ATOM      1  C   UNL A   1     -10.278  -9.492  18.998  0.00  0.00    +0.007 A 
ATOM      2  C   UNL A   1      -9.634 -10.137  18.470  0.00  0.00    +0.080 A 
ATOM      3  C   UNL A   1      -9.771  -9.024  20.344  0.00  0.00    +0.000 A 
ATOM      4  C   UNL A   1      -8.455  -9.347  20.737  0.00  0.00    +0.000 A 
ATOM      5  C   UNL A   1      -8.388 -10.549  18.684  0.00  0.00    +0.007 A 
ATOM      6  C   UNL A   1      -7.774 -10.181  19.865  0.00  0.00    +0.000 A 
ENDROOT
BRANCH   2   7
ATOM      7  C   UNL A   1     -10.193 -10.603  17.043  0.00  0.00    +0.388 C 
ATOM      8  O   UNL A   1     -11.529 -10.529  16.880  0.00  0.00    -0.241 OA
ATOM      9  O   UNL A   1      -9.418 -10.942  16.161  0.00  0.00    -0.241 OA
ENDBRANCH   2   7
TORSDOF 1
ENDMDL
ENDMDL
