MODEL 1054
MODEL 1
REMARK VINA RESULT:    -7.922      0.000      0.000
REMARK INTER + INTRA:         -10.870
REMARK INTER:                 -10.238
REMARK INTRA:                  -0.632
REMARK UNBOUND:                -0.632
REMARK  Name = No_1054-gen_results/8p0m/2024-11-27-11-27-31/
REMARK  5 active torsions:
REMARK  status: ('A' for Active; 'I' for Inactive)
REMARK    1  A    between atoms: C_9  and  O_11
REMARK    2  A    between atoms: O_11  and  C_19
REMARK    3  A    between atoms: C_13  and  C_16
REMARK    4  A    between atoms: C_15  and  C_20
REMARK    5  A    between atoms: C_19  and  C_23
REMARK                            x       y       z     vdW  Elec       q    Type
REMARK                         _______ _______ _______ _____ _____    ______ ____
ROOT
ATOM      1  C   UNL A   1     -30.320 -13.988  28.886  0.00  0.00    +0.002 A 
ATOM      2  C   UNL A   1     -29.921 -13.392  29.859  0.00  0.00    +0.005 A 
ATOM      3  C   UNL A   1     -29.265 -12.178  29.795  0.00  0.00    +0.002 A 
ATOM      4  C   UNL A   1     -29.087 -11.583  28.515  0.00  0.00    +0.019 A 
ATOM      5  C   UNL A   1     -29.699 -12.203  27.479  0.00  0.00    +0.082 A 
ATOM      6  C   UNL A   1     -30.342 -13.343  27.640  0.00  0.00    +0.021 A 
ATOM      7  N   UNL A   1     -29.549 -11.593  26.238  0.00  0.00    -0.241 NA
ATOM      8  C   UNL A   1     -30.116 -12.117  25.218  0.00  0.00    +0.136 A 
ATOM      9  C   UNL A   1     -30.911 -13.284  25.372  0.00  0.00    +0.158 A 
ATOM     10  C   UNL A   1     -30.976 -13.928  26.517  0.00  0.00    +0.040 A 
ATOM     11  C   UNL A   1     -28.611 -11.565  31.029  0.00  0.00    +0.008 A 
ATOM     12  C   UNL A   1     -28.435 -12.423  32.034  0.00  0.00    +0.098 A 
ATOM     13  C   UNL A   1     -29.078 -13.645  32.216  0.00  0.00    +0.013 A 
ATOM     14  C   UNL A   1     -29.666 -14.188  31.117  0.00  0.00    +0.057 A 
ENDROOT
BRANCH  12  15
ATOM     15  C   UNL A   1     -28.047 -11.639  33.324  0.00  0.00    +0.477 C 
ATOM     16  N   UNL A   1     -27.289 -12.310  34.200  0.00  0.00    +0.205 NA
ATOM     17  N   UNL A   1     -28.376 -10.395  33.579  0.00  0.00    +0.205 NA
ENDBRANCH  12  15
BRANCH  14  18
ATOM     18  C   UNL A   1     -30.241 -15.521  31.291  0.00  0.00    +0.284 C 
ATOM     19  N   UNL A   1     -29.576 -16.505  31.154  0.00  0.00    -0.084 NA
ATOM     20  O   UNL A   1     -31.433 -15.510  31.762  0.00  0.00    -0.267 OA
ENDBRANCH  14  18
BRANCH   9  21
ATOM     21  O   UNL A   1     -31.515 -13.617  24.173  0.00  0.00    -0.469 OA
BRANCH  21  22
ATOM     22  C   UNL A   1     -31.122 -14.403  23.379  0.00  0.00    +0.232 C 
BRANCH  22  23
ATOM     23  C   UNL A   1     -30.727 -13.926  22.129  0.00  0.00    +0.021 A 
ATOM     24  C   UNL A   1     -29.778 -14.290  21.615  0.00  0.00    -0.001 A 
ATOM     25  C   UNL A   1     -28.901 -13.824  21.207  0.00  0.00    -0.000 A 
ATOM     26  C   UNL A   1     -29.001 -12.366  20.625  0.00  0.00    -0.000 A 
ATOM     27  C   UNL A   1     -30.266 -11.917  20.787  0.00  0.00    -0.000 A 
ATOM     28  C   UNL A   1     -31.144 -12.596  21.622  0.00  0.00    -0.001 A 
ENDBRANCH  22  23
ENDBRANCH  21  22
ENDBRANCH   9  21
TORSDOF 5
ENDMDL
ENDMDL
