MODEL 1055
MODEL 1
REMARK VINA RESULT:    -6.169      0.000      0.000
REMARK INTER + INTRA:          -8.133
REMARK INTER:                  -7.612
REMARK INTRA:                  -0.522
REMARK UNBOUND:                -0.522
REMARK  Name = No_1055-gen_results/8p0m/2024-11-27-11-27-31/
REMARK  4 active torsions:
REMARK  status: ('A' for Active; 'I' for Inactive)
REMARK    1  A    between atoms: C_4  and  C_7
REMARK    2  A    between atoms: C_7  and  C_8
REMARK    3  A    between atoms: C_8  and  C_9
REMARK    4  A    between atoms: C_9  and  C_11
REMARK                            x       y       z     vdW  Elec       q    Type
REMARK                         _______ _______ _______ _____ _____    ______ ____
ROOT
ATOM      1  C   UNL A   1     -28.869 -11.779  32.074  0.00  0.00    +0.044 C 
ENDROOT
BRANCH   1   2
ATOM      2  C   UNL A   1     -28.273 -10.916  32.975  0.00  0.00    +0.126 C 
ATOM      3  C   UNL A   1     -27.346 -11.372  33.848  0.00  0.00    +0.455 C 
ATOM      4  N   UNL A   1     -26.865 -10.520  34.837  0.00  0.00    +0.218 NA
ATOM      5  N   UNL A   1     -26.859 -12.608  33.770  0.00  0.00    +0.218 NA
BRANCH   2   6
ATOM      6  C   UNL A   1     -29.056  -9.767  33.385  0.00  0.00    +0.268 C 
ATOM      7  N   UNL A   1     -30.155  -9.855  34.074  0.00  0.00    -0.200 NA
ATOM      8  O   UNL A   1     -28.935  -8.584  32.910  0.00  0.00    -0.269 OA
ATOM      9  C   UNL A   1     -31.129  -8.911  34.376  0.00  0.00    +0.139 C 
ENDBRANCH   2   6
ENDBRANCH   1   2
BRANCH   1  10
ATOM     10  C   UNL A   1     -28.352 -11.879  30.682  0.00  0.00    +0.031 C 
BRANCH  10  14
ATOM     11  C   UNL A   1     -30.975  -9.909  28.758  0.00  0.00    -0.000 A 
ATOM     12  C   UNL A   1     -30.823 -10.359  27.818  0.00  0.00    -0.000 A 
ATOM     13  C   UNL A   1     -30.070 -10.398  29.867  0.00  0.00    -0.004 A 
ATOM     14  C   UNL A   1     -29.290 -11.291  29.643  0.00  0.00    -0.022 A 
ATOM     15  C   UNL A   1     -29.905 -11.378  27.302  0.00  0.00    -0.000 A 
ATOM     16  C   UNL A   1     -29.108 -11.865  28.327  0.00  0.00    -0.004 A 
ENDBRANCH  10  14
ENDBRANCH   1  10
TORSDOF 4
ENDMDL
ENDMDL
