REMARK  Name = No_1056-gen_results/8p0m/2024-11-27-11-27-31/
REMARK  2 active torsions:
REMARK  status: ('A' for Active; 'I' for Inactive)
REMARK    1  A    between atoms: C_3  and  C_8
REMARK    2  A    between atoms: C_6  and  N_12
REMARK                            x       y       z     vdW  Elec       q    Type
REMARK                         _______ _______ _______ _____ _____    ______ ____
ROOT
ATOM      1  O   UNL A   1     -28.123  -1.335  28.487  0.00  0.00    -0.273 OA
ATOM      2  C   UNL A   1     -27.481  -0.404  28.709  0.00  0.00    +0.251 C 
ATOM      3  C   UNL A   1     -27.190   0.246  29.527  0.00  0.00    +0.173 C 
ATOM      4  N   UNL A   1     -26.816   0.137  27.426  0.00  0.00    -0.189 NA
ATOM      5  C   UNL A   1     -26.355   1.420  29.764  0.00  0.00    +0.021 C 
ATOM      6  C   UNL A   1     -25.989   1.237  27.394  0.00  0.00    +0.168 C 
ATOM      7  C   UNL A   1     -25.755   1.903  28.617  0.00  0.00    +0.041 C 
ENDROOT
BRANCH   3   8
ATOM      8  C   UNL A   1     -27.753  -0.214  30.978  0.00  0.00    +0.406 C 
ATOM      9  F   UNL A   1     -28.555   0.806  31.375  0.00  0.00    -0.170 F 
ATOM     10  F   UNL A   1     -28.557  -1.237  30.686  0.00  0.00    -0.170 F 
ATOM     11  F   UNL A   1     -26.833  -0.363  31.913  0.00  0.00    -0.170 F 
ENDBRANCH   3   8
BRANCH   6  12
ATOM     12  N   UNL A   1     -25.424   1.660  26.288  0.00  0.00    -0.197 NA
ATOM     13  C   UNL A   1     -25.109   1.001  25.330  0.00  0.00    +0.109 C 
ENDBRANCH   6  12
TORSDOF 2
