REMARK  Name = outputs/IAG933/test6/raw/output_1058_IAG933_linker_design_.xyz
REMARK  8 active torsions:
REMARK  status: ('A' for Active; 'I' for Inactive)
REMARK    1  A    between atoms: C_1  and  C_2
REMARK    2  A    between atoms: C_1  and  C_8
REMARK    3  A    between atoms: C_1  and  N_36
REMARK    4  A    between atoms: C_13  and  C_34
REMARK    5  A    between atoms: C_14  and  C_15
REMARK    6  A    between atoms: C_21  and  O_22
REMARK    7  A    between atoms: O_22  and  C_23
REMARK    8  A    between atoms: C_23  and  C_24
REMARK                            x       y       z     vdW  Elec       q    Type
REMARK                         _______ _______ _______ _____ _____    ______ ____
ROOT
ATOM      1  C   UNL A   1     -22.638   1.871  25.651  0.00  0.00    +0.391 A 
ATOM      2  C   UNL A   1     -21.808   1.151  27.589  0.00  0.00    +0.200 A 
ATOM      3  F   UNL A   1     -25.615   1.395  29.255  0.00  0.00    -0.188 F 
ATOM      4  C   UNL A   1     -20.454  -0.248  28.771  0.00  0.00    +0.036 C 
ATOM      5  C   UNL A   1     -22.592  -0.094  29.735  0.00  0.00    +0.066 C 
ATOM      6  C   UNL A   1     -24.590   0.829  28.662  0.00  0.00    +0.196 C 
ATOM      7  C   UNL A   1     -24.424   1.270  27.343  0.00  0.00    +0.054 C 
ATOM      8  O   UNL A   1     -20.748   1.741  26.950  0.00  0.00    -0.284 OA
ATOM      9  N   UNL A   1     -23.956  -0.110  29.464  0.00  0.00    -0.260 N 
ATOM     10  C   UNL A   1     -23.031   1.412  26.880  0.00  0.00    +0.122 A 
ATOM     11  O   UNL A   1     -21.263   2.206  25.720  0.00  0.00    -0.243 OA
ATOM     12  O   UNL A   1     -23.277   1.758  24.487  0.00  0.00    -0.240 OA
ATOM     13  C   UNL A   1     -21.732   0.263  28.650  0.00  0.00    +0.032 C 
ENDROOT
BRANCH   7  14
ATOM     14  C   UNL A   1     -25.688   1.614  26.461  0.00  0.00    +0.042 C 
ATOM     15  C   UNL A   1     -26.250   2.920  26.395  0.00  0.00    +0.077 C 
ATOM     16  C   UNL A   1     -27.438   3.091  25.645  0.00  0.00    +0.107 C 
ATOM     17  N   UNL A   1     -28.075   2.089  25.003  0.00  0.00    -0.208 NA
ATOM     18  C   UNL A   1     -27.543   0.849  25.079  0.00  0.00    +0.253 C 
ATOM     19  C   UNL A   1     -26.354   0.576  25.777  0.00  0.00    +0.193 C 
ATOM     20  F   UNL A   1     -25.860  -0.681  25.795  0.00  0.00    -0.199 F 
BRANCH  15  21
ATOM     21  C   UNL A   1     -25.642   4.093  27.123  0.00  0.00    +0.266 C 
ATOM     22  N   UNL A   1     -25.614   5.252  26.449  0.00  0.00    -0.200 NA
ATOM     23  C   UNL A   1     -25.026   6.479  26.963  0.00  0.00    +0.139 C 
ATOM     24  O   UNL A   1     -25.143   3.966  28.243  0.00  0.00    -0.268 OA
ENDBRANCH  15  21
BRANCH  18  25
ATOM     25  O   UNL A   1     -28.193  -0.208  24.477  0.00  0.00    -0.456 OA
BRANCH  25  26
ATOM     26  C   UNL A   1     -29.460   0.005  23.866  0.00  0.00    +0.243 C 
BRANCH  26  27
ATOM     27  C   UNL A   1     -30.065  -1.377  23.573  0.00  0.00    +0.229 C 
ATOM     28  O   UNL A   1     -30.729  -1.878  24.721  0.00  0.00    -0.216 OA
ENDBRANCH  26  27
ENDBRANCH  25  26
ENDBRANCH  18  25
ENDBRANCH   7  14
BRANCH   9  29
ATOM     29  C   UNL A   1     -24.855  -1.012  30.143  0.00  0.00    +0.117 C 
BRANCH  29  30
ATOM     30  C   UNL A   1     -24.973  -2.505  29.788  0.00  0.00    -0.003 C 
ATOM     31  C   UNL A   1     -23.906  -3.173  29.146  0.00  0.00    -0.003 C 
ATOM     32  C   UNL A   1     -23.989  -4.549  28.853  0.00  0.00    -0.000 C 
ATOM     33  C   UNL A   1     -25.137  -5.280  29.205  0.00  0.00    -0.000 C 
ATOM     34  C   UNL A   1     -26.232  -4.611  29.784  0.00  0.00    -0.000 C 
ATOM     35  C   UNL A   1     -26.155  -3.232  30.065  0.00  0.00    -0.003 C 
ENDBRANCH  29  30
BRANCH  29  36
ATOM     36  C   UNL A   1     -25.387  -0.679  31.571  0.00  0.00    +0.095 C 
ATOM     37  C   UNL A   1     -25.189   0.773  32.028  0.00  0.00    +0.021 C 
ATOM     38  C   UNL A   1     -25.336   0.684  33.544  0.00  0.00    +0.020 C 
ATOM     39  C   UNL A   1     -24.829  -0.715  33.905  0.00  0.00    +0.089 C 
ATOM     40  N   UNL A   1     -24.758  -1.481  32.646  0.00  0.00    -0.217 NA
ENDBRANCH  29  36
ENDBRANCH   9  29
TORSDOF 8
