MODEL 1058
MODEL 1
REMARK VINA RESULT:    -4.298      0.000      0.000
REMARK INTER + INTRA:          -4.298
REMARK INTER:                  -4.298
REMARK INTRA:                   0.000
REMARK UNBOUND:                 0.000
REMARK  Name = No_1058-gen_results/8p0m/2024-11-27-11-27-31/
REMARK  0 active torsions:
REMARK  status: ('A' for Active; 'I' for Inactive)
REMARK                            x       y       z     vdW  Elec       q    Type
REMARK                         _______ _______ _______ _____ _____    ______ ____
ROOT
ATOM      1  C   UNL A   1     -25.513  -2.566  29.763  0.00  0.00    +0.007 A 
ATOM      2  C   UNL A   1     -24.411  -2.776  29.313  0.00  0.00    +0.035 A 
ATOM      3  C   UNL A   1     -24.038  -4.048  28.890  0.00  0.00    +0.007 A 
ATOM      4  C   UNL A   1     -24.938  -5.165  29.019  0.00  0.00    +0.001 A 
ATOM      5  C   UNL A   1     -26.183  -4.837  29.572  0.00  0.00    +0.000 A 
ATOM      6  C   UNL A   1     -26.480  -3.622  29.972  0.00  0.00    +0.001 A 
ATOM      7 BR   UNL A   1     -23.088  -1.454  29.106  0.00  0.00    -0.049 Br
ENDROOT
TORSDOF 0
ENDMDL
ENDMDL
