MODEL 1059
MODEL 1
REMARK VINA RESULT:    -9.382      0.000      0.000
REMARK INTER + INTRA:         -10.256
REMARK INTER:                  -9.931
REMARK INTRA:                  -0.325
REMARK UNBOUND:                -0.325
REMARK  Name = No_1059-gen_results/8p0m/2024-11-27-11-27-31/
REMARK  1 active torsions:
REMARK  status: ('A' for Active; 'I' for Inactive)
REMARK    1  A    between atoms: C_3  and  C_7
REMARK                            x       y       z     vdW  Elec       q    Type
REMARK                         _______ _______ _______ _____ _____    ______ ____
ROOT
ATOM      1  C   UNL A   1     -25.097  -0.837  29.432  0.00  0.00    +0.068 C 
ATOM      2  C   UNL A   1     -24.956  -0.144  28.263  0.00  0.00    -0.021 A 
ATOM      3  C   UNL A   1     -24.354  -0.261  30.532  0.00  0.00    +0.041 C 
ATOM      4  C   UNL A   1     -25.413  -0.608  26.994  0.00  0.00    -0.004 A 
ATOM      5  C   UNL A   1     -24.958   0.046  25.782  0.00  0.00    -0.000 A 
ATOM      6  C   UNL A   1     -23.975   1.058  25.919  0.00  0.00    -0.000 A 
ATOM      7  C   UNL A   1     -23.441   1.411  27.170  0.00  0.00    -0.005 A 
ATOM      8  C   UNL A   1     -23.820   0.764  28.249  0.00  0.00    -0.026 A 
ATOM      9  C   UNL A   1     -23.335   0.926  29.592  0.00  0.00    +0.029 C 
ATOM     10  C   UNL A   1     -25.103   0.414  31.586  0.00  0.00    +0.135 C 
ATOM     11  C   UNL A   1     -23.213  -1.160  31.119  0.00  0.00    +0.004 C 
ATOM     12  C   UNL A   1     -25.067   0.036  32.883  0.00  0.00    +0.030 C 
ATOM     13  C   UNL A   1     -23.157  -1.484  32.510  0.00  0.00    +0.000 C 
ATOM     14  C   UNL A   1     -24.094  -0.817  33.311  0.00  0.00    +0.003 C 
ATOM     15  C   UNL A   1     -26.667  -0.362  29.717  0.00  0.00    +0.160 C 
ATOM     16  C   UNL A   1     -26.647   1.062  30.011  0.00  0.00    +0.036 C 
ATOM     17  F   UNL A   1     -24.838   1.706  31.666  0.00  0.00    -0.240 F 
ATOM     18  C   UNL A   1     -26.496   0.615  31.193  0.00  0.00    +0.033 C 
ATOM     19  O   UNL A   1     -27.566  -0.867  29.327  0.00  0.00    -0.223 OA
ATOM     20  C   UNL A   1     -27.491   0.504  32.118  0.00  0.00    +0.003 C 
ATOM     21  C   UNL A   1     -26.387  -0.441  33.306  0.00  0.00    +0.003 C 
ENDROOT
BRANCH   1  24
ATOM     22  C   UNL A   1     -23.966  -2.997  28.643  0.00  0.00    -0.004 A 
ATOM     23  C   UNL A   1     -24.001  -4.049  28.596  0.00  0.00    -0.000 A 
ATOM     24  C   UNL A   1     -25.041  -2.329  29.268  0.00  0.00    -0.017 A 
ATOM     25  C   UNL A   1     -26.119  -3.013  29.796  0.00  0.00    -0.004 A 
ATOM     26  C   UNL A   1     -25.017  -5.007  29.077  0.00  0.00    -0.000 A 
ATOM     27  C   UNL A   1     -26.066  -4.408  29.682  0.00  0.00    -0.000 A 
ENDBRANCH   1  24
TORSDOF 1
ENDMDL
ENDMDL
