REMARK  Name = outputs/IAG933/test6/raw/output_1059_IAG933_linker_design_.xyz
REMARK  6 active torsions:
REMARK  status: ('A' for Active; 'I' for Inactive)
REMARK    1  A    between atoms: C_1  and  C_2
REMARK    2  A    between atoms: C_13  and  C_35
REMARK    3  A    between atoms: C_14  and  C_15
REMARK    4  A    between atoms: C_21  and  O_22
REMARK    5  A    between atoms: O_22  and  C_23
REMARK    6  A    between atoms: C_23  and  C_24
REMARK                            x       y       z     vdW  Elec       q    Type
REMARK                         _______ _______ _______ _____ _____    ______ ____
ROOT
ATOM      1  C   UNL A   1     -24.855  -1.012  30.143  0.00  0.00    +0.050 C 
ATOM      2  C   UNL A   1     -25.387  -0.679  31.571  0.00  0.00    +0.100 C 
ATOM      3  C   UNL A   1     -25.189   0.773  32.028  0.00  0.00    +0.151 C 
ATOM      4  C   UNL A   1     -25.336   0.684  33.544  0.00  0.00    +0.044 C 
ATOM      5  C   UNL A   1     -24.829  -0.715  33.905  0.00  0.00    +0.090 C 
ATOM      6  N   UNL A   1     -24.758  -1.481  32.646  0.00  0.00    -0.217 NA
ATOM      7  C   UNL A   1     -23.381   1.554  27.252  0.00  0.00    +0.063 C 
ATOM      8  O   UNL A   1     -21.321   1.959  26.312  0.00  0.00    -0.303 OA
ATOM      9  F   UNL A   1     -23.214   2.880  25.226  0.00  0.00    -0.160 F 
ATOM     10  C   UNL A   1     -24.371   0.012  29.274  0.00  0.00    +0.096 C 
ATOM     11  C   UNL A   1     -22.516   0.978  28.093  0.00  0.00    +0.245 C 
ATOM     12  O   UNL A   1     -22.421   0.157  30.100  0.00  0.00    -0.293 OA
ATOM     13  C   UNL A   1     -22.667   2.279  26.245  0.00  0.00    +0.316 C 
ATOM     14  C   UNL A   1     -24.745   1.372  27.541  0.00  0.00    +0.064 C 
ATOM     15  O   UNL A   1     -24.654   3.423  32.220  0.00  0.00    -0.072 OA
ATOM     16  O   UNL A   1     -26.802   2.556  31.356  0.00  0.00    -0.072 OA
ATOM     17  C   UNL A   1     -25.053   1.316  29.039  0.00  0.00    +0.155 C 
ATOM     18  O   UNL A   1     -21.226   1.220  27.627  0.00  0.00    -0.161 OA
ATOM     19  C   UNL A   1     -22.998   0.244  29.104  0.00  0.00    +0.188 C 
ATOM     20  O   UNL A   1     -24.519   2.207  30.065  0.00  0.00    -0.244 OA
ATOM     21  S   UNL A   1     -25.371   2.329  31.510  0.00  0.00    -0.007 S 
ENDROOT
BRANCH  14  22
ATOM     22  C   UNL A   1     -25.688   1.614  26.461  0.00  0.00    +0.077 C 
ATOM     23  C   UNL A   1     -26.250   2.920  26.395  0.00  0.00    +0.055 C 
ATOM     24  C   UNL A   1     -27.438   3.091  25.645  0.00  0.00    +0.102 C 
ATOM     25  N   UNL A   1     -28.075   2.089  25.003  0.00  0.00    -0.212 NA
ATOM     26  C   UNL A   1     -27.543   0.849  25.079  0.00  0.00    +0.234 C 
ATOM     27  C   UNL A   1     -26.354   0.576  25.777  0.00  0.00    +0.240 C 
ATOM     28  F   UNL A   1     -25.860  -0.681  25.795  0.00  0.00    -0.227 F 
BRANCH  23  29
ATOM     29  C   UNL A   1     -25.642   4.093  27.123  0.00  0.00    +0.263 C 
ATOM     30  N   UNL A   1     -25.614   5.252  26.449  0.00  0.00    -0.200 NA
ATOM     31  C   UNL A   1     -25.026   6.479  26.963  0.00  0.00    +0.139 C 
ATOM     32  O   UNL A   1     -25.143   3.966  28.243  0.00  0.00    -0.269 OA
ENDBRANCH  23  29
BRANCH  26  33
ATOM     33  O   UNL A   1     -28.193  -0.208  24.477  0.00  0.00    -0.459 OA
BRANCH  33  34
ATOM     34  C   UNL A   1     -29.460   0.005  23.866  0.00  0.00    +0.242 C 
BRANCH  34  35
ATOM     35  C   UNL A   1     -30.065  -1.377  23.573  0.00  0.00    +0.229 C 
ATOM     36  O   UNL A   1     -30.729  -1.878  24.721  0.00  0.00    -0.216 OA
ENDBRANCH  34  35
ENDBRANCH  33  34
ENDBRANCH  26  33
ENDBRANCH  14  22
BRANCH   1  37
ATOM     37  C   UNL A   1     -24.973  -2.505  29.788  0.00  0.00    -0.021 C 
ATOM     38  C   UNL A   1     -23.906  -3.173  29.146  0.00  0.00    -0.004 C 
ATOM     39  C   UNL A   1     -23.989  -4.549  28.853  0.00  0.00    -0.000 C 
ATOM     40  C   UNL A   1     -25.137  -5.280  29.205  0.00  0.00    -0.000 C 
ATOM     41  C   UNL A   1     -26.232  -4.611  29.784  0.00  0.00    -0.000 C 
ATOM     42  C   UNL A   1     -26.155  -3.232  30.065  0.00  0.00    -0.004 C 
ENDBRANCH   1  37
TORSDOF 6
