MODEL 105
MODEL 1
REMARK VINA RESULT:    -7.188      0.000      0.000
REMARK INTER + INTRA:          -9.028
REMARK INTER:                  -8.449
REMARK INTRA:                  -0.579
REMARK UNBOUND:                -0.579
REMARK  Name = No_105-gen_results/8p0m/2024-11-27-11-27-31/
REMARK  3 active torsions:
REMARK  status: ('A' for Active; 'I' for Inactive)
REMARK    1  A    between atoms: C_2  and  C_14
REMARK    2  A    between atoms: C_3  and  C_4
REMARK    3  A    between atoms: C_4  and  C_8
REMARK                            x       y       z     vdW  Elec       q    Type
REMARK                         _______ _______ _______ _____ _____    ______ ____
ROOT
ATOM      1  C   UNL A   1     -24.071   0.464  28.520  0.00  0.00    +0.001 A 
ATOM      2  C   UNL A   1     -23.444   1.025  27.885  0.00  0.00    +0.055 A 
ATOM      3  C   UNL A   1     -23.381  -0.602  29.340  0.00  0.00    -0.018 A 
ATOM      4  C   UNL A   1     -21.981   1.127  27.795  0.00  0.00    +0.004 A 
ATOM      5  C   UNL A   1     -21.279   0.203  28.537  0.00  0.00    -0.000 A 
ATOM      6  C   UNL A   1     -21.941  -0.673  29.359  0.00  0.00    -0.004 A 
ENDROOT
BRANCH   2   7
ATOM      7  C   UNL A   1     -24.152   2.115  26.984  0.00  0.00    +0.265 C 
ATOM      8  O   UNL A   1     -24.252   1.793  25.878  0.00  0.00    -0.268 OA
ATOM      9  N   UNL A   1     -24.230   3.402  27.392  0.00  0.00    -0.200 NA
ATOM     10  C   UNL A   1     -24.815   4.381  26.499  0.00  0.00    +0.139 C 
ENDBRANCH   2   7
BRANCH   3  11
ATOM     11  C   UNL A   1     -24.024  -1.593  30.166  0.00  0.00    +0.053 C 
BRANCH  11  12
ATOM     12  C   UNL A   1     -24.552  -2.740  29.602  0.00  0.00    -0.018 A 
ATOM     13  C   UNL A   1     -23.811  -3.549  28.830  0.00  0.00    -0.004 A 
ATOM     14  C   UNL A   1     -24.166  -4.802  28.606  0.00  0.00    -0.000 A 
ATOM     15  C   UNL A   1     -25.826  -3.198  29.970  0.00  0.00    -0.004 A 
ATOM     16  C   UNL A   1     -26.226  -4.457  29.676  0.00  0.00    -0.000 A 
ATOM     17  C   UNL A   1     -25.400  -5.270  28.936  0.00  0.00    -0.000 A 
ENDBRANCH  11  12
ENDBRANCH   3  11
TORSDOF 3
ENDMDL
ENDMDL
