REMARK  Name = outputs/IAG933/test6/raw/output_106_IAG933_linker_design_.xyz
REMARK  12 active torsions:
REMARK  status: ('A' for Active; 'I' for Inactive)
REMARK    1  A    between atoms: C_1  and  C_2
REMARK    2  A    between atoms: C_1  and  C_8
REMARK    3  A    between atoms: C_1  and  C_37
REMARK    4  A    between atoms: C_13  and  C_36
REMARK    5  A    between atoms: C_14  and  C_15
REMARK    6  A    between atoms: C_21  and  O_22
REMARK    7  A    between atoms: O_22  and  C_23
REMARK    8  A    between atoms: C_23  and  C_24
REMARK    9  A    between atoms: C_28  and  C_33
REMARK   10  A    between atoms: C_28  and  N_35
REMARK   11  A    between atoms: C_33  and  C_44
REMARK   12  A    between atoms: C_40  and  C_44
REMARK                            x       y       z     vdW  Elec       q    Type
REMARK                         _______ _______ _______ _____ _____    ______ ____
ROOT
ATOM      1  C   UNL A   1     -22.870   1.846  25.938  0.00  0.00    +0.001 C 
ATOM      2  C   UNL A   1     -22.564   0.827  28.321  0.00  0.00    +0.003 C 
ATOM      3  C   UNL A   1     -23.410   0.961  27.059  0.00  0.00    +0.015 C 
ATOM      4  N   UNL A   1     -25.618   0.997  28.620  0.00  0.00    -0.268 NA
ATOM      5  C   UNL A   1     -24.883   1.178  27.440  0.00  0.00    +0.065 C 
ATOM      6  C   UNL A   1     -24.726   0.241  29.345  0.00  0.00    +0.063 C 
ATOM      7  C   UNL A   1     -23.394   1.056  29.581  0.00  0.00    +0.016 C 
ENDROOT
BRANCH   5   8
ATOM      8  C   UNL A   1     -25.688   1.614  26.461  0.00  0.00    +0.085 C 
ATOM      9  C   UNL A   1     -26.250   2.920  26.395  0.00  0.00    +0.056 C 
ATOM     10  C   UNL A   1     -27.438   3.091  25.645  0.00  0.00    +0.102 C 
ATOM     11  N   UNL A   1     -28.075   2.089  25.003  0.00  0.00    -0.212 NA
ATOM     12  C   UNL A   1     -27.543   0.849  25.079  0.00  0.00    +0.234 C 
ATOM     13  C   UNL A   1     -26.354   0.576  25.777  0.00  0.00    +0.241 C 
ATOM     14  F   UNL A   1     -25.860  -0.681  25.795  0.00  0.00    -0.227 F 
BRANCH   9  15
ATOM     15  C   UNL A   1     -25.642   4.093  27.123  0.00  0.00    +0.263 C 
ATOM     16  N   UNL A   1     -25.614   5.252  26.449  0.00  0.00    -0.200 NA
ATOM     17  C   UNL A   1     -25.026   6.479  26.963  0.00  0.00    +0.139 C 
ATOM     18  O   UNL A   1     -25.143   3.966  28.243  0.00  0.00    -0.269 OA
ENDBRANCH   9  15
BRANCH  12  19
ATOM     19  O   UNL A   1     -28.193  -0.208  24.477  0.00  0.00    -0.459 OA
BRANCH  19  20
ATOM     20  C   UNL A   1     -29.460   0.005  23.866  0.00  0.00    +0.242 C 
BRANCH  20  21
ATOM     21  C   UNL A   1     -30.065  -1.377  23.573  0.00  0.00    +0.229 C 
ATOM     22  O   UNL A   1     -30.729  -1.878  24.721  0.00  0.00    -0.216 OA
ENDBRANCH  20  21
ENDBRANCH  19  20
ENDBRANCH  12  19
ENDBRANCH   5   8
BRANCH   6  23
ATOM     23  C   UNL A   1     -24.855  -1.012  30.143  0.00  0.00    +0.053 C 
BRANCH  23  24
ATOM     24  C   UNL A   1     -24.973  -2.505  29.788  0.00  0.00    -0.020 C 
ATOM     25  C   UNL A   1     -23.906  -3.173  29.146  0.00  0.00    -0.004 C 
ATOM     26  C   UNL A   1     -23.989  -4.549  28.853  0.00  0.00    -0.000 C 
ATOM     27  C   UNL A   1     -25.137  -5.280  29.205  0.00  0.00    -0.000 C 
ATOM     28  C   UNL A   1     -26.232  -4.611  29.784  0.00  0.00    -0.000 C 
ATOM     29  C   UNL A   1     -26.155  -3.232  30.065  0.00  0.00    -0.004 C 
ENDBRANCH  23  24
BRANCH  23  30
ATOM     30  C   UNL A   1     -25.387  -0.679  31.571  0.00  0.00    +0.078 C 
ATOM     31  C   UNL A   1     -25.189   0.773  32.028  0.00  0.00    +0.019 C 
ATOM     32  C   UNL A   1     -25.336   0.684  33.544  0.00  0.00    +0.020 C 
ATOM     33  C   UNL A   1     -24.829  -0.715  33.905  0.00  0.00    +0.089 C 
ATOM     34  N   UNL A   1     -24.758  -1.481  32.646  0.00  0.00    -0.219 NA
ENDBRANCH  23  30
ENDBRANCH   6  23
BRANCH   4  35
ATOM     35  C   UNL A   1     -27.071   1.220  29.220  0.00  0.00    +0.138 C 
BRANCH  35  36
ATOM     36  C   UNL A   1     -28.136   0.323  29.118  0.00  0.00    +0.169 C 
ATOM     37  O   UNL A   1     -28.327  -0.646  28.365  0.00  0.00    -0.294 OA
BRANCH  36  38
ATOM     38  C   UNL A   1     -29.266   0.899  30.200  0.00  0.00    +0.095 C 
BRANCH  38  42
ATOM     39  C   UNL A   1     -30.572   1.287  28.785  0.00  0.00    +0.030 C 
ATOM     40  C   UNL A   1     -31.897   3.433  28.818  0.00  0.00    +0.142 C 
ATOM     41  C   UNL A   1     -31.074   3.163  27.736  0.00  0.00    +0.032 C 
ATOM     42  C   UNL A   1     -30.268   1.966  29.769  0.00  0.00    +0.123 C 
ATOM     43  O   UNL A   1     -31.477   2.592  30.029  0.00  0.00    -0.356 OA
ATOM     44  C   UNL A   1     -30.270   2.066  27.619  0.00  0.00    +0.005 C 
ENDBRANCH  38  42
ENDBRANCH  36  38
ENDBRANCH  35  36
ENDBRANCH   4  35
TORSDOF 12
