REMARK  Name = No_1061-gen_results/8p0m/2024-11-27-11-27-31/
REMARK  7 active torsions:
REMARK  status: ('A' for Active; 'I' for Inactive)
REMARK    1  A    between atoms: C_1  and  O_16
REMARK    2  A    between atoms: C_3  and  C_7
REMARK    3  A    between atoms: C_12  and  O_14
REMARK    4  A    between atoms: O_14  and  C_15
REMARK    5  A    between atoms: C_15  and  C_22
REMARK    6  A    between atoms: O_16  and  C_17
REMARK    7  A    between atoms: C_17  and  C_18
REMARK                            x       y       z     vdW  Elec       q    Type
REMARK                         _______ _______ _______ _____ _____    ______ ____
ROOT
ATOM      1  C   UNL A   1     -24.549   0.410  28.734  0.00  0.00    +0.003 A 
ATOM      2  C   UNL A   1     -23.331   0.044  29.057  0.00  0.00    +0.000 A 
ATOM      3  C   UNL A   1     -22.199   0.824  28.707  0.00  0.00    +0.003 A 
ATOM      4  C   UNL A   1     -22.366   1.818  27.696  0.00  0.00    +0.037 A 
ATOM      5  C   UNL A   1     -24.732   1.645  27.986  0.00  0.00    +0.037 A 
ATOM      6  C   UNL A   1     -23.615   2.276  27.460  0.00  0.00    +0.139 A 
ENDROOT
BRANCH   1   9
ATOM      7  C   UNL A   1     -28.016  -0.814  28.878  0.00  0.00    +0.159 A 
ATOM      8  C   UNL A   1     -27.064  -0.119  28.608  0.00  0.00    +0.038 A 
ATOM      9  C   UNL A   1     -25.765  -0.390  29.036  0.00  0.00    +0.003 A 
ATOM     10  C   UNL A   1     -25.530  -1.530  29.901  0.00  0.00    +0.001 A 
ATOM     11  C   UNL A   1     -26.689  -2.289  30.181  0.00  0.00    +0.015 A 
ATOM     12  C   UNL A   1     -27.873  -1.951  29.737  0.00  0.00    +0.092 A 
ATOM     13 CL   UNL A   1     -29.230  -2.890  30.207  0.00  0.00    -0.079 Cl
BRANCH   7  14
ATOM     14  O   UNL A   1     -29.288  -0.547  28.485  0.00  0.00    -0.416 OA
BRANCH  14  15
ATOM     15  C   UNL A   1     -30.116   0.164  29.277  0.00  0.00    +0.427 C 
ATOM     16  O   UNL A   1     -29.619   1.075  30.006  0.00  0.00    -0.237 OA
BRANCH  15  17
ATOM     17  C   UNL A   1     -31.382  -0.098  29.094  0.00  0.00    +0.463 C 
ATOM     18  O   UNL A   1     -32.173   0.139  29.925  0.00  0.00    -0.233 OA
ATOM     19  O   UNL A   1     -31.835  -0.627  27.982  0.00  0.00    -0.233 OA
ENDBRANCH  15  17
ENDBRANCH  14  15
ENDBRANCH   7  14
ENDBRANCH   1   9
BRANCH   6  20
ATOM     20  O   UNL A   1     -23.781   3.388  26.698  0.00  0.00    -0.471 OA
BRANCH  20  21
ATOM     21  C   UNL A   1     -25.142   3.791  26.456  0.00  0.00    +0.232 C 
BRANCH  21  22
ATOM     22  C   UNL A   1     -25.696   4.687  27.306  0.00  0.00    +0.021 A 
ATOM     23  C   UNL A   1     -26.228   4.401  28.284  0.00  0.00    -0.001 A 
ATOM     24  C   UNL A   1     -26.545   4.953  29.187  0.00  0.00    -0.000 A 
ATOM     25  C   UNL A   1     -26.443   6.431  29.182  0.00  0.00    -0.000 A 
ATOM     26  C   UNL A   1     -25.826   7.005  28.093  0.00  0.00    -0.000 A 
ATOM     27  C   UNL A   1     -25.326   6.105  27.097  0.00  0.00    -0.001 A 
ENDBRANCH  21  22
ENDBRANCH  20  21
ENDBRANCH   6  20
TORSDOF 7
