MODEL 1061
MODEL 1
REMARK VINA RESULT:    -7.642      0.000      0.000
REMARK INTER + INTRA:         -11.952
REMARK INTER:                 -10.770
REMARK INTRA:                  -1.183
REMARK UNBOUND:                -1.183
REMARK  Name = No_1061-gen_results/8p0m/2024-11-27-11-27-31/
REMARK  7 active torsions:
REMARK  status: ('A' for Active; 'I' for Inactive)
REMARK    1  A    between atoms: C_1  and  O_16
REMARK    2  A    between atoms: C_3  and  C_7
REMARK    3  A    between atoms: C_12  and  O_14
REMARK    4  A    between atoms: O_14  and  C_15
REMARK    5  A    between atoms: C_15  and  C_22
REMARK    6  A    between atoms: O_16  and  C_17
REMARK    7  A    between atoms: C_17  and  C_18
REMARK                            x       y       z     vdW  Elec       q    Type
REMARK                         _______ _______ _______ _____ _____    ______ ____
ROOT
ATOM      1  C   UNL A   1     -24.448   1.170  26.381  0.00  0.00    +0.003 A 
ATOM      2  C   UNL A   1     -23.411   1.960  26.229  0.00  0.00    +0.000 A 
ATOM      3  C   UNL A   1     -22.245   1.825  27.025  0.00  0.00    +0.003 A 
ATOM      4  C   UNL A   1     -22.349   1.060  28.227  0.00  0.00    +0.037 A 
ATOM      5  C   UNL A   1     -24.394   0.137  27.405  0.00  0.00    +0.037 A 
ATOM      6  C   UNL A   1     -23.351   0.159  28.318  0.00  0.00    +0.139 A 
ENDROOT
BRANCH   1   9
ATOM      7  C   UNL A   1     -27.558   2.458  24.895  0.00  0.00    +0.159 A 
ATOM      8  C   UNL A   1     -26.545   2.411  25.554  0.00  0.00    +0.038 A 
ATOM      9  C   UNL A   1     -25.710   1.295  25.605  0.00  0.00    +0.003 A 
ATOM     10  C   UNL A   1     -26.088   0.096  24.883  0.00  0.00    +0.001 A 
ATOM     11  C   UNL A   1     -27.286   0.223  24.144  0.00  0.00    +0.015 A 
ATOM     12  C   UNL A   1     -28.010   1.314  24.162  0.00  0.00    +0.092 A 
ATOM     13 CL   UNL A   1     -29.494   1.335  23.301  0.00  0.00    -0.079 Cl
BRANCH   7  14
ATOM     14  O   UNL A   1     -28.389   3.531  24.856  0.00  0.00    -0.416 OA
BRANCH  14  15
ATOM     15  C   UNL A   1     -29.154   3.846  25.920  0.00  0.00    +0.427 C 
ATOM     16  O   UNL A   1     -30.169   3.127  26.168  0.00  0.00    -0.237 OA
BRANCH  15  17
ATOM     17  C   UNL A   1     -28.667   4.805  26.660  0.00  0.00    +0.463 C 
ATOM     18  O   UNL A   1     -28.403   5.848  26.198  0.00  0.00    -0.233 OA
ATOM     19  O   UNL A   1     -28.456   4.660  27.947  0.00  0.00    -0.233 OA
ENDBRANCH  15  17
ENDBRANCH  14  15
ENDBRANCH   7  14
ENDBRANCH   1   9
BRANCH   6  20
ATOM     20  O   UNL A   1     -23.332  -0.755  29.323  0.00  0.00    -0.471 OA
BRANCH  20  21
ATOM     21  C   UNL A   1     -23.201  -2.131  28.922  0.00  0.00    +0.232 C 
BRANCH  21  22
ATOM     22  C   UNL A   1     -24.175  -2.993  29.295  0.00  0.00    +0.021 A 
ATOM     23  C   UNL A   1     -25.169  -2.671  29.775  0.00  0.00    -0.001 A 
ATOM     24  C   UNL A   1     -26.143  -3.162  29.950  0.00  0.00    -0.000 A 
ATOM     25  C   UNL A   1     -26.261  -4.613  29.675  0.00  0.00    -0.000 A 
ATOM     26  C   UNL A   1     -25.175  -5.222  29.087  0.00  0.00    -0.000 A 
ATOM     27  C   UNL A   1     -24.060  -4.376  28.780  0.00  0.00    -0.001 A 
ENDBRANCH  21  22
ENDBRANCH  20  21
ENDBRANCH   6  20
TORSDOF 7
ENDMDL
ENDMDL
