MODEL 1064
MODEL 1
REMARK VINA RESULT:    -8.518      0.000      0.000
REMARK INTER + INTRA:         -14.213
REMARK INTER:                 -12.501
REMARK INTRA:                  -1.711
REMARK UNBOUND:                -1.711
REMARK  Name = No_1064-gen_results/8p0m/2024-11-27-11-27-31/
REMARK  8 active torsions:
REMARK  status: ('A' for Active; 'I' for Inactive)
REMARK    1  A    between atoms: C_2  and  C_13
REMARK    2  A    between atoms: C_3  and  O_16
REMARK    3  A    between atoms: C_4  and  C_7
REMARK    4  A    between atoms: O_16  and  C_17
REMARK    5  A    between atoms: C_20  and  C_23
REMARK    6  A    between atoms: C_27  and  C_29
REMARK    7  A    between atoms: N_31  and  C_32
REMARK    8  A    between atoms: C_33  and  C_34
REMARK                            x       y       z     vdW  Elec       q    Type
REMARK                         _______ _______ _______ _____ _____    ______ ____
ROOT
ATOM      1  C   UNL A   1     -23.986   0.363  27.670  0.00  0.00    +0.145 A 
ATOM      2  C   UNL A   1     -22.976   1.205  27.135  0.00  0.00    +0.037 A 
ATOM      3  C   UNL A   1     -25.121   0.159  26.935  0.00  0.00    +0.039 A 
ATOM      4  C   UNL A   1     -25.393   0.770  25.769  0.00  0.00    +0.021 A 
ATOM      5  C   UNL A   1     -24.526   1.825  25.348  0.00  0.00    +0.002 A 
ATOM      6  C   UNL A   1     -23.353   2.026  26.047  0.00  0.00    +0.003 A 
ENDROOT
BRANCH   4   7
ATOM      7  C   UNL A   1     -26.718   0.659  25.129  0.00  0.00    +0.081 A 
ATOM      8  N   UNL A   1     -27.188  -0.335  24.570  0.00  0.00    -0.244 NA
ATOM      9  C   UNL A   1     -27.478   1.884  24.951  0.00  0.00    +0.019 A 
ATOM     10  C   UNL A   1     -28.787   1.835  24.428  0.00  0.00    +0.008 A 
ATOM     11  C   UNL A   1     -29.259   0.639  23.870  0.00  0.00    +0.074 A 
ATOM     12  C   UNL A   1     -28.438  -0.496  24.000  0.00  0.00    +0.103 A 
BRANCH  11  13
ATOM     13  C   UNL A   1     -30.566   0.497  23.243  0.00  0.00    +0.271 C 
ATOM     14  O   UNL A   1     -31.084  -0.584  23.170  0.00  0.00    -0.268 OA
ATOM     15  N   UNL A   1     -31.193   1.610  22.829  0.00  0.00    -0.174 NA
BRANCH  15  16
ATOM     16  C   UNL A   1     -32.526   1.525  22.188  0.00  0.00    +0.084 C 
ATOM     17  C   UNL A   1     -32.534   1.824  20.945  0.00  0.00    -0.008 C 
BRANCH  17  18
ATOM     18  C   UNL A   1     -31.966   3.013  20.471  0.00  0.00    +0.027 C 
ATOM     19  C   UNL A   1     -32.763   4.032  20.066  0.00  0.00    +0.005 C 
ENDBRANCH  17  18
ENDBRANCH  15  16
ENDBRANCH  11  13
ENDBRANCH   4   7
BRANCH   1  20
ATOM     20  O   UNL A   1     -23.659  -0.266  28.844  0.00  0.00    -0.454 OA
BRANCH  20  23
ATOM     21  C   UNL A   1     -24.300   1.303  30.640  0.00  0.00    +0.044 A 
ATOM     22  C   UNL A   1     -24.805   1.370  31.563  0.00  0.00    +0.083 A 
ATOM     23  C   UNL A   1     -24.337  -0.056  29.976  0.00  0.00    +0.145 A 
ATOM     24  C   UNL A   1     -25.135  -1.076  30.535  0.00  0.00    +0.035 A 
ATOM     25  C   UNL A   1     -25.718   0.492  32.329  0.00  0.00    +0.007 A 
ATOM     26  C   UNL A   1     -25.782  -0.765  31.746  0.00  0.00    +0.003 A 
BRANCH  24  27
ATOM     27  C   UNL A   1     -25.194  -2.379  29.964  0.00  0.00    +0.003 A 
ATOM     28  C   UNL A   1     -26.032  -3.097  30.054  0.00  0.00    +0.000 A 
ATOM     29  C   UNL A   1     -26.134  -4.517  29.545  0.00  0.00    +0.000 A 
ATOM     30  C   UNL A   1     -25.022  -4.890  28.894  0.00  0.00    +0.000 A 
ATOM     31  C   UNL A   1     -24.062  -3.095  29.248  0.00  0.00    +0.000 A 
ATOM     32  C   UNL A   1     -23.973  -4.222  28.764  0.00  0.00    +0.000 A 
ENDBRANCH  24  27
BRANCH  22  33
ATOM     33  C   UNL A   1     -24.741   2.812  32.304  0.00  0.00    +0.388 C 
ATOM     34  O   UNL A   1     -25.559   2.886  33.099  0.00  0.00    -0.241 OA
ATOM     35  O   UNL A   1     -23.905   3.726  31.995  0.00  0.00    -0.241 OA
ENDBRANCH  22  33
ENDBRANCH  20  23
ENDBRANCH   1  20
TORSDOF 8
ENDMDL
ENDMDL
