REMARK  Name = outputs/IAG933/test6/raw/output_1064_IAG933_linker_design_.xyz
REMARK  12 active torsions:
REMARK  status: ('A' for Active; 'I' for Inactive)
REMARK    1  A    between atoms: C_1  and  C_2
REMARK    2  A    between atoms: C_1  and  C_8
REMARK    3  A    between atoms: C_1  and  N_36
REMARK    4  A    between atoms: C_13  and  C_32
REMARK    5  A    between atoms: C_14  and  C_15
REMARK    6  A    between atoms: C_21  and  O_22
REMARK    7  A    between atoms: O_22  and  C_23
REMARK    8  A    between atoms: C_23  and  C_24
REMARK    9  A    between atoms: C_30  and  N_36
REMARK   10  A    between atoms: C_31  and  N_37
REMARK   11  A    between atoms: C_31  and  O_38
REMARK   12  A    between atoms: N_36  and  O_38
REMARK                            x       y       z     vdW  Elec       q    Type
REMARK                         _______ _______ _______ _____ _____    ______ ____
ROOT
ATOM      1  N   UNL A   1     -25.315  -0.066  29.077  0.00  0.00    -0.237 N 
ENDROOT
BRANCH   1   2
ATOM      2  C   UNL A   1     -24.344   0.560  28.281  0.00  0.00    +0.065 C 
ATOM      3  C   UNL A   1     -24.468   1.390  27.036  0.00  0.00    +0.017 C 
ATOM      4  C   UNL A   1     -22.113   1.853  26.390  0.00  0.00    -0.000 C 
ATOM      5  C   UNL A   1     -21.708   0.559  28.474  0.00  0.00    -0.020 C 
ATOM      6  C   UNL A   1     -21.264   1.251  27.345  0.00  0.00    -0.004 C 
ATOM      7  C   UNL A   1     -23.435   1.907  26.275  0.00  0.00    +0.001 C 
ATOM      8  C   UNL A   1     -23.017   0.327  28.851  0.00  0.00    +0.072 C 
BRANCH   3   9
ATOM      9  C   UNL A   1     -25.688   1.614  26.461  0.00  0.00    +0.039 C 
ATOM     10  C   UNL A   1     -26.250   2.920  26.395  0.00  0.00    +0.077 C 
ATOM     11  C   UNL A   1     -27.438   3.091  25.645  0.00  0.00    +0.107 C 
ATOM     12  N   UNL A   1     -28.075   2.089  25.003  0.00  0.00    -0.208 NA
ATOM     13  C   UNL A   1     -27.543   0.849  25.079  0.00  0.00    +0.253 C 
ATOM     14  C   UNL A   1     -26.354   0.576  25.777  0.00  0.00    +0.193 C 
ATOM     15  F   UNL A   1     -25.860  -0.681  25.795  0.00  0.00    -0.199 F 
BRANCH  10  16
ATOM     16  C   UNL A   1     -25.642   4.093  27.123  0.00  0.00    +0.266 C 
ATOM     17  N   UNL A   1     -25.614   5.252  26.449  0.00  0.00    -0.200 NA
ATOM     18  C   UNL A   1     -25.026   6.479  26.963  0.00  0.00    +0.139 C 
ATOM     19  O   UNL A   1     -25.143   3.966  28.243  0.00  0.00    -0.268 OA
ENDBRANCH  10  16
BRANCH  13  20
ATOM     20  O   UNL A   1     -28.193  -0.208  24.477  0.00  0.00    -0.456 OA
BRANCH  20  21
ATOM     21  C   UNL A   1     -29.460   0.005  23.866  0.00  0.00    +0.243 C 
BRANCH  21  22
ATOM     22  C   UNL A   1     -30.065  -1.377  23.573  0.00  0.00    +0.229 C 
ATOM     23  O   UNL A   1     -30.729  -1.878  24.721  0.00  0.00    -0.216 OA
ENDBRANCH  21  22
ENDBRANCH  20  21
ENDBRANCH  13  20
ENDBRANCH   3   9
ENDBRANCH   1   2
BRANCH   1  24
ATOM     24  C   UNL A   1     -24.855  -1.012  30.143  0.00  0.00    +0.147 C 
BRANCH  24  25
ATOM     25  C   UNL A   1     -24.973  -2.505  29.788  0.00  0.00    +0.002 C 
ATOM     26  C   UNL A   1     -23.906  -3.173  29.146  0.00  0.00    -0.002 C 
ATOM     27  C   UNL A   1     -23.989  -4.549  28.853  0.00  0.00    -0.000 C 
ATOM     28  C   UNL A   1     -25.137  -5.280  29.205  0.00  0.00    -0.000 C 
ATOM     29  C   UNL A   1     -26.232  -4.611  29.784  0.00  0.00    -0.000 C 
ATOM     30  C   UNL A   1     -26.155  -3.232  30.065  0.00  0.00    -0.002 C 
ENDBRANCH  24  25
BRANCH  24  31
ATOM     31  C   UNL A   1     -25.387  -0.679  31.571  0.00  0.00    +0.100 C 
ATOM     32  C   UNL A   1     -25.189   0.773  32.028  0.00  0.00    +0.021 C 
ATOM     33  C   UNL A   1     -25.336   0.684  33.544  0.00  0.00    +0.020 C 
ATOM     34  C   UNL A   1     -24.829  -0.715  33.905  0.00  0.00    +0.089 C 
ATOM     35  N   UNL A   1     -24.758  -1.481  32.646  0.00  0.00    -0.217 NA
ENDBRANCH  24  31
ENDBRANCH   1  24
BRANCH   1  36
ATOM     36  O   UNL A   1     -26.748   0.101  29.133  0.00  0.00    -0.234 OA
BRANCH  36  37
ATOM     37  C   UNL A   1     -27.957   0.022  30.033  0.00  0.00    +0.276 C 
BRANCH  37  40
ATOM     38  C   UNL A   1     -31.142  -3.462  30.337  0.00  0.00    +0.100 C 
ATOM     39  C   UNL A   1     -31.111  -0.578  27.931  0.00  0.00    +0.058 C 
ATOM     40  N   UNL A   1     -29.248  -0.536  29.335  0.00  0.00    -0.227 N 
ATOM     41  C   UNL A   1     -29.682  -1.574  30.147  0.00  0.00    +0.059 C 
ATOM     42  C   UNL A   1     -31.559  -1.763  28.621  0.00  0.00    +0.007 C 
ATOM     43  N   UNL A   1     -30.256  -3.982  31.218  0.00  0.00    -0.242 NA
ATOM     44  C   UNL A   1     -29.144  -3.331  31.648  0.00  0.00    +0.100 C 
ATOM     45  C   UNL A   1     -30.838  -2.241  29.712  0.00  0.00    +0.033 C 
ATOM     46  O   UNL A   1     -29.552   1.213  27.955  0.00  0.00    -0.270 OA
ATOM     47  C   UNL A   1     -28.927  -2.034  31.255  0.00  0.00    +0.036 C 
ATOM     48  C   UNL A   1     -29.896   0.097  28.381  0.00  0.00    +0.255 C 
ENDBRANCH  37  40
ENDBRANCH  36  37
ENDBRANCH   1  36
TORSDOF 12
