MODEL 1065
MODEL 1
REMARK VINA RESULT:    -6.301      0.000      0.000
REMARK INTER + INTRA:          -9.515
REMARK INTER:                  -7.406
REMARK INTRA:                  -2.109
REMARK UNBOUND:                -2.109
REMARK  Name = No_1065-gen_results/8p0m/2024-11-27-11-27-31/
REMARK  3 active torsions:
REMARK  status: ('A' for Active; 'I' for Inactive)
REMARK    1  A    between atoms: C_6  and  C_13
REMARK    2  A    between atoms: C_13  and  C_14
REMARK    3  A    between atoms: C_15  and  C_16
REMARK                            x       y       z     vdW  Elec       q    Type
REMARK                         _______ _______ _______ _____ _____    ______ ____
ROOT
ATOM      1  F   UNL A   1     -23.466  -3.188  29.188  0.00  0.00    -0.204 F 
ATOM      2  C   UNL A   1     -23.892  -2.129  29.090  0.00  0.00    +0.136 A 
ATOM      3  C   UNL A   1     -23.217  -1.095  28.858  0.00  0.00    +0.002 A 
ATOM      4  C   UNL A   1     -25.413  -2.039  29.273  0.00  0.00    +0.029 A 
ATOM      5  C   UNL A   1     -26.025  -0.728  29.217  0.00  0.00    +0.005 A 
ATOM      6  C   UNL A   1     -23.865   0.265  28.824  0.00  0.00    -0.020 A 
ATOM      7  C   UNL A   1     -25.242   0.385  29.005  0.00  0.00    -0.004 A 
ATOM      8  C   UNL A   1     -27.450  -0.551  29.373  0.00  0.00    +0.042 A 
ATOM      9  C   UNL A   1     -27.928   0.553  30.065  0.00  0.00    +0.196 A 
ATOM     10  C   UNL A   1     -27.035   1.761  30.071  0.00  0.00    +0.042 A 
ATOM     11  C   UNL A   1     -25.804   1.653  29.435  0.00  0.00    +0.003 A 
ATOM     12  O   UNL A   1     -29.200   0.826  30.307  0.00  0.00    -0.287 OA
ATOM     13  C   UNL A   1     -22.471  -1.004  30.290  0.00  0.00    +0.033 C 
ENDROOT
BRANCH   6  14
ATOM     14  C   UNL A   1     -23.002   1.494  28.600  0.00  0.00    +0.052 C 
BRANCH  14  15
ATOM     15  C   UNL A   1     -22.299   1.531  27.471  0.00  0.00    -0.021 C 
ATOM     16  C   UNL A   1     -22.758   1.894  26.280  0.00  0.00    -0.004 C 
BRANCH  16  17
ATOM     17  C   UNL A   1     -24.087   2.225  26.082  0.00  0.00    -0.004 A 
ATOM     18  C   UNL A   1     -24.398   3.339  26.046  0.00  0.00    -0.000 A 
ATOM     19  C   UNL A   1     -25.837   3.813  25.968  0.00  0.00    -0.000 A 
ATOM     20  C   UNL A   1     -26.789   2.786  25.939  0.00  0.00    -0.000 A 
ATOM     21  C   UNL A   1     -26.369   1.502  25.769  0.00  0.00    -0.004 A 
ATOM     22  C   UNL A   1     -24.958   1.547  25.765  0.00  0.00    -0.022 A 
ATOM     23  C   UNL A   1     -24.583   0.473  24.682  0.00  0.00    +0.031 C 
ENDBRANCH  16  17
ENDBRANCH  14  15
ENDBRANCH   6  14
TORSDOF 3
ENDMDL
ENDMDL
