REMARK  Name = No_1065-gen_results/8p0m/2024-11-27-11-27-31/
REMARK  3 active torsions:
REMARK  status: ('A' for Active; 'I' for Inactive)
REMARK    1  A    between atoms: C_6  and  C_13
REMARK    2  A    between atoms: C_13  and  C_14
REMARK    3  A    between atoms: C_15  and  C_16
REMARK                            x       y       z     vdW  Elec       q    Type
REMARK                         _______ _______ _______ _____ _____    ______ ____
ROOT
ATOM      1  F   UNL A   1     -28.073  -1.254  28.532  0.00  0.00    -0.204 F 
ATOM      2  C   UNL A   1     -27.359  -0.379  28.722  0.00  0.00    +0.136 A 
ATOM      3  C   UNL A   1     -27.701   0.761  29.125  0.00  0.00    +0.002 A 
ATOM      4  C   UNL A   1     -25.884  -0.692  28.437  0.00  0.00    +0.029 A 
ATOM      5  C   UNL A   1     -24.921   0.378  28.601  0.00  0.00    +0.005 A 
ATOM      6  C   UNL A   1     -26.691   1.870  29.270  0.00  0.00    -0.020 A 
ATOM      7  C   UNL A   1     -25.345   1.625  29.001  0.00  0.00    -0.004 A 
ATOM      8  C   UNL A   1     -23.512   0.171  28.360  0.00  0.00    +0.042 A 
ATOM      9  C   UNL A   1     -22.766   1.181  27.769  0.00  0.00    +0.196 A 
ATOM     10  C   UNL A   1     -23.277   2.579  27.973  0.00  0.00    +0.042 A 
ATOM     11  C   UNL A   1     -24.462   2.733  28.683  0.00  0.00    +0.003 A 
ATOM     12  O   UNL A   1     -21.480   1.120  27.466  0.00  0.00    -0.287 OA
ATOM     13  C   UNL A   1     -28.445   1.248  27.774  0.00  0.00    +0.033 C 
ENDROOT
BRANCH   6  14
ATOM     14  C   UNL A   1     -27.158   3.249  29.702  0.00  0.00    +0.052 C 
BRANCH  14  15
ATOM     15  C   UNL A   1     -26.850   3.621  30.942  0.00  0.00    -0.021 C 
ATOM     16  C   UNL A   1     -26.956   2.868  32.029  0.00  0.00    -0.004 C 
BRANCH  16  17
ATOM     17  C   UNL A   1     -27.478   1.587  31.980  0.00  0.00    -0.004 A 
ATOM     18  C   UNL A   1     -27.431   0.915  32.921  0.00  0.00    -0.000 A 
ATOM     19  C   UNL A   1     -27.849  -0.543  32.941  0.00  0.00    -0.000 A 
ATOM     20  C   UNL A   1     -28.310  -1.034  31.713  0.00  0.00    -0.000 A 
ATOM     21  C   UNL A   1     -28.547  -0.158  30.699  0.00  0.00    -0.004 A 
ATOM     22  C   UNL A   1     -28.135   1.108  31.168  0.00  0.00    -0.022 A 
ATOM     23  C   UNL A   1     -29.214   2.070  30.556  0.00  0.00    +0.031 C 
ENDBRANCH  16  17
ENDBRANCH  14  15
ENDBRANCH   6  14
TORSDOF 3
