REMARK  Name = No_1066-gen_results/8p0m/2024-11-27-11-27-31/
REMARK  6 active torsions:
REMARK  status: ('A' for Active; 'I' for Inactive)
REMARK    1  A    between atoms: C_3  and  O_15
REMARK    2  A    between atoms: C_4  and  C_6
REMARK    3  A    between atoms: C_6  and  C_10
REMARK    4  A    between atoms: C_8  and  C_9
REMARK    5  A    between atoms: C_9  and  C_13
REMARK    6  A    between atoms: O_15  and  C_16
REMARK                            x       y       z     vdW  Elec       q    Type
REMARK                         _______ _______ _______ _____ _____    ______ ____
ROOT
ATOM      1  C   UNL A   1     -28.016  -0.814  28.878  0.00  0.00    +0.049 A 
ATOM      2  C   UNL A   1     -28.469  -0.785  29.829  0.00  0.00    +0.061 A 
ATOM      3  C   UNL A   1     -26.504  -0.778  28.877  0.00  0.00    +0.146 A 
ATOM      4  C   UNL A   1     -25.810  -0.853  30.103  0.00  0.00    +0.030 A 
ATOM      5  C   UNL A   1     -27.991  -0.892  31.226  0.00  0.00    +0.012 A 
ATOM      6  C   UNL A   1     -26.575  -0.890  31.266  0.00  0.00    +0.004 A 
ATOM      7 CL   UNL A   1     -30.320  -0.710  29.810  0.00  0.00    -0.082 Cl
ENDROOT
BRANCH   4   8
ATOM      8  C   UNL A   1     -24.398  -0.836  30.177  0.00  0.00    -0.024 C 
ATOM      9  C   UNL A   1     -23.636  -0.904  29.156  0.00  0.00    -0.030 C 
BRANCH   8  10
ATOM     10  C   UNL A   1     -23.995  -1.576  31.434  0.00  0.00    +0.026 C 
ATOM     11  C   UNL A   1     -23.337  -0.688  32.352  0.00  0.00    +0.005 C 
ENDBRANCH   8  10
BRANCH   9  12
ATOM     12  C   UNL A   1     -22.175  -0.719  29.223  0.00  0.00    +0.026 C 
BRANCH  12  13
ATOM     13  C   UNL A   1     -21.694   0.703  29.288  0.00  0.00    +0.005 C 
ATOM     14  C   UNL A   1     -20.974   1.088  28.115  0.00  0.00    +0.000 C 
ENDBRANCH  12  13
ENDBRANCH   9  12
ENDBRANCH   4   8
BRANCH   3  15
ATOM     15  O   UNL A   1     -25.820  -0.764  27.749  0.00  0.00    -0.454 OA
BRANCH  15  16
ATOM     16  C   UNL A   1     -25.314   0.505  27.303  0.00  0.00    +0.145 A 
ATOM     17  C   UNL A   1     -25.672   1.687  27.644  0.00  0.00    +0.037 A 
ATOM     18  C   UNL A   1     -25.060   2.804  27.220  0.00  0.00    +0.003 A 
ATOM     19  C   UNL A   1     -24.040   2.724  26.219  0.00  0.00    +0.000 A 
ATOM     20  C   UNL A   1     -24.287   0.419  26.223  0.00  0.00    +0.037 A 
ATOM     21  C   UNL A   1     -23.714   1.577  25.701  0.00  0.00    +0.003 A 
ENDBRANCH  15  16
ENDBRANCH   3  15
TORSDOF 6
