MODEL 1066
MODEL 1
REMARK VINA RESULT:    -6.817      0.000      0.000
REMARK INTER + INTRA:         -10.265
REMARK INTER:                  -9.209
REMARK INTRA:                  -1.057
REMARK UNBOUND:                -1.057
REMARK  Name = No_1066-gen_results/8p0m/2024-11-27-11-27-31/
REMARK  6 active torsions:
REMARK  status: ('A' for Active; 'I' for Inactive)
REMARK    1  A    between atoms: C_3  and  O_15
REMARK    2  A    between atoms: C_4  and  C_6
REMARK    3  A    between atoms: C_6  and  C_10
REMARK    4  A    between atoms: C_8  and  C_9
REMARK    5  A    between atoms: C_9  and  C_13
REMARK    6  A    between atoms: O_15  and  C_16
REMARK                            x       y       z     vdW  Elec       q    Type
REMARK                         _______ _______ _______ _____ _____    ______ ____
ROOT
ATOM      1  C   UNL A   1     -23.613  -1.178  31.343  0.00  0.00    +0.049 A 
ATOM      2  C   UNL A   1     -23.864  -0.371  31.972  0.00  0.00    +0.061 A 
ATOM      3  C   UNL A   1     -23.644  -0.880  29.861  0.00  0.00    +0.146 A 
ATOM      4  C   UNL A   1     -23.856   0.445  29.426  0.00  0.00    +0.030 A 
ATOM      5  C   UNL A   1     -24.086   1.081  31.784  0.00  0.00    +0.012 A 
ATOM      6  C   UNL A   1     -24.094   1.406  30.406  0.00  0.00    +0.004 A 
ATOM      7 CL   UNL A   1     -23.937  -0.781  33.778  0.00  0.00    -0.082 Cl
ENDROOT
BRANCH   4   8
ATOM      8  C   UNL A   1     -23.887   0.798  28.057  0.00  0.00    -0.024 C 
ATOM      9  C   UNL A   1     -23.178   1.731  27.552  0.00  0.00    -0.030 C 
BRANCH   8  10
ATOM     10  C   UNL A   1     -25.308   0.620  27.569  0.00  0.00    +0.026 C 
ATOM     11  C   UNL A   1     -25.379  -0.436  26.597  0.00  0.00    +0.005 C 
ENDBRANCH   8  10
BRANCH   9  12
ATOM     12  C   UNL A   1     -23.089   1.984  26.102  0.00  0.00    +0.026 C 
BRANCH  12  13
ATOM     13  C   UNL A   1     -23.786   3.220  25.606  0.00  0.00    +0.005 C 
ATOM     14  C   UNL A   1     -24.389   3.967  26.665  0.00  0.00    +0.000 C 
ENDBRANCH  12  13
ENDBRANCH   9  12
ENDBRANCH   4   8
BRANCH   3  15
ATOM     15  O   UNL A   1     -23.393  -1.819  28.968  0.00  0.00    -0.454 OA
BRANCH  15  16
ATOM     16  C   UNL A   1     -24.178  -3.021  29.040  0.00  0.00    +0.145 A 
ATOM     17  C   UNL A   1     -23.894  -4.201  28.629  0.00  0.00    +0.037 A 
ATOM     18  C   UNL A   1     -24.679  -5.271  28.833  0.00  0.00    +0.003 A 
ATOM     19  C   UNL A   1     -25.979  -5.104  29.408  0.00  0.00    +0.000 A 
ATOM     20  C   UNL A   1     -25.551  -2.834  29.594  0.00  0.00    +0.037 A 
ATOM     21  C   UNL A   1     -26.415  -3.920  29.718  0.00  0.00    +0.003 A 
ENDBRANCH  15  16
ENDBRANCH   3  15
TORSDOF 6
ENDMDL
ENDMDL
