MODEL 1067
MODEL 1
REMARK VINA RESULT:    -4.309      0.000      0.000
REMARK INTER + INTRA:          -4.309
REMARK INTER:                  -4.309
REMARK INTRA:                   0.000
REMARK UNBOUND:                 0.000
REMARK  Name = No_1067-gen_results/8p0m/2024-11-27-11-27-31/
REMARK  0 active torsions:
REMARK  status: ('A' for Active; 'I' for Inactive)
REMARK                            x       y       z     vdW  Elec       q    Type
REMARK                         _______ _______ _______ _____ _____    ______ ____
ROOT
ATOM      1  C   UNL A   1     -24.012  -3.111  28.788  0.00  0.00    +0.007 A 
ATOM      2  C   UNL A   1     -24.835  -2.756  29.343  0.00  0.00    +0.035 A 
ATOM      3  C   UNL A   1     -23.974  -4.606  28.566  0.00  0.00    +0.001 A 
ATOM      4  C   UNL A   1     -25.072  -5.393  28.969  0.00  0.00    +0.000 A 
ATOM      5  C   UNL A   1     -26.102  -3.342  29.837  0.00  0.00    +0.007 A 
ATOM      6  C   UNL A   1     -26.106  -4.716  29.643  0.00  0.00    +0.001 A 
ATOM      7 BR   UNL A   1     -24.896  -0.785  29.634  0.00  0.00    -0.049 Br
ENDROOT
TORSDOF 0
ENDMDL
ENDMDL
