MODEL 1069
MODEL 1
REMARK VINA RESULT:    -5.311      0.000      0.000
REMARK INTER + INTRA:          -6.070
REMARK INTER:                  -5.932
REMARK INTRA:                  -0.138
REMARK UNBOUND:                -0.138
REMARK  Name = No_1069-gen_results/8p0m/2024-11-27-11-27-31/
REMARK  2 active torsions:
REMARK  status: ('A' for Active; 'I' for Inactive)
REMARK    1  A    between atoms: C_2  and  N_8
REMARK    2  A    between atoms: N_10  and  C_11
REMARK                            x       y       z     vdW  Elec       q    Type
REMARK                         _______ _______ _______ _____ _____    ______ ____
ROOT
ATOM      1  C   UNL A   1     -24.089  -3.535  28.840  0.00  0.00    +0.021 A 
ATOM      2  C   UNL A   1     -24.240  -2.406  29.247  0.00  0.00    +0.083 A 
ATOM      3  C   UNL A   1     -25.388  -1.923  29.851  0.00  0.00    +0.021 A 
ATOM      4  C   UNL A   1     -26.463  -2.844  30.029  0.00  0.00    +0.031 A 
ATOM      5  C   UNL A   1     -26.207  -4.127  29.702  0.00  0.00    +0.140 A 
ATOM      6  C   UNL A   1     -25.026  -4.504  29.205  0.00  0.00    +0.031 A 
ATOM      7  F   UNL A   1     -27.177  -5.000  29.934  0.00  0.00    -0.204 F 
ENDROOT
BRANCH   2   8
ATOM      8  N   UNL A   1     -23.240  -1.355  28.995  0.00  0.00    -0.227 NA
ATOM      9  C   UNL A   1     -22.258  -1.074  29.277  0.00  0.00    +0.181 C 
ATOM     10  N   UNL A   1     -21.588   0.100  28.867  0.00  0.00    -0.218 NA
BRANCH  10  11
ATOM     11  C   UNL A   1     -22.549   0.658  28.151  0.00  0.00    +0.114 C 
ATOM     12  C   UNL A   1     -22.028   1.655  27.474  0.00  0.00    +0.025 C 
ENDBRANCH  10  11
ENDBRANCH   2   8
TORSDOF 2
ENDMDL
ENDMDL
