MODEL 106
MODEL 1
REMARK VINA RESULT:    -7.037      0.000      0.000
REMARK INTER + INTRA:          -8.148
REMARK INTER:                  -7.859
REMARK INTRA:                  -0.288
REMARK UNBOUND:                -0.288
REMARK  Name = No_106-gen_results/8p0m/2024-11-27-11-27-31/
REMARK  2 active torsions:
REMARK  status: ('A' for Active; 'I' for Inactive)
REMARK    1  A    between atoms: C_3  and  C_4
REMARK    2  A    between atoms: C_10  and  C_13
REMARK                            x       y       z     vdW  Elec       q    Type
REMARK                         _______ _______ _______ _____ _____    ______ ____
ROOT
ATOM      1  C   UNL A   1     -24.962  -2.933  28.782  0.00  0.00    +0.021 A 
ATOM      2  C   UNL A   1     -26.188  -2.920  29.511  0.00  0.00    +0.125 A 
ATOM      3  C   UNL A   1     -26.782  -4.116  29.909  0.00  0.00    +0.165 A 
ATOM      4  C   UNL A   1     -26.047  -5.302  29.696  0.00  0.00    +0.039 A 
ATOM      5  C   UNL A   1     -24.864  -5.324  29.015  0.00  0.00    +0.003 A 
ATOM      6  C   UNL A   1     -24.259  -4.088  28.571  0.00  0.00    +0.002 A 
ATOM      7  O   UNL A   1     -27.916  -4.110  30.573  0.00  0.00    -0.439 OA
ATOM      8  C   UNL A   1     -28.164  -2.755  31.109  0.00  0.00    +0.241 C 
ATOM      9  N   UNL A   1     -26.767  -1.868  29.887  0.00  0.00    -0.197 NA
ATOM     10  C   UNL A   1     -27.873  -1.757  30.636  0.00  0.00    +0.039 C 
ENDROOT
BRANCH   1  13
ATOM     11  C   UNL A   1     -24.346   0.366  27.321  0.00  0.00    +0.007 A 
ATOM     12  C   UNL A   1     -24.895  -0.692  27.526  0.00  0.00    +0.000 A 
ATOM     13  C   UNL A   1     -24.386  -1.598  28.450  0.00  0.00    +0.002 A 
ATOM     14  C   UNL A   1     -23.021   0.674  27.852  0.00  0.00    +0.080 A 
ATOM     15  C   UNL A   1     -22.489  -0.112  28.855  0.00  0.00    +0.007 A 
ATOM     16  C   UNL A   1     -23.135  -1.322  29.140  0.00  0.00    +0.000 A 
BRANCH  14  17
ATOM     17  C   UNL A   1     -22.320   1.934  27.549  0.00  0.00    +0.388 C 
ATOM     18  O   UNL A   1     -21.121   1.969  27.387  0.00  0.00    -0.241 OA
ATOM     19  O   UNL A   1     -23.002   3.013  27.406  0.00  0.00    -0.241 OA
ENDBRANCH  14  17
ENDBRANCH   1  13
TORSDOF 2
ENDMDL
ENDMDL
