REMARK  Name = No_107-gen_results/8p0m/2024-11-27-11-27-31/
REMARK  2 active torsions:
REMARK  status: ('A' for Active; 'I' for Inactive)
REMARK    1  A    between atoms: C_3  and  C_7
REMARK    2  A    between atoms: C_9  and  C_13
REMARK                            x       y       z     vdW  Elec       q    Type
REMARK                         _______ _______ _______ _____ _____    ______ ____
ROOT
ATOM      1  C   UNL A   1     -25.606   1.297  27.261  0.00  0.00    +0.000 A 
ATOM      2  C   UNL A   1     -24.575   0.952  27.892  0.00  0.00    +0.007 A 
ATOM      3  C   UNL A   1     -23.251   1.581  27.714  0.00  0.00    +0.080 A 
ATOM      4  C   UNL A   1     -23.120   2.346  26.571  0.00  0.00    +0.007 A 
ATOM      5  C   UNL A   1     -25.340   2.206  26.143  0.00  0.00    +0.000 A 
ATOM      6  C   UNL A   1     -24.151   2.783  25.889  0.00  0.00    +0.000 A 
ENDROOT
BRANCH   1   9
ATOM      7  C   UNL A   1     -28.016  -0.814  28.878  0.00  0.00    +0.000 A 
ATOM      8  C   UNL A   1     -27.064  -0.119  28.608  0.00  0.00    +0.000 A 
ATOM      9  C   UNL A   1     -26.972   0.714  27.506  0.00  0.00    +0.000 A 
ATOM     10  C   UNL A   1     -28.105   0.774  26.642  0.00  0.00    +0.000 A 
ATOM     11  C   UNL A   1     -29.204   0.118  27.048  0.00  0.00    +0.000 A 
ATOM     12  C   UNL A   1     -29.213  -0.609  28.128  0.00  0.00    +0.000 A 
ENDBRANCH   1   9
BRANCH   3  13
ATOM     13  C   UNL A   1     -22.038   1.196  28.487  0.00  0.00    +0.388 C 
ATOM     14  O   UNL A   1     -22.161   0.376  29.431  0.00  0.00    -0.241 OA
ATOM     15  O   UNL A   1     -20.875   1.571  28.051  0.00  0.00    -0.241 OA
ENDBRANCH   3  13
TORSDOF 2
