REMARK  Name = No_1070-gen_results/8p0m/2024-11-27-11-27-31/
REMARK  1 active torsions:
REMARK  status: ('A' for Active; 'I' for Inactive)
REMARK    1  A    between atoms: C_5  and  C_8
REMARK                            x       y       z     vdW  Elec       q    Type
REMARK                         _______ _______ _______ _____ _____    ______ ____
ROOT
ATOM      1  C   UNL A   1     -28.016  -0.814  28.878  0.00  0.00    +0.011 A 
ATOM      2  C   UNL A   1     -28.469  -0.785  29.829  0.00  0.00    +0.001 A 
ATOM      3  C   UNL A   1     -28.196   0.348  28.055  0.00  0.00    +0.058 A 
ATOM      4  C   UNL A   1     -29.019   1.350  28.378  0.00  0.00    +0.018 A 
ATOM      5  C   UNL A   1     -29.625   1.268  29.601  0.00  0.00    +0.081 A 
ATOM      6  C   UNL A   1     -29.382   0.182  30.400  0.00  0.00    +0.007 A 
ATOM      7 CL   UNL A   1     -27.430   0.428  26.454  0.00  0.00    -0.082 Cl
ENDROOT
BRANCH   5   8
ATOM      8  C   UNL A   1     -30.529   2.296  30.078  0.00  0.00    +0.388 C 
ATOM      9  O   UNL A   1     -30.609   2.632  31.192  0.00  0.00    -0.241 OA
ATOM     10  O   UNL A   1     -31.437   2.655  29.132  0.00  0.00    -0.241 OA
ENDBRANCH   5   8
TORSDOF 1
