MODEL 1070
MODEL 1
REMARK VINA RESULT:    -5.145      0.000      0.000
REMARK INTER + INTRA:          -5.488
REMARK INTER:                  -5.446
REMARK INTRA:                  -0.042
REMARK UNBOUND:                -0.042
REMARK  Name = No_1070-gen_results/8p0m/2024-11-27-11-27-31/
REMARK  1 active torsions:
REMARK  status: ('A' for Active; 'I' for Inactive)
REMARK    1  A    between atoms: C_5  and  C_8
REMARK                            x       y       z     vdW  Elec       q    Type
REMARK                         _______ _______ _______ _____ _____    ______ ____
ROOT
ATOM      1  C   UNL A   1     -25.522  -5.275  29.331  0.00  0.00    +0.011 A 
ATOM      2  C   UNL A   1     -24.591  -5.125  28.863  0.00  0.00    +0.001 A 
ATOM      3  C   UNL A   1     -26.252  -4.091  29.685  0.00  0.00    +0.058 A 
ATOM      4  C   UNL A   1     -25.737  -2.862  29.593  0.00  0.00    +0.018 A 
ATOM      5  C   UNL A   1     -24.489  -2.766  29.042  0.00  0.00    +0.081 A 
ATOM      6  C   UNL A   1     -23.840  -3.906  28.645  0.00  0.00    +0.007 A 
ATOM      7 CL   UNL A   1     -27.859  -4.230  30.431  0.00  0.00    -0.082 Cl
ENDROOT
BRANCH   5   8
ATOM      8  C   UNL A   1     -23.824  -1.490  28.871  0.00  0.00    +0.388 C 
ATOM      9  O   UNL A   1     -24.358  -0.515  28.520  0.00  0.00    -0.241 OA
ATOM     10  O   UNL A   1     -22.471  -1.609  28.932  0.00  0.00    -0.241 OA
ENDBRANCH   5   8
TORSDOF 1
ENDMDL
ENDMDL
