REMARK  Name = outputs/IAG933/test6/raw/output_1071_IAG933_linker_design_.xyz
REMARK  9 active torsions:
REMARK  status: ('A' for Active; 'I' for Inactive)
REMARK    1  A    between atoms: C_1  and  C_2
REMARK    2  A    between atoms: C_13  and  C_31
REMARK    3  A    between atoms: C_14  and  C_15
REMARK    4  A    between atoms: C_21  and  O_22
REMARK    5  A    between atoms: O_22  and  C_23
REMARK    6  A    between atoms: C_23  and  C_24
REMARK    7  A    between atoms: N_30  and  S_41
REMARK    8  A    between atoms: N_30  and  C_42
REMARK    9  A    between atoms: N_38  and  C_42
REMARK                            x       y       z     vdW  Elec       q    Type
REMARK                         _______ _______ _______ _____ _____    ______ ____
ROOT
ATOM      1  C   UNL A   1     -24.855  -1.012  30.143  0.00  0.00    +0.044 C 
ATOM      2  C   UNL A   1     -25.387  -0.679  31.571  0.00  0.00    +0.092 C 
ATOM      3  C   UNL A   1     -25.189   0.773  32.028  0.00  0.00    +0.077 C 
ATOM      4  C   UNL A   1     -25.336   0.684  33.544  0.00  0.00    +0.036 C 
ATOM      5  C   UNL A   1     -24.829  -0.715  33.905  0.00  0.00    +0.090 C 
ATOM      6  N   UNL A   1     -24.758  -1.481  32.646  0.00  0.00    -0.218 NA
ATOM      7  C   UNL A   1     -23.203   2.111  26.183  0.00  0.00    +0.192 C 
ATOM      8  C   UNL A   1     -23.984   0.671  27.992  0.00  0.00    -0.025 C 
ATOM      9  C   UNL A   1     -24.282   1.439  26.861  0.00  0.00    +0.020 C 
ATOM     10  C   UNL A   1     -23.013   0.923  30.212  0.00  0.00    +0.100 C 
ATOM     11  O   UNL A   1     -23.382   2.754  24.995  0.00  0.00    -0.287 OA
ATOM     12  C   UNL A   1     -22.836   0.902  28.628  0.00  0.00    -0.010 C 
ATOM     13  N   UNL A   1     -24.382   1.366  30.769  0.00  0.00    -0.252 NA
ATOM     14  C   UNL A   1     -24.734  -0.372  28.695  0.00  0.00    +0.032 C 
ATOM     15  C   UNL A   1     -21.905   2.102  26.753  0.00  0.00    +0.041 C 
ATOM     16  C   UNL A   1     -21.733   1.496  27.979  0.00  0.00    +0.000 C 
ENDROOT
BRANCH   9  17
ATOM     17  C   UNL A   1     -25.688   1.614  26.461  0.00  0.00    +0.095 C 
ATOM     18  C   UNL A   1     -26.250   2.920  26.395  0.00  0.00    +0.059 C 
ATOM     19  C   UNL A   1     -27.438   3.091  25.645  0.00  0.00    +0.102 C 
ATOM     20  N   UNL A   1     -28.075   2.089  25.003  0.00  0.00    -0.212 NA
ATOM     21  C   UNL A   1     -27.543   0.849  25.079  0.00  0.00    +0.234 C 
ATOM     22  C   UNL A   1     -26.354   0.576  25.777  0.00  0.00    +0.244 C 
ATOM     23  F   UNL A   1     -25.860  -0.681  25.795  0.00  0.00    -0.227 F 
BRANCH  18  24
ATOM     24  C   UNL A   1     -25.642   4.093  27.123  0.00  0.00    +0.263 C 
ATOM     25  N   UNL A   1     -25.614   5.252  26.449  0.00  0.00    -0.200 NA
ATOM     26  C   UNL A   1     -25.026   6.479  26.963  0.00  0.00    +0.139 C 
ATOM     27  O   UNL A   1     -25.143   3.966  28.243  0.00  0.00    -0.269 OA
ENDBRANCH  18  24
BRANCH  21  28
ATOM     28  O   UNL A   1     -28.193  -0.208  24.477  0.00  0.00    -0.459 OA
BRANCH  28  29
ATOM     29  C   UNL A   1     -29.460   0.005  23.866  0.00  0.00    +0.242 C 
BRANCH  29  30
ATOM     30  C   UNL A   1     -30.065  -1.377  23.573  0.00  0.00    +0.229 C 
ATOM     31  O   UNL A   1     -30.729  -1.878  24.721  0.00  0.00    -0.216 OA
ENDBRANCH  29  30
ENDBRANCH  28  29
ENDBRANCH  21  28
ENDBRANCH   9  17
BRANCH   1  32
ATOM     32  C   UNL A   1     -24.973  -2.505  29.788  0.00  0.00    -0.021 C 
ATOM     33  C   UNL A   1     -23.906  -3.173  29.146  0.00  0.00    -0.004 C 
ATOM     34  C   UNL A   1     -23.989  -4.549  28.853  0.00  0.00    -0.000 C 
ATOM     35  C   UNL A   1     -25.137  -5.280  29.205  0.00  0.00    -0.000 C 
ATOM     36  C   UNL A   1     -26.232  -4.611  29.784  0.00  0.00    -0.000 C 
ATOM     37  C   UNL A   1     -26.155  -3.232  30.065  0.00  0.00    -0.004 C 
ENDBRANCH   1  32
BRANCH  13  38
ATOM     38  C   UNL A   1     -24.119   2.693  31.345  0.00  0.00    +0.190 C 
BRANCH  38  39
ATOM     39  N   UNL A   1     -24.732   3.834  30.726  0.00  0.00    -0.064 NA
BRANCH  39  43
ATOM     40  O   UNL A   1     -26.880   3.044  30.662  0.00  0.00    -0.156 OA
ATOM     41  O   UNL A   1     -26.145   4.719  32.440  0.00  0.00    -0.156 OA
ATOM     42  C   UNL A   1     -26.822   5.428  30.071  0.00  0.00    +0.198 C 
ATOM     43  S   UNL A   1     -26.157   4.263  31.116  0.00  0.00    +0.060 S 
ENDBRANCH  39  43
ENDBRANCH  38  39
ENDBRANCH  13  38
TORSDOF 9
