MODEL 1071
MODEL 1
REMARK VINA RESULT:    -9.040      0.000      0.000
REMARK INTER + INTRA:         -13.681
REMARK INTER:                 -12.211
REMARK INTRA:                  -1.470
REMARK UNBOUND:                -1.470
REMARK  Name = No_1071-gen_results/8p0m/2024-11-27-11-27-31/
REMARK  6 active torsions:
REMARK  status: ('A' for Active; 'I' for Inactive)
REMARK    1  A    between atoms: C_1  and  C_6
REMARK    2  A    between atoms: C_5  and  C_11
REMARK    3  A    between atoms: N_8  and  C_10
REMARK    4  A    between atoms: C_18  and  O_21
REMARK    5  A    between atoms: O_21  and  C_22
REMARK    6  A    between atoms: C_24  and  N_28
REMARK                            x       y       z     vdW  Elec       q    Type
REMARK                         _______ _______ _______ _____ _____    ______ ____
ROOT
ATOM      1  C   UNL A   1     -24.821   0.623  29.193  0.00  0.00    +0.089 C 
ATOM      2  C   UNL A   1     -24.414   0.760  28.004  0.00  0.00    +0.017 C 
ATOM      3  C   UNL A   1     -25.357   0.963  27.024  0.00  0.00    +0.002 A 
ATOM      4  C   UNL A   1     -26.741   1.078  27.363  0.00  0.00    +0.003 A 
ATOM      5  C   UNL A   1     -27.688   1.265  26.336  0.00  0.00    +0.037 A 
ATOM      6  C   UNL A   1     -27.242   1.424  25.066  0.00  0.00    +0.145 A 
ATOM      7  C   UNL A   1     -25.982   1.379  24.680  0.00  0.00    +0.037 A 
ATOM      8  C   UNL A   1     -25.046   1.131  25.646  0.00  0.00    +0.003 A 
ATOM      9  C   UNL A   1     -23.277   1.828  27.960  0.00  0.00    +0.001 C 
ATOM     10  C   UNL A   1     -22.582   1.916  26.798  0.00  0.00    +0.000 C 
ATOM     11  C   UNL A   1     -23.010   2.241  25.549  0.00  0.00    +0.000 C 
ATOM     12  C   UNL A   1     -23.769   1.257  25.080  0.00  0.00    +0.000 C 
ENDROOT
BRANCH   1  14
ATOM     13  C   UNL A   1     -23.724  -0.799  30.581  0.00  0.00    +0.269 C 
ATOM     14  N   UNL A   1     -23.850   0.244  30.239  0.00  0.00    -0.174 NA
ATOM     15  O   UNL A   1     -22.721  -0.939  31.498  0.00  0.00    -0.268 OA
BRANCH  13  16
ATOM     16  C   UNL A   1     -24.349  -2.028  30.176  0.00  0.00    +0.056 A 
ATOM     17  C   UNL A   1     -23.786  -2.770  29.406  0.00  0.00    +0.005 A 
ATOM     18  C   UNL A   1     -24.314  -3.946  28.901  0.00  0.00    +0.000 A 
ATOM     19  C   UNL A   1     -25.639  -4.287  29.303  0.00  0.00    +0.005 A 
ATOM     20  C   UNL A   1     -26.291  -3.366  30.041  0.00  0.00    +0.059 A 
ATOM     21  C   UNL A   1     -25.675  -2.263  30.437  0.00  0.00    +0.009 A 
BRANCH  20  22
ATOM     22  C   UNL A   1     -27.681  -3.720  30.414  0.00  0.00    +0.297 C 
ATOM     23  N   UNL A   1     -28.396  -3.139  31.204  0.00  0.00    -0.102 NA
ATOM     24  O   UNL A   1     -28.251  -4.636  29.657  0.00  0.00    -0.264 OA
ENDBRANCH  20  22
ENDBRANCH  13  16
ENDBRANCH   1  14
BRANCH   6  25
ATOM     25  O   UNL A   1     -28.228   1.622  24.056  0.00  0.00    -0.453 OA
BRANCH  25  26
ATOM     26  C   UNL A   1     -29.147   0.725  23.863  0.00  0.00    +0.147 A 
ATOM     27  C   UNL A   1     -30.252   1.098  23.718  0.00  0.00    +0.057 A 
ATOM     28  C   UNL A   1     -31.352   0.106  23.448  0.00  0.00    +0.089 A 
ATOM     29  C   UNL A   1     -31.002  -1.245  23.378  0.00  0.00    +0.019 A 
ATOM     30  C   UNL A   1     -29.662  -1.588  23.560  0.00  0.00    +0.005 A 
ATOM     31  C   UNL A   1     -28.716  -0.689  23.788  0.00  0.00    +0.038 A 
BRANCH  28  32
ATOM     32  N   UNL A   1     -32.685   0.326  23.231  0.00  0.00    -0.193 NA
ATOM     33  C   UNL A   1     -33.080   0.687  22.117  0.00  0.00    +0.366 C 
ATOM     34  F   UNL A   1     -32.433   0.833  21.169  0.00  0.00    -0.150 F 
ATOM     35  F   UNL A   1     -34.374   0.834  21.984  0.00  0.00    -0.150 F 
ENDBRANCH  28  32
ENDBRANCH  25  26
ENDBRANCH   6  25
TORSDOF 6
ENDMDL
ENDMDL
