REMARK  Name = outputs/IAG933/test6/raw/output_1073_IAG933_linker_design_.xyz
REMARK  13 active torsions:
REMARK  status: ('A' for Active; 'I' for Inactive)
REMARK    1  A    between atoms: C_1  and  C_2
REMARK    2  A    between atoms: C_1  and  C_8
REMARK    3  A    between atoms: C_1  and  N_34
REMARK    4  A    between atoms: C_13  and  C_28
REMARK    5  A    between atoms: C_14  and  C_15
REMARK    6  A    between atoms: C_21  and  O_22
REMARK    7  A    between atoms: O_22  and  C_23
REMARK    8  A    between atoms: C_23  and  C_24
REMARK    9  A    between atoms: N_34  and  C_35
REMARK   10  A    between atoms: C_37  and  C_39
REMARK   11  A    between atoms: C_37  and  C_42
REMARK   12  A    between atoms: C_39  and  O_40
REMARK   13  A    between atoms: O_40  and  C_41
REMARK                            x       y       z     vdW  Elec       q    Type
REMARK                         _______ _______ _______ _____ _____    ______ ____
ROOT
ATOM      1  O   UNL A   1     -27.656  -0.794  28.586  0.00  0.00    -0.274 OA
ATOM      2  N   UNL A   1     -25.507  -0.157  29.142  0.00  0.00    -0.255 N 
ATOM      3  C   UNL A   1     -26.864   0.054  28.882  0.00  0.00    +0.233 C 
ENDROOT
BRANCH   2   6
ATOM      4  C   UNL A   1     -24.498   1.223  27.243  0.00  0.00    +0.018 C 
ATOM      5  C   UNL A   1     -23.271   1.778  26.852  0.00  0.00    +0.031 C 
ATOM      6  C   UNL A   1     -24.520   0.335  28.367  0.00  0.00    +0.054 C 
ATOM      7  C   UNL A   1     -23.274  -0.065  28.861  0.00  0.00    +0.017 C 
ATOM      8  C   UNL A   1     -22.056   0.442  28.467  0.00  0.00    +0.031 C 
ATOM      9  C   UNL A   1     -22.103   1.383  27.491  0.00  0.00    +0.140 C 
ATOM     10  F   UNL A   1     -20.882   1.921  27.153  0.00  0.00    -0.204 F 
BRANCH   4  11
ATOM     11  C   UNL A   1     -25.688   1.614  26.461  0.00  0.00    +0.039 C 
ATOM     12  C   UNL A   1     -26.250   2.920  26.395  0.00  0.00    +0.077 C 
ATOM     13  C   UNL A   1     -27.438   3.091  25.645  0.00  0.00    +0.107 C 
ATOM     14  N   UNL A   1     -28.075   2.089  25.003  0.00  0.00    -0.208 NA
ATOM     15  C   UNL A   1     -27.543   0.849  25.079  0.00  0.00    +0.253 C 
ATOM     16  C   UNL A   1     -26.354   0.576  25.777  0.00  0.00    +0.193 C 
ATOM     17  F   UNL A   1     -25.860  -0.681  25.795  0.00  0.00    -0.199 F 
BRANCH  12  18
ATOM     18  C   UNL A   1     -25.642   4.093  27.123  0.00  0.00    +0.266 C 
ATOM     19  N   UNL A   1     -25.614   5.252  26.449  0.00  0.00    -0.200 NA
ATOM     20  C   UNL A   1     -25.026   6.479  26.963  0.00  0.00    +0.139 C 
ATOM     21  O   UNL A   1     -25.143   3.966  28.243  0.00  0.00    -0.268 OA
ENDBRANCH  12  18
BRANCH  15  22
ATOM     22  O   UNL A   1     -28.193  -0.208  24.477  0.00  0.00    -0.456 OA
BRANCH  22  23
ATOM     23  C   UNL A   1     -29.460   0.005  23.866  0.00  0.00    +0.243 C 
BRANCH  23  24
ATOM     24  C   UNL A   1     -30.065  -1.377  23.573  0.00  0.00    +0.229 C 
ATOM     25  O   UNL A   1     -30.729  -1.878  24.721  0.00  0.00    -0.216 OA
ENDBRANCH  23  24
ENDBRANCH  22  23
ENDBRANCH  15  22
ENDBRANCH   4  11
ENDBRANCH   2   6
BRANCH   2  26
ATOM     26  C   UNL A   1     -24.855  -1.012  30.143  0.00  0.00    +0.118 C 
BRANCH  26  27
ATOM     27  C   UNL A   1     -24.973  -2.505  29.788  0.00  0.00    -0.003 C 
ATOM     28  C   UNL A   1     -23.906  -3.173  29.146  0.00  0.00    -0.003 C 
ATOM     29  C   UNL A   1     -23.989  -4.549  28.853  0.00  0.00    -0.000 C 
ATOM     30  C   UNL A   1     -25.137  -5.280  29.205  0.00  0.00    -0.000 C 
ATOM     31  C   UNL A   1     -26.232  -4.611  29.784  0.00  0.00    -0.000 C 
ATOM     32  C   UNL A   1     -26.155  -3.232  30.065  0.00  0.00    -0.003 C 
ENDBRANCH  26  27
BRANCH  26  33
ATOM     33  C   UNL A   1     -25.387  -0.679  31.571  0.00  0.00    +0.096 C 
ATOM     34  C   UNL A   1     -25.189   0.773  32.028  0.00  0.00    +0.021 C 
ATOM     35  C   UNL A   1     -25.336   0.684  33.544  0.00  0.00    +0.020 C 
ATOM     36  C   UNL A   1     -24.829  -0.715  33.905  0.00  0.00    +0.089 C 
ATOM     37  N   UNL A   1     -24.758  -1.481  32.646  0.00  0.00    -0.217 NA
ENDBRANCH  26  33
ENDBRANCH   2  26
BRANCH   3  38
ATOM     38  C   UNL A   1     -27.267   1.597  28.968  0.00  0.00    +0.133 C 
BRANCH  38  39
ATOM     39  C   UNL A   1     -28.727   2.216  29.230  0.00  0.00    +0.215 C 
BRANCH  39  40
ATOM     40  O   UNL A   1     -29.158   2.274  30.649  0.00  0.00    -0.475 OA
BRANCH  40  45
ATOM     41  C   UNL A   1     -29.657   0.694  32.473  0.00  0.00    +0.037 C 
ATOM     42  C   UNL A   1     -29.824  -0.561  33.056  0.00  0.00    +0.003 C 
ATOM     43  C   UNL A   1     -28.749  -0.090  30.732  0.00  0.00    +0.037 C 
ATOM     44  C   UNL A   1     -29.472  -1.640  32.323  0.00  0.00    +0.000 C 
ATOM     45  C   UNL A   1     -29.155   1.019  31.388  0.00  0.00    +0.139 C 
ATOM     46  C   UNL A   1     -28.900  -1.403  31.122  0.00  0.00    +0.003 C 
ENDBRANCH  40  45
ENDBRANCH  39  40
ENDBRANCH  38  39
ENDBRANCH   3  38
TORSDOF 13
