MODEL 1073
MODEL 1
REMARK VINA RESULT:    -8.117      0.000      0.000
REMARK INTER + INTRA:         -11.935
REMARK INTER:                 -10.490
REMARK INTRA:                  -1.445
REMARK UNBOUND:                -1.445
REMARK  Name = No_1073-gen_results/8p0m/2024-11-27-11-27-31/
REMARK  5 active torsions:
REMARK  status: ('A' for Active; 'I' for Inactive)
REMARK    1  A    between atoms: C_2  and  C_11
REMARK    2  A    between atoms: C_3  and  C_7
REMARK    3  A    between atoms: C_6  and  C_14
REMARK    4  A    between atoms: C_16  and  C_20
REMARK    5  A    between atoms: C_18  and  C_23
REMARK                            x       y       z     vdW  Elec       q    Type
REMARK                         _______ _______ _______ _____ _____    ______ ____
ROOT
ATOM      1  C   UNL A   1      -8.581   0.514  35.363  0.00  0.00    +0.000 A 
ATOM      2  C   UNL A   1      -9.297   1.254  34.872  0.00  0.00    +0.007 A 
ATOM      3  C   UNL A   1     -10.790   1.409  35.151  0.00  0.00    +0.080 A 
ATOM      4  C   UNL A   1     -11.273   0.629  36.173  0.00  0.00    +0.007 A 
ATOM      5  C   UNL A   1     -10.401  -0.214  36.819  0.00  0.00    +0.000 A 
ATOM      6  C   UNL A   1      -9.069  -0.308  36.472  0.00  0.00    +0.000 A 
ENDROOT
BRANCH   1  12
ATOM      7  C   UNL A   1      -4.417   0.472  34.399  0.00  0.00    +0.010 A 
ATOM      8  C   UNL A   1      -5.007   1.341  34.488  0.00  0.00    +0.080 A 
ATOM      9  C   UNL A   1      -5.157  -0.766  34.645  0.00  0.00    +0.072 A 
ATOM     10  C   UNL A   1      -6.497  -0.768  34.942  0.00  0.00    +0.004 A 
ATOM     11  C   UNL A   1      -6.410   1.635  34.778  0.00  0.00    +0.007 A 
ATOM     12  C   UNL A   1      -7.135   0.444  35.018  0.00  0.00    +0.000 A 
BRANCH   9  13
ATOM     13  C   UNL A   1      -4.504  -2.102  34.526  0.00  0.00    +0.419 C 
ATOM     14  F   UNL A   1      -4.020  -2.361  33.473  0.00  0.00    -0.166 F 
ATOM     15  F   UNL A   1      -3.441  -2.201  35.474  0.00  0.00    -0.166 F 
ATOM     16  F   UNL A   1      -5.389  -3.078  35.015  0.00  0.00    -0.166 F 
ENDBRANCH   9  13
BRANCH   8  17
ATOM     17  C   UNL A   1      -4.306   2.775  34.146  0.00  0.00    +0.388 C 
ATOM     18  O   UNL A   1      -3.762   3.005  33.057  0.00  0.00    -0.241 OA
ATOM     19  O   UNL A   1      -4.353   3.721  34.977  0.00  0.00    -0.241 OA
ENDBRANCH   8  17
ENDBRANCH   1  12
BRANCH   5  20
ATOM     20  C   UNL A   1     -10.937  -1.046  37.965  0.00  0.00    +0.000 A 
ATOM     21  C   UNL A   1     -11.637  -1.914  37.822  0.00  0.00    +0.000 A 
ATOM     22  C   UNL A   1     -12.255  -2.709  38.903  0.00  0.00    +0.000 A 
ATOM     23  C   UNL A   1     -11.891  -2.340  40.207  0.00  0.00    +0.000 A 
ATOM     24  C   UNL A   1     -11.014  -1.310  40.404  0.00  0.00    +0.000 A 
ATOM     25  C   UNL A   1     -10.499  -0.602  39.341  0.00  0.00    +0.000 A 
ENDBRANCH   5  20
BRANCH   3  26
ATOM     26  C   UNL A   1     -11.614   2.396  34.435  0.00  0.00    +0.388 C 
ATOM     27  O   UNL A   1     -11.307   3.512  34.434  0.00  0.00    -0.241 OA
ATOM     28  O   UNL A   1     -12.603   1.923  33.806  0.00  0.00    -0.241 OA
ENDBRANCH   3  26
TORSDOF 5
ENDMDL
ENDMDL
