MODEL 1074
MODEL 1
REMARK VINA RESULT:    -7.801      0.000      0.000
REMARK INTER + INTRA:         -11.713
REMARK INTER:                 -10.081
REMARK INTRA:                  -1.632
REMARK UNBOUND:                -1.632
REMARK  Name = No_1074-gen_results/8p0m/2024-11-27-11-27-31/
REMARK  5 active torsions:
REMARK  status: ('A' for Active; 'I' for Inactive)
REMARK    1  A    between atoms: C_3  and  C_4
REMARK    2  A    between atoms: C_5  and  O_22
REMARK    3  A    between atoms: C_7  and  O_13
REMARK    4  A    between atoms: O_13  and  C_15
REMARK    5  A    between atoms: O_22  and  C_23
REMARK                            x       y       z     vdW  Elec       q    Type
REMARK                         _______ _______ _______ _____ _____    ______ ____
ROOT
ATOM      1  C   UNL A   1     -30.905 -12.728  25.749  0.00  0.00    +0.016 C 
ATOM      2  C   UNL A   1     -30.522 -12.870  24.778  0.00  0.00    +0.049 C 
ATOM      3  C   UNL A   1     -30.461 -13.749  26.706  0.00  0.00    +0.084 C 
ATOM      4  C   UNL A   1     -30.817 -13.988  23.956  0.00  0.00    +0.213 C 
ATOM      5  C   UNL A   1     -30.782 -15.152  24.788  0.00  0.00    +0.262 C 
ATOM      6  C   UNL A   1     -30.447 -15.019  26.202  0.00  0.00    +0.198 C 
ATOM      7  O   UNL A   1     -30.290 -16.062  26.938  0.00  0.00    -0.292 OA
ENDROOT
BRANCH   3   8
ATOM      8  C   UNL A   1     -29.985 -13.270  27.920  0.00  0.00    -0.015 A 
ATOM      9  C   UNL A   1     -30.314 -13.923  29.128  0.00  0.00    -0.003 A 
ATOM     10  C   UNL A   1     -29.280 -12.066  28.148  0.00  0.00    -0.003 A 
ATOM     11  C   UNL A   1     -28.892 -11.615  29.423  0.00  0.00    +0.006 A 
ATOM     12  C   UNL A   1     -29.179 -12.347  30.544  0.00  0.00    +0.035 A 
ATOM     13  C   UNL A   1     -29.836 -13.536  30.394  0.00  0.00    +0.006 A 
ATOM     14 BR   UNL A   1     -28.384 -11.734  32.149  0.00  0.00    -0.049 Br
ENDBRANCH   3   8
BRANCH   5  15
ATOM     15  O   UNL A   1     -30.727 -16.389  24.238  0.00  0.00    -0.468 OA
BRANCH  15  16
ATOM     16  C   UNL A   1     -29.672 -16.858  23.651  0.00  0.00    +0.142 A 
ATOM     17  C   UNL A   1     -28.660 -16.960  23.909  0.00  0.00    +0.037 A 
ATOM     18  C   UNL A   1     -30.149 -17.469  22.254  0.00  0.00    +0.074 A 
ATOM     19  C   UNL A   1     -27.553 -17.520  23.172  0.00  0.00    +0.007 A 
ATOM     20  C   UNL A   1     -29.125 -17.987  21.462  0.00  0.00    +0.150 A 
ATOM     21  C   UNL A   1     -27.842 -18.019  21.909  0.00  0.00    +0.050 A 
ATOM     22  O   UNL A   1     -29.472 -18.485  20.263  0.00  0.00    -0.451 OA
ATOM     23  C   UNL A   1     -28.817 -19.483  19.751  0.00  0.00    +0.175 C 
ATOM     24  C   UNL A   1     -27.704 -19.445  19.509  0.00  0.00    +0.021 C 
ATOM     25  C   UNL A   1     -26.522 -19.196  20.402  0.00  0.00    +0.077 C 
ATOM     26  C   UNL A   1     -26.653 -18.624  21.380  0.00  0.00    +0.088 C 
ATOM     27  N   UNL A   1     -25.590 -18.299  22.272  0.00  0.00    -0.152 NA
ENDBRANCH  15  16
ENDBRANCH   5  15
BRANCH   4  28
ATOM     28  O   UNL A   1     -30.914 -14.110  22.694  0.00  0.00    -0.475 OA
BRANCH  28  29
ATOM     29  C   UNL A   1     -30.167 -13.503  21.794  0.00  0.00    +0.139 A 
ATOM     30  C   UNL A   1     -30.613 -12.347  21.292  0.00  0.00    +0.037 A 
ATOM     31  C   UNL A   1     -29.819 -11.640  20.493  0.00  0.00    +0.003 A 
ATOM     32  C   UNL A   1     -28.502 -12.163  20.095  0.00  0.00    +0.000 A 
ATOM     33  C   UNL A   1     -28.058 -13.344  20.631  0.00  0.00    +0.003 A 
ATOM     34  C   UNL A   1     -28.857 -13.993  21.470  0.00  0.00    +0.037 A 
ENDBRANCH  28  29
ENDBRANCH   4  28
TORSDOF 5
ENDMDL
ENDMDL
