REMARK  Name = No_1074-gen_results/8p0m/2024-11-27-11-27-31/
REMARK  5 active torsions:
REMARK  status: ('A' for Active; 'I' for Inactive)
REMARK    1  A    between atoms: C_3  and  C_4
REMARK    2  A    between atoms: C_5  and  O_22
REMARK    3  A    between atoms: C_7  and  O_13
REMARK    4  A    between atoms: O_13  and  C_15
REMARK    5  A    between atoms: O_22  and  C_23
REMARK                            x       y       z     vdW  Elec       q    Type
REMARK                         _______ _______ _______ _____ _____    ______ ____
ROOT
ATOM      1  C   UNL A   1     -28.016  -0.814  28.878  0.00  0.00    +0.016 C 
ATOM      2  C   UNL A   1     -28.469  -0.785  29.829  0.00  0.00    +0.049 C 
ATOM      3  C   UNL A   1     -28.182   0.428  28.113  0.00  0.00    +0.084 C 
ATOM      4  C   UNL A   1     -29.865  -0.657  30.047  0.00  0.00    +0.213 C 
ATOM      5  C   UNL A   1     -30.355   0.318  29.120  0.00  0.00    +0.262 C 
ATOM      6  C   UNL A   1     -29.426   0.983  28.213  0.00  0.00    +0.198 C 
ATOM      7  O   UNL A   1     -29.825   1.947  27.460  0.00  0.00    -0.292 OA
ENDROOT
BRANCH   3   8
ATOM      8  C   UNL A   1     -27.028   0.934  27.528  0.00  0.00    -0.015 A 
ATOM      9  C   UNL A   1     -27.082   2.087  26.715  0.00  0.00    -0.003 A 
ATOM     10  C   UNL A   1     -25.743   0.344  27.519  0.00  0.00    -0.003 A 
ATOM     11  C   UNL A   1     -24.637   0.887  26.841  0.00  0.00    +0.006 A 
ATOM     12  C   UNL A   1     -24.749   2.057  26.138  0.00  0.00    +0.035 A 
ATOM     13  C   UNL A   1     -25.958   2.695  26.125  0.00  0.00    +0.006 A 
ATOM     14 BR   UNL A   1     -23.126   2.781  25.486  0.00  0.00    -0.049 Br
ENDBRANCH   3   8
BRANCH   5  15
ATOM     15  O   UNL A   1     -31.582   0.869  29.286  0.00  0.00    -0.468 OA
BRANCH  15  16
ATOM     16  C   UNL A   1     -31.823   1.821  30.131  0.00  0.00    +0.142 A 
ATOM     17  C   UNL A   1     -31.442   2.097  31.070  0.00  0.00    +0.037 A 
ATOM     18  C   UNL A   1     -32.903   2.784  29.454  0.00  0.00    +0.074 A 
ATOM     19  C   UNL A   1     -31.777   3.204  31.932  0.00  0.00    +0.007 A 
ATOM     20  C   UNL A   1     -33.313   3.853  30.249  0.00  0.00    +0.150 A 
ATOM     21  C   UNL A   1     -32.761   4.069  31.472  0.00  0.00    +0.050 A 
ATOM     22  O   UNL A   1     -34.245   4.674  29.735  0.00  0.00    -0.451 OA
ATOM     23  C   UNL A   1     -34.247   5.937  30.039  0.00  0.00    +0.175 C 
ATOM     24  C   UNL A   1     -34.368   6.326  31.104  0.00  0.00    +0.021 C 
ATOM     25  C   UNL A   1     -33.531   6.087  32.328  0.00  0.00    +0.077 C 
ATOM     26  C   UNL A   1     -32.880   5.154  32.404  0.00  0.00    +0.088 C 
ATOM     27  N   UNL A   1     -32.086   4.816  33.538  0.00  0.00    -0.152 NA
ENDBRANCH  15  16
ENDBRANCH   5  15
BRANCH   4  28
ATOM     28  O   UNL A   1     -30.623  -1.098  30.968  0.00  0.00    -0.475 OA
BRANCH  28  29
ATOM     29  C   UNL A   1     -30.608  -2.316  31.471  0.00  0.00    +0.139 A 
ATOM     30  C   UNL A   1     -31.760  -2.814  31.929  0.00  0.00    +0.037 A 
ATOM     31  C   UNL A   1     -31.809  -4.088  32.309  0.00  0.00    +0.003 A 
ATOM     32  C   UNL A   1     -30.591  -4.914  32.309  0.00  0.00    +0.000 A 
ATOM     33  C   UNL A   1     -29.422  -4.388  31.823  0.00  0.00    +0.003 A 
ATOM     34  C   UNL A   1     -29.427  -3.129  31.399  0.00  0.00    +0.037 A 
ENDBRANCH  28  29
ENDBRANCH   4  28
TORSDOF 5
