MODEL 1075
MODEL 1
REMARK VINA RESULT:    -5.863      0.000      0.000
REMARK INTER + INTRA:          -8.429
REMARK INTER:                  -7.919
REMARK INTRA:                  -0.510
REMARK UNBOUND:                -0.510
REMARK  Name = No_1075-gen_results/8p0m/2024-11-27-11-27-31/
REMARK  6 active torsions:
REMARK  status: ('A' for Active; 'I' for Inactive)
REMARK    1  A    between atoms: C_2  and  C_10
REMARK    2  A    between atoms: C_5  and  C_7
REMARK    3  A    between atoms: C_6  and  O_19
REMARK    4  A    between atoms: O_19  and  C_20
REMARK    5  A    between atoms: C_20  and  C_21
REMARK    6  A    between atoms: C_21  and  N_22
REMARK                            x       y       z     vdW  Elec       q    Type
REMARK                         _______ _______ _______ _____ _____    ______ ____
ROOT
ATOM      1  C   UNL A   1     -20.205 -21.263   7.569  0.00  0.00    +0.042 A 
ATOM      2  C   UNL A   1     -19.255 -21.307   6.821  0.00  0.00    +0.057 A 
ATOM      3  C   UNL A   1     -18.960 -20.364   5.852  0.00  0.00    +0.005 A 
ATOM      4  C   UNL A   1     -19.832 -19.240   5.753  0.00  0.00    +0.010 A 
ATOM      5  C   UNL A   1     -20.790 -19.147   6.698  0.00  0.00    +0.114 A 
ATOM      6  C   UNL A   1     -20.934 -20.074   7.647  0.00  0.00    +0.145 A 
ENDROOT
BRANCH   2   7
ATOM      7  C   UNL A   1     -18.296 -22.581   6.778  0.00  0.00    +0.249 C 
ATOM      8  N   UNL A   1     -17.164 -22.590   7.333  0.00  0.00    -0.279 N 
ATOM      9  C   UNL A   1     -16.236 -23.467   7.347  0.00  0.00    +0.061 C 
ATOM     10  C   UNL A   1     -15.272 -23.207   8.350  0.00  0.00    +0.020 C 
ATOM     11  C   UNL A   1     -15.606 -23.656   5.988  0.00  0.00    +0.020 C 
ATOM     12  C   UNL A   1     -16.960 -24.916   7.717  0.00  0.00    +0.020 C 
ATOM     13  O   UNL A   1     -18.388 -23.181   5.616  0.00  0.00    -0.270 OA
ATOM     14  C   UNL A   1     -17.146 -21.705   8.601  0.00  0.00    +0.094 C 
ATOM     15  C   UNL A   1     -16.002 -22.884   9.539  0.00  0.00    +0.023 C 
ENDBRANCH   2   7
BRANCH   5  16
ATOM     16  C   UNL A   1     -21.603 -17.893   6.417  0.00  0.00    +0.391 C 
ATOM     17  O   UNL A   1     -22.661 -17.896   6.371  0.00  0.00    -0.240 OA
ATOM     18  O   UNL A   1     -20.831 -16.862   5.985  0.00  0.00    -0.240 OA
ENDBRANCH   5  16
BRANCH   6  19
ATOM     19  O   UNL A   1     -21.945 -19.927   8.534  0.00  0.00    -0.473 OA
BRANCH  19  20
ATOM     20  C   UNL A   1     -22.760 -21.018   8.730  0.00  0.00    +0.232 C 
BRANCH  20  21
ATOM     21  C   UNL A   1     -24.070 -20.739   8.202  0.00  0.00    +0.174 C 
BRANCH  21  22
ATOM     22  N   UNL A   1     -24.703 -19.871   8.789  0.00  0.00    -0.253 NA
ATOM     23  C   UNL A   1     -25.803 -19.503   8.297  0.00  0.00    +0.161 C 
ATOM     24 CL   UNL A   1     -26.766 -18.211   9.136  0.00  0.00    -0.059 Cl
ENDBRANCH  21  22
ENDBRANCH  20  21
ENDBRANCH  19  20
ENDBRANCH   6  19
TORSDOF 6
ENDMDL
ENDMDL
