REMARK  Name = No_1075-gen_results/8p0m/2024-11-27-11-27-31/
REMARK  6 active torsions:
REMARK  status: ('A' for Active; 'I' for Inactive)
REMARK    1  A    between atoms: C_2  and  C_10
REMARK    2  A    between atoms: C_5  and  C_7
REMARK    3  A    between atoms: C_6  and  O_19
REMARK    4  A    between atoms: O_19  and  C_20
REMARK    5  A    between atoms: C_20  and  C_21
REMARK    6  A    between atoms: C_21  and  N_22
REMARK                            x       y       z     vdW  Elec       q    Type
REMARK                         _______ _______ _______ _____ _____    ______ ____
ROOT
ATOM      1  C   UNL A   1     -28.016  -0.814  28.878  0.00  0.00    +0.042 A 
ATOM      2  C   UNL A   1     -27.064  -0.119  28.608  0.00  0.00    +0.057 A 
ATOM      3  C   UNL A   1     -26.972   0.714  27.506  0.00  0.00    +0.005 A 
ATOM      4  C   UNL A   1     -28.105   0.774  26.642  0.00  0.00    +0.010 A 
ATOM      5  C   UNL A   1     -29.201   0.104  27.053  0.00  0.00    +0.114 A 
ATOM      6  C   UNL A   1     -29.210  -0.603  28.185  0.00  0.00    +0.145 A 
ENDROOT
BRANCH   2   7
ATOM      7  C   UNL A   1     -25.710  -0.209  29.447  0.00  0.00    +0.249 C 
ATOM      8  N   UNL A   1     -24.625  -0.595  28.934  0.00  0.00    -0.279 N 
ATOM      9  C   UNL A   1     -23.474  -0.803  29.446  0.00  0.00    +0.061 C 
ATOM     10  C   UNL A   1     -22.465  -0.920  28.461  0.00  0.00    +0.020 C 
ATOM     11  C   UNL A   1     -23.475  -1.973  30.401  0.00  0.00    +0.020 C 
ATOM     12  C   UNL A   1     -23.117   0.534  30.367  0.00  0.00    +0.020 C 
ATOM     13  O   UNL A   1     -25.958  -0.607  30.671  0.00  0.00    -0.270 OA
ATOM     14  C   UNL A   1     -24.534  -0.208  27.439  0.00  0.00    +0.094 C 
ATOM     15  C   UNL A   1     -22.679   0.150  27.533  0.00  0.00    +0.023 C 
ENDBRANCH   2   7
BRANCH   5  16
ATOM     16  C   UNL A   1     -30.285   0.292  26.003  0.00  0.00    +0.391 C 
ATOM     17  O   UNL A   1     -30.977   1.093  26.032  0.00  0.00    -0.240 OA
ATOM     18  O   UNL A   1     -30.424  -0.797  25.203  0.00  0.00    -0.240 OA
ENDBRANCH   5  16
BRANCH   6  19
ATOM     19  O   UNL A   1     -30.337  -1.279  28.506  0.00  0.00    -0.473 OA
BRANCH  19  20
ATOM     20  C   UNL A   1     -30.454  -1.705  29.809  0.00  0.00    +0.232 C 
BRANCH  20  21
ATOM     21  C   UNL A   1     -31.846  -1.866  30.138  0.00  0.00    +0.174 C 
BRANCH  21  22
ATOM     22  N   UNL A   1     -32.080  -2.249  31.277  0.00  0.00    -0.253 NA
ATOM     23  C   UNL A   1     -31.106  -2.580  32.005  0.00  0.00    +0.161 C 
ATOM     24 CL   UNL A   1     -31.416  -3.160  33.698  0.00  0.00    -0.059 Cl
ENDBRANCH  21  22
ENDBRANCH  20  21
ENDBRANCH  19  20
ENDBRANCH   6  19
TORSDOF 6
