REMARK  Name = outputs/IAG933/test6/raw/output_1076_IAG933_linker_design_.xyz
REMARK  10 active torsions:
REMARK  status: ('A' for Active; 'I' for Inactive)
REMARK    1  A    between atoms: C_1  and  C_2
REMARK    2  A    between atoms: C_1  and  C_8
REMARK    3  A    between atoms: C_1  and  N_29
REMARK    4  A    between atoms: C_13  and  C_31
REMARK    5  A    between atoms: C_14  and  C_15
REMARK    6  A    between atoms: C_21  and  O_22
REMARK    7  A    between atoms: O_22  and  C_23
REMARK    8  A    between atoms: C_23  and  C_24
REMARK    9  A    between atoms: N_29  and  C_36
REMARK   10  A    between atoms: C_34  and  N_35
REMARK                            x       y       z     vdW  Elec       q    Type
REMARK                         _______ _______ _______ _____ _____    ______ ____
ROOT
ATOM      1  C   UNL A   1     -24.402   1.294  27.139  0.00  0.00    +0.027 C 
ATOM      2  C   UNL A   1     -21.880   0.952  28.481  0.00  0.00    +0.002 C 
ATOM      3  C   UNL A   1     -24.310   0.475  28.341  0.00  0.00    +0.057 C 
ATOM      4 CL   UNL A   1     -22.976   2.422  24.971  0.00  0.00    -0.082 Cl
ATOM      5  C   UNL A   1     -23.040   0.343  28.935  0.00  0.00    +0.015 C 
ATOM      6  C   UNL A   1     -23.141   1.823  26.592  0.00  0.00    +0.059 C 
ATOM      7  C   UNL A   1     -21.986   1.745  27.334  0.00  0.00    +0.011 C 
ENDROOT
BRANCH   1   8
ATOM      8  C   UNL A   1     -25.688   1.614  26.461  0.00  0.00    +0.040 C 
ATOM      9  C   UNL A   1     -26.250   2.920  26.395  0.00  0.00    +0.077 C 
ATOM     10  C   UNL A   1     -27.438   3.091  25.645  0.00  0.00    +0.107 C 
ATOM     11  N   UNL A   1     -28.075   2.089  25.003  0.00  0.00    -0.208 NA
ATOM     12  C   UNL A   1     -27.543   0.849  25.079  0.00  0.00    +0.253 C 
ATOM     13  C   UNL A   1     -26.354   0.576  25.777  0.00  0.00    +0.193 C 
ATOM     14  F   UNL A   1     -25.860  -0.681  25.795  0.00  0.00    -0.199 F 
BRANCH   9  15
ATOM     15  C   UNL A   1     -25.642   4.093  27.123  0.00  0.00    +0.266 C 
ATOM     16  N   UNL A   1     -25.614   5.252  26.449  0.00  0.00    -0.200 NA
ATOM     17  C   UNL A   1     -25.026   6.479  26.963  0.00  0.00    +0.139 C 
ATOM     18  O   UNL A   1     -25.143   3.966  28.243  0.00  0.00    -0.268 OA
ENDBRANCH   9  15
BRANCH  12  19
ATOM     19  O   UNL A   1     -28.193  -0.208  24.477  0.00  0.00    -0.456 OA
BRANCH  19  20
ATOM     20  C   UNL A   1     -29.460   0.005  23.866  0.00  0.00    +0.243 C 
BRANCH  20  21
ATOM     21  C   UNL A   1     -30.065  -1.377  23.573  0.00  0.00    +0.229 C 
ATOM     22  O   UNL A   1     -30.729  -1.878  24.721  0.00  0.00    -0.216 OA
ENDBRANCH  20  21
ENDBRANCH  19  20
ENDBRANCH  12  19
ENDBRANCH   1   8
BRANCH   3  23
ATOM     23  N   UNL A   1     -25.353  -0.167  29.050  0.00  0.00    -0.238 N 
ATOM     24  C   UNL A   1     -26.857   0.082  28.916  0.00  0.00    +0.327 C 
ATOM     25  N   UNL A   1     -27.375   1.387  29.399  0.00  0.00    -0.187 NA
ATOM     26  O   UNL A   1     -27.571  -0.780  28.507  0.00  0.00    -0.250 OA
BRANCH  25  29
ATOM     27  C   UNL A   1     -28.540   2.172  31.358  0.00  0.00    +0.164 C 
ATOM     28  O   UNL A   1     -28.275   3.566  31.034  0.00  0.00    -0.352 OA
ATOM     29  C   UNL A   1     -28.695   1.452  30.058  0.00  0.00    +0.129 C 
ATOM     30  C   UNL A   1     -29.505   2.532  29.359  0.00  0.00    +0.056 C 
ATOM     31  C   UNL A   1     -28.639   3.762  29.654  0.00  0.00    +0.144 C 
ENDBRANCH  25  29
BRANCH  23  32
ATOM     32  C   UNL A   1     -24.855  -1.012  30.143  0.00  0.00    +0.120 C 
BRANCH  32  33
ATOM     33  C   UNL A   1     -24.973  -2.505  29.788  0.00  0.00    -0.003 C 
ATOM     34  C   UNL A   1     -23.906  -3.173  29.146  0.00  0.00    -0.003 C 
ATOM     35  C   UNL A   1     -23.989  -4.549  28.853  0.00  0.00    -0.000 C 
ATOM     36  C   UNL A   1     -25.137  -5.280  29.205  0.00  0.00    -0.000 C 
ATOM     37  C   UNL A   1     -26.232  -4.611  29.784  0.00  0.00    -0.000 C 
ATOM     38  C   UNL A   1     -26.155  -3.232  30.065  0.00  0.00    -0.003 C 
ENDBRANCH  32  33
BRANCH  32  39
ATOM     39  C   UNL A   1     -25.387  -0.679  31.571  0.00  0.00    +0.096 C 
ATOM     40  C   UNL A   1     -25.189   0.773  32.028  0.00  0.00    +0.021 C 
ATOM     41  C   UNL A   1     -25.336   0.684  33.544  0.00  0.00    +0.020 C 
ATOM     42  C   UNL A   1     -24.829  -0.715  33.905  0.00  0.00    +0.089 C 
ATOM     43  N   UNL A   1     -24.758  -1.481  32.646  0.00  0.00    -0.217 NA
ENDBRANCH  32  39
ENDBRANCH  23  32
ENDBRANCH   3  23
TORSDOF 10
