MODEL 1077
MODEL 1
REMARK VINA RESULT:    -5.024      0.000      0.000
REMARK INTER + INTRA:          -5.352
REMARK INTER:                  -5.318
REMARK INTRA:                  -0.034
REMARK UNBOUND:                -0.034
REMARK  Name = No_1077-gen_results/8p0m/2024-11-27-11-27-31/
REMARK  1 active torsions:
REMARK  status: ('A' for Active; 'I' for Inactive)
REMARK    1  A    between atoms: C_2  and  C_5
REMARK                            x       y       z     vdW  Elec       q    Type
REMARK                         _______ _______ _______ _____ _____    ______ ____
ROOT
ATOM      1  C   UNL A   1     -28.993 -10.371  32.774  0.00  0.00    +0.007 A 
ATOM      2  C   UNL A   1     -28.259 -11.115  32.636  0.00  0.00    +0.080 A 
ATOM      3  C   UNL A   1     -29.789 -10.104  31.577  0.00  0.00    +0.000 A 
ATOM      4  C   UNL A   1     -29.592 -10.787  30.402  0.00  0.00    +0.000 A 
ATOM      5  C   UNL A   1     -28.590 -11.775  30.387  0.00  0.00    +0.000 A 
ATOM      6  C   UNL A   1     -27.883 -12.036  31.563  0.00  0.00    +0.007 A 
ENDROOT
BRANCH   2   7
ATOM      7  C   UNL A   1     -27.391 -11.491  33.874  0.00  0.00    +0.388 C 
ATOM      8  O   UNL A   1     -26.948 -10.703  34.709  0.00  0.00    -0.241 OA
ATOM      9  O   UNL A   1     -26.750 -12.725  33.877  0.00  0.00    -0.241 OA
ENDBRANCH   2   7
TORSDOF 1
ENDMDL
ENDMDL
