REMARK  Name = outputs/IAG933/test6/raw/output_1078_IAG933_linker_design_.xyz
REMARK  12 active torsions:
REMARK  status: ('A' for Active; 'I' for Inactive)
REMARK    1  A    between atoms: C_1  and  C_2
REMARK    2  A    between atoms: C_1  and  C_8
REMARK    3  A    between atoms: C_1  and  C_43
REMARK    4  A    between atoms: C_13  and  C_42
REMARK    5  A    between atoms: C_14  and  C_15
REMARK    6  A    between atoms: C_21  and  O_22
REMARK    7  A    between atoms: O_22  and  C_23
REMARK    8  A    between atoms: C_23  and  C_24
REMARK    9  A    between atoms: N_29  and  C_32
REMARK   10  A    between atoms: C_31  and  C_43
REMARK   11  A    between atoms: C_32  and  C_35
REMARK   12  A    between atoms: C_33  and  C_43
REMARK                            x       y       z     vdW  Elec       q    Type
REMARK                         _______ _______ _______ _____ _____    ______ ____
ROOT
ATOM      1  C   UNL A   1     -23.166   0.620  29.115  0.00  0.00    -0.004 C 
ATOM      2  C   UNL A   1     -22.033   1.221  28.506  0.00  0.00    +0.001 C 
ATOM      3  C   UNL A   1     -24.425   0.691  28.484  0.00  0.00    -0.013 C 
ATOM      4  C   UNL A   1     -22.075   1.827  27.305  0.00  0.00    +0.011 C 
ATOM      5 CL   UNL A   1     -23.231   2.760  25.116  0.00  0.00    -0.082 Cl
ATOM      6  C   UNL A   1     -23.310   1.919  26.645  0.00  0.00    +0.057 C 
ATOM      7  C   UNL A   1     -24.458   1.399  27.235  0.00  0.00    +0.010 C 
ENDROOT
BRANCH   7   8
ATOM      8  C   UNL A   1     -25.688   1.614  26.461  0.00  0.00    +0.039 C 
ATOM      9  C   UNL A   1     -26.250   2.920  26.395  0.00  0.00    +0.077 C 
ATOM     10  C   UNL A   1     -27.438   3.091  25.645  0.00  0.00    +0.107 C 
ATOM     11  N   UNL A   1     -28.075   2.089  25.003  0.00  0.00    -0.208 NA
ATOM     12  C   UNL A   1     -27.543   0.849  25.079  0.00  0.00    +0.253 C 
ATOM     13  C   UNL A   1     -26.354   0.576  25.777  0.00  0.00    +0.193 C 
ATOM     14  F   UNL A   1     -25.860  -0.681  25.795  0.00  0.00    -0.199 F 
BRANCH   9  15
ATOM     15  C   UNL A   1     -25.642   4.093  27.123  0.00  0.00    +0.266 C 
ATOM     16  N   UNL A   1     -25.614   5.252  26.449  0.00  0.00    -0.200 NA
ATOM     17  C   UNL A   1     -25.026   6.479  26.963  0.00  0.00    +0.139 C 
ATOM     18  O   UNL A   1     -25.143   3.966  28.243  0.00  0.00    -0.268 OA
ENDBRANCH   9  15
BRANCH  12  19
ATOM     19  O   UNL A   1     -28.193  -0.208  24.477  0.00  0.00    -0.456 OA
BRANCH  19  20
ATOM     20  C   UNL A   1     -29.460   0.005  23.866  0.00  0.00    +0.243 C 
BRANCH  20  21
ATOM     21  C   UNL A   1     -30.065  -1.377  23.573  0.00  0.00    +0.229 C 
ATOM     22  O   UNL A   1     -30.729  -1.878  24.721  0.00  0.00    -0.216 OA
ENDBRANCH  20  21
ENDBRANCH  19  20
ENDBRANCH  12  19
ENDBRANCH   7   8
BRANCH   3  23
ATOM     23  C   UNL A   1     -25.445   0.020  29.188  0.00  0.00    +0.106 C 
BRANCH  23  25
ATOM     24  N   UNL A   1     -27.499   1.671  29.417  0.00  0.00    -0.197 NA
ATOM     25  C   UNL A   1     -26.926   0.426  29.126  0.00  0.00    +0.246 C 
ATOM     26  O   UNL A   1     -27.689  -0.422  28.764  0.00  0.00    -0.273 OA
BRANCH  24  27
ATOM     27  C   UNL A   1     -28.786   2.107  29.971  0.00  0.00    +0.174 C 
ATOM     28  C   UNL A   1     -28.286   2.988  31.101  0.00  0.00    +0.033 C 
BRANCH  27  29
ATOM     29  C   UNL A   1     -29.690   3.036  29.133  0.00  0.00    +0.281 C 
ATOM     30  N   UNL A   1     -30.341   2.519  28.152  0.00  0.00    -0.086 NA
ATOM     31  O   UNL A   1     -29.774   4.258  29.352  0.00  0.00    -0.270 OA
ENDBRANCH  27  29
ENDBRANCH  24  27
ENDBRANCH  23  25
BRANCH  23  32
ATOM     32  C   UNL A   1     -24.855  -1.012  30.143  0.00  0.00    +0.051 C 
BRANCH  32  33
ATOM     33  C   UNL A   1     -24.973  -2.505  29.788  0.00  0.00    -0.020 C 
ATOM     34  C   UNL A   1     -23.906  -3.173  29.146  0.00  0.00    -0.004 C 
ATOM     35  C   UNL A   1     -23.989  -4.549  28.853  0.00  0.00    -0.000 C 
ATOM     36  C   UNL A   1     -25.137  -5.280  29.205  0.00  0.00    -0.000 C 
ATOM     37  C   UNL A   1     -26.232  -4.611  29.784  0.00  0.00    -0.000 C 
ATOM     38  C   UNL A   1     -26.155  -3.232  30.065  0.00  0.00    -0.004 C 
ENDBRANCH  32  33
BRANCH  32  39
ATOM     39  C   UNL A   1     -25.387  -0.679  31.571  0.00  0.00    +0.078 C 
ATOM     40  C   UNL A   1     -25.189   0.773  32.028  0.00  0.00    +0.019 C 
ATOM     41  C   UNL A   1     -25.336   0.684  33.544  0.00  0.00    +0.020 C 
ATOM     42  C   UNL A   1     -24.829  -0.715  33.905  0.00  0.00    +0.089 C 
ATOM     43  N   UNL A   1     -24.758  -1.481  32.646  0.00  0.00    -0.219 NA
ENDBRANCH  32  39
ENDBRANCH  23  32
ENDBRANCH   3  23
TORSDOF 12
