MODEL 1079
MODEL 1
REMARK VINA RESULT:    -7.631      0.000      0.000
REMARK INTER + INTRA:         -14.624
REMARK INTER:                 -11.646
REMARK INTRA:                  -2.977
REMARK UNBOUND:                -2.977
REMARK  Name = No_1079-gen_results/8p0m/2024-11-27-11-27-31/
REMARK  9 active torsions:
REMARK  status: ('A' for Active; 'I' for Inactive)
REMARK    1  A    between atoms: C_2  and  C_29
REMARK    2  A    between atoms: C_3  and  C_4
REMARK    3  A    between atoms: C_4  and  C_13
REMARK    4  A    between atoms: C_5  and  C_6
REMARK    5  A    between atoms: C_5  and  C_15
REMARK    6  A    between atoms: C_7  and  C_9
REMARK    7  A    between atoms: C_10  and  C_21
REMARK    8  A    between atoms: C_12  and  C_20
REMARK    9  A    between atoms: C_17  and  C_24
REMARK                            x       y       z     vdW  Elec       q    Type
REMARK                         _______ _______ _______ _____ _____    ______ ____
ROOT
ATOM      1  C   UNL A   1     -10.406   0.975  35.680  0.00  0.00    +0.004 C 
ATOM      2  C   UNL A   1      -9.515   0.955  35.083  0.00  0.00    +0.072 C 
ENDROOT
BRANCH   1   5
ATOM      3  C   UNL A   1     -10.310   1.539  38.176  0.00  0.00    +0.007 A 
ATOM      4  C   UNL A   1     -10.654   1.221  39.120  0.00  0.00    +0.080 A 
ATOM      5  C   UNL A   1     -10.631   0.604  37.091  0.00  0.00    +0.000 A 
ATOM      6  C   UNL A   1     -11.124  -0.033  39.637  0.00  0.00    +0.013 A 
ATOM      7  C   UNL A   1     -11.352  -0.943  38.681  0.00  0.00    +0.080 A 
ATOM      8  C   UNL A   1     -11.114  -0.653  37.382  0.00  0.00    +0.007 A 
BRANCH   7   9
ATOM      9  C   UNL A   1     -11.910  -2.320  39.032  0.00  0.00    +0.388 C 
ATOM     10  O   UNL A   1     -12.273  -3.114  38.369  0.00  0.00    -0.241 OA
ATOM     11  O   UNL A   1     -11.951  -2.411  40.351  0.00  0.00    -0.241 OA
ENDBRANCH   7   9
BRANCH   4  12
ATOM     12  C   UNL A   1     -10.425   2.243  40.381  0.00  0.00    +0.388 C 
ATOM     13  O   UNL A   1     -10.787   3.341  40.321  0.00  0.00    -0.241 OA
ATOM     14  O   UNL A   1      -9.865   1.799  41.499  0.00  0.00    -0.241 OA
ENDBRANCH   4  12
ENDBRANCH   1   5
BRANCH   1  15
ATOM     15  C   UNL A   1     -11.752   1.388  35.091  0.00  0.00    -0.000 A 
ATOM     16  C   UNL A   1     -12.521   2.262  35.918  0.00  0.00    +0.004 A 
ATOM     17  C   UNL A   1     -12.051   1.299  33.763  0.00  0.00    -0.000 A 
ATOM     18  C   UNL A   1     -13.748   2.687  35.433  0.00  0.00    +0.071 A 
ATOM     19  C   UNL A   1     -13.167   1.798  33.209  0.00  0.00    -0.000 A 
ATOM     20  C   UNL A   1     -14.086   2.455  34.058  0.00  0.00    +0.004 A 
BRANCH  18  21
ATOM     21  C   UNL A   1     -14.719   3.361  36.270  0.00  0.00    +0.419 C 
ATOM     22  F   UNL A   1     -15.141   2.803  37.189  0.00  0.00    -0.166 F 
ATOM     23  F   UNL A   1     -14.155   4.538  36.769  0.00  0.00    -0.166 F 
ATOM     24  F   UNL A   1     -15.811   3.785  35.572  0.00  0.00    -0.166 F 
ENDBRANCH  18  21
ENDBRANCH   1  15
BRANCH   2  25
ATOM     25  C   UNL A   1      -8.786   2.440  35.150  0.00  0.00    +0.419 C 
ATOM     26  F   UNL A   1      -7.919   2.445  35.987  0.00  0.00    -0.166 F 
ATOM     27  F   UNL A   1      -8.221   2.721  33.936  0.00  0.00    -0.166 F 
ATOM     28  F   UNL A   1      -9.693   3.405  35.402  0.00  0.00    -0.166 F 
ENDBRANCH   2  25
BRANCH   2  29
ATOM     29  C   UNL A   1      -8.539   0.298  34.559  0.00  0.00    +0.013 C 
ATOM     30  C   UNL A   1      -7.707  -0.560  34.666  0.00  0.00    +0.049 C 
BRANCH  30  31
ATOM     31  C   UNL A   1      -6.859  -1.231  34.584  0.00  0.00    -0.062 C 
ATOM     32  C   UNL A   1      -5.610  -1.883  34.579  0.00  0.00    -0.065 C 
BRANCH  32  33
ATOM     33  C   UNL A   1      -4.347  -2.222  34.486  0.00  0.00    +0.185 C 
ATOM     34  N   UNL A   1      -3.438  -2.165  35.397  0.00  0.00    -0.116 NA
ENDBRANCH  32  33
ENDBRANCH  30  31
ENDBRANCH   2  29
TORSDOF 9
ENDMDL
ENDMDL
