REMARK  Name = No_108-gen_results/8p0m/2024-11-27-11-27-31/
REMARK  3 active torsions:
REMARK  status: ('A' for Active; 'I' for Inactive)
REMARK    1  A    between atoms: C_8  and  C_12
REMARK    2  A    between atoms: C_12  and  C_13
REMARK    3  A    between atoms: C_12  and  C_14
REMARK                            x       y       z     vdW  Elec       q    Type
REMARK                         _______ _______ _______ _____ _____    ______ ____
ROOT
ATOM      1  C   UNL A   1     -28.016  -0.814  28.878  0.00  0.00    +0.011 A 
ATOM      2  C   UNL A   1     -27.064  -0.119  28.608  0.00  0.00    -0.003 A 
ATOM      3  C   UNL A   1     -25.792  -0.430  29.076  0.00  0.00    -0.000 A 
ATOM      4  C   UNL A   1     -25.576  -1.565  29.936  0.00  0.00    +0.001 A 
ATOM      5  C   UNL A   1     -26.735  -2.300  30.217  0.00  0.00    +0.011 A 
ATOM      6  C   UNL A   1     -27.918  -1.954  29.763  0.00  0.00    +0.058 A 
ATOM      7 CL   UNL A   1     -29.268  -2.889  30.215  0.00  0.00    -0.082 Cl
ATOM      8  C   UNL A   1     -27.107   1.110  27.759  0.00  0.00    -0.018 A 
ATOM      9  C   UNL A   1     -26.240   1.331  26.831  0.00  0.00    -0.004 A 
ATOM     10  C   UNL A   1     -25.105   0.483  26.700  0.00  0.00    -0.000 A 
ATOM     11  C   UNL A   1     -24.723  -0.310  27.875  0.00  0.00    -0.000 A 
ENDROOT
BRANCH   8  12
ATOM     12  C   UNL A   1     -28.398   1.836  27.700  0.00  0.00    +0.044 C 
BRANCH  12  13
ATOM     13  C   UNL A   1     -28.881   2.220  28.811  0.00  0.00    -0.027 C 
ATOM     14  C   UNL A   1     -30.256   2.514  29.038  0.00  0.00    -0.030 C 
ATOM     15  C   UNL A   1     -30.718   2.937  30.251  0.00  0.00    +0.030 C 
ENDBRANCH  12  13
BRANCH  12  16
ATOM     16  C   UNL A   1     -29.029   1.982  26.462  0.00  0.00    +0.009 C 
ATOM     17  C   UNL A   1     -28.682   1.378  25.352  0.00  0.00    +0.001 C 
ENDBRANCH  12  16
ENDBRANCH   8  12
TORSDOF 3
