MODEL 1080
MODEL 1
REMARK VINA RESULT:    -6.730      0.000      0.000
REMARK INTER + INTRA:          -8.371
REMARK INTER:                  -7.910
REMARK INTRA:                  -0.461
REMARK UNBOUND:                -0.461
REMARK  Name = No_1080-gen_results/8p0m/2024-11-27-11-27-31/
REMARK  3 active torsions:
REMARK  status: ('A' for Active; 'I' for Inactive)
REMARK    1  A    between atoms: C_3  and  C_4
REMARK    2  A    between atoms: C_6  and  O_14
REMARK    3  A    between atoms: O_14  and  C_15
REMARK                            x       y       z     vdW  Elec       q    Type
REMARK                         _______ _______ _______ _____ _____    ______ ____
ROOT
ATOM      1  C   UNL A   1     -29.971  -9.958  31.974  0.00  0.00    +0.037 A 
ATOM      2  C   UNL A   1     -30.128 -10.128  30.788  0.00  0.00    +0.003 A 
ATOM      3  C   UNL A   1     -29.386 -10.984  30.040  0.00  0.00    +0.000 A 
ATOM      4  C   UNL A   1     -29.014 -10.763  32.731  0.00  0.00    +0.145 A 
ATOM      5  C   UNL A   1     -28.234 -11.600  32.051  0.00  0.00    +0.037 A 
ATOM      6  C   UNL A   1     -28.397 -11.813  30.645  0.00  0.00    +0.003 A 
ENDROOT
BRANCH   3   7
ATOM      7  C   UNL A   1     -29.566 -11.206  28.587  0.00  0.00    +0.003 A 
ATOM      8  C   UNL A   1     -30.450 -10.514  27.779  0.00  0.00    +0.000 A 
ATOM      9  C   UNL A   1     -30.621 -10.866  26.446  0.00  0.00    +0.003 A 
ATOM     10  C   UNL A   1     -30.018 -12.089  26.014  0.00  0.00    +0.042 A 
ATOM     11  C   UNL A   1     -29.078 -12.408  27.952  0.00  0.00    +0.042 A 
ATOM     12  C   UNL A   1     -29.280 -12.827  26.748  0.00  0.00    +0.196 A 
ATOM     13  O   UNL A   1     -28.738 -13.948  26.243  0.00  0.00    -0.287 OA
ENDBRANCH   3   7
BRANCH   4  14
ATOM     14  O   UNL A   1     -28.955 -10.558  34.050  0.00  0.00    -0.449 OA
BRANCH  14  15
ATOM     15  C   UNL A   1     -28.411  -9.481  34.624  0.00  0.00    +0.203 A 
ATOM     16  C   UNL A   1     -27.236  -9.470  35.012  0.00  0.00    +0.233 A 
ATOM     17  C   UNL A   1     -29.335  -8.351  34.824  0.00  0.00    +0.140 A 
ATOM     18  O   UNL A   1     -26.383 -10.424  34.878  0.00  0.00    -0.283 OA
ATOM     19  N   UNL A   1     -28.942  -7.366  35.574  0.00  0.00    -0.239 NA
ATOM     20  C   UNL A   1     -27.625  -7.178  35.972  0.00  0.00    +0.102 A 
ATOM     21  C   UNL A   1     -26.733  -8.203  35.768  0.00  0.00    +0.066 A 
ENDBRANCH  14  15
ENDBRANCH   4  14
TORSDOF 3
ENDMDL
ENDMDL
