REMARK  Name = No_1080-gen_results/8p0m/2024-11-27-11-27-31/
REMARK  3 active torsions:
REMARK  status: ('A' for Active; 'I' for Inactive)
REMARK    1  A    between atoms: C_3  and  C_4
REMARK    2  A    between atoms: C_6  and  O_14
REMARK    3  A    between atoms: O_14  and  C_15
REMARK                            x       y       z     vdW  Elec       q    Type
REMARK                         _______ _______ _______ _____ _____    ______ ____
ROOT
ATOM      1  C   UNL A   1     -28.016  -0.814  28.878  0.00  0.00    +0.037 A 
ATOM      2  C   UNL A   1     -27.064  -0.119  28.608  0.00  0.00    +0.003 A 
ATOM      3  C   UNL A   1     -26.929   1.171  29.008  0.00  0.00    +0.000 A 
ATOM      4  C   UNL A   1     -29.071  -0.334  29.769  0.00  0.00    +0.145 A 
ATOM      5  C   UNL A   1     -29.013   0.933  30.172  0.00  0.00    +0.037 A 
ATOM      6  C   UNL A   1     -27.899   1.776  29.859  0.00  0.00    +0.003 A 
ENDROOT
BRANCH   3   7
ATOM      7  C   UNL A   1     -25.770   2.034  28.688  0.00  0.00    +0.003 A 
ATOM      8  C   UNL A   1     -25.619   3.348  29.092  0.00  0.00    +0.000 A 
ATOM      9  C   UNL A   1     -24.542   4.109  28.653  0.00  0.00    +0.003 A 
ATOM     10  C   UNL A   1     -23.733   3.552  27.613  0.00  0.00    +0.042 A 
ATOM     11  C   UNL A   1     -24.851   1.683  27.630  0.00  0.00    +0.042 A 
ATOM     12  C   UNL A   1     -23.892   2.384  27.124  0.00  0.00    +0.196 A 
ATOM     13  O   UNL A   1     -23.064   1.940  26.164  0.00  0.00    -0.287 OA
ENDBRANCH   3   7
BRANCH   4  14
ATOM     14  O   UNL A   1     -30.050  -1.192  30.070  0.00  0.00    -0.449 OA
BRANCH  14  15
ATOM     15  C   UNL A   1     -29.865  -2.368  30.676  0.00  0.00    +0.203 A 
ATOM     16  C   UNL A   1     -28.795  -2.659  31.226  0.00  0.00    +0.233 A 
ATOM     17  C   UNL A   1     -30.996  -3.305  30.570  0.00  0.00    +0.140 A 
ATOM     18  O   UNL A   1     -27.768  -1.892  31.343  0.00  0.00    -0.283 OA
ATOM     19  N   UNL A   1     -30.804  -4.538  30.934  0.00  0.00    -0.239 NA
ATOM     20  C   UNL A   1     -29.702  -4.963  31.663  0.00  0.00    +0.102 A 
ATOM     21  C   UNL A   1     -28.645  -4.098  31.806  0.00  0.00    +0.066 A 
ENDBRANCH  14  15
ENDBRANCH   4  14
TORSDOF 3
