MODEL 1081
MODEL 1
REMARK VINA RESULT:    -4.885      0.000      0.000
REMARK INTER + INTRA:          -8.666
REMARK INTER:                  -7.456
REMARK INTRA:                  -1.211
REMARK UNBOUND:                -1.211
REMARK  Name = No_1081-gen_results/8p0m/2024-11-27-11-27-31/
REMARK  9 active torsions:
REMARK  status: ('A' for Active; 'I' for Inactive)
REMARK    1  A    between atoms: C_1  and  C_2
REMARK    2  A    between atoms: C_1  and  C_4
REMARK    3  A    between atoms: C_2  and  N_3
REMARK    4  A    between atoms: N_3  and  C_8
REMARK    5  A    between atoms: C_8  and  N_10
REMARK    6  A    between atoms: C_9  and  N_12
REMARK    7  A    between atoms: N_10  and  C_11
REMARK    8  A    between atoms: C_13  and  C_15
REMARK    9  A    between atoms: C_16  and  C_17
REMARK                            x       y       z     vdW  Elec       q    Type
REMARK                         _______ _______ _______ _____ _____    ______ ____
ROOT
ATOM      1  C   UNL A   1      -5.833  -0.940   9.170  0.00  0.00    +0.368 C 
ATOM      2  C   UNL A   1      -6.177   0.059   8.157  0.00  0.00    +0.189 C 
ENDROOT
BRANCH   2   3
ATOM      3  N   UNL A   1      -7.450   0.440   7.947  0.00  0.00    -0.235 NA
ATOM      4  C   UNL A   1      -7.909   1.562   8.396  0.00  0.00    +0.099 C 
BRANCH   4   5
ATOM      5  C   UNL A   1      -8.634   2.264   7.927  0.00  0.00    +0.021 C 
ATOM      6  C   UNL A   1      -9.918   2.769   8.513  0.00  0.00    +0.002 C 
BRANCH   6   7
ATOM      7  C   UNL A   1     -10.258   2.305   9.793  0.00  0.00    +0.000 C 
ATOM      8  C   UNL A   1     -10.243   3.200  10.823  0.00  0.00    +0.000 C 
ENDBRANCH   6   7
ENDBRANCH   4   5
ENDBRANCH   2   3
BRANCH   1   9
ATOM      9  N   UNL A   1      -6.987  -1.498   9.928  0.00  0.00    -0.032 NA
BRANCH   9  10
ATOM     10  C   UNL A   1      -7.155  -1.060  11.141  0.00  0.00    +0.257 C 
BRANCH  10  11
ATOM     11  C   UNL A   1      -7.950  -0.202  11.447  0.00  0.00    +0.122 C 
BRANCH  11  12
ATOM     12  C   UNL A   1      -7.251   0.864  12.214  0.00  0.00    +0.268 C 
ATOM     13  F   UNL A   1      -8.008   1.135  13.180  0.00  0.00    -0.204 F 
ATOM     14  C   UNL A   1      -5.882   0.533  12.735  0.00  0.00    +0.072 C 
ATOM     15  F   UNL A   1      -7.250   2.000  11.463  0.00  0.00    -0.204 F 
ENDBRANCH  11  12
ENDBRANCH  10  11
ENDBRANCH   9  10
ENDBRANCH   1   9
BRANCH   1  16
ATOM     16  N   UNL A   1      -4.595  -1.278   9.294  0.00  0.00    -0.010 NA
BRANCH  16  17
ATOM     17  C   UNL A   1      -3.744  -1.542   8.247  0.00  0.00    +0.361 C 
ATOM     18  N   UNL A   1      -3.312  -2.618   7.996  0.00  0.00    -0.074 NA
ENDBRANCH  16  17
ENDBRANCH   1  16
TORSDOF 9
ENDMDL
ENDMDL
