MODEL 1082
MODEL 1
REMARK VINA RESULT:    -4.899      0.000      0.000
REMARK INTER + INTRA:          -5.707
REMARK INTER:                  -5.472
REMARK INTRA:                  -0.235
REMARK UNBOUND:                -0.235
REMARK  Name = No_1082-gen_results/8p0m/2024-11-27-11-27-31/
REMARK  2 active torsions:
REMARK  status: ('A' for Active; 'I' for Inactive)
REMARK    1  A    between atoms: C_2  and  C_7
REMARK    2  A    between atoms: C_7  and  C_8
REMARK                            x       y       z     vdW  Elec       q    Type
REMARK                         _______ _______ _______ _____ _____    ______ ____
ROOT
ATOM      1  C   UNL A   1     -25.771  -2.924  29.589  0.00  0.00    -0.004 A 
ATOM      2  C   UNL A   1     -24.725  -2.696  29.026  0.00  0.00    -0.018 A 
ATOM      3  C   UNL A   1     -23.893  -3.658  28.552  0.00  0.00    -0.004 A 
ATOM      4  C   UNL A   1     -24.264  -5.005  28.723  0.00  0.00    -0.000 A 
ATOM      5  C   UNL A   1     -26.257  -4.274  29.714  0.00  0.00    -0.000 A 
ATOM      6  C   UNL A   1     -25.446  -5.279  29.280  0.00  0.00    -0.000 A 
ENDROOT
BRANCH   2   7
ATOM      7  C   UNL A   1     -24.225  -1.282  28.762  0.00  0.00    +0.052 C 
BRANCH   7   8
ATOM      8  C   UNL A   1     -22.823  -1.004  29.062  0.00  0.00    -0.021 C 
ATOM      9  C   UNL A   1     -22.568  -0.522  30.336  0.00  0.00    -0.005 C 
ENDBRANCH   7   8
ENDBRANCH   2   7
TORSDOF 2
ENDMDL
ENDMDL
