MODEL 1083
MODEL 1
REMARK VINA RESULT:    -5.259      0.000      0.000
REMARK INTER + INTRA:          -5.697
REMARK INTER:                  -5.566
REMARK INTRA:                  -0.131
REMARK UNBOUND:                -0.131
REMARK  Name = No_1083-gen_results/8p0m/2024-11-27-11-27-31/
REMARK  1 active torsions:
REMARK  status: ('A' for Active; 'I' for Inactive)
REMARK    1  A    between atoms: C_5  and  N_7
REMARK                            x       y       z     vdW  Elec       q    Type
REMARK                         _______ _______ _______ _____ _____    ______ ____
ROOT
ATOM      1  C   UNL A   1     -25.145  -5.143  29.184  0.00  0.00    +0.002 A 
ATOM      2  C   UNL A   1     -26.152  -4.633  29.619  0.00  0.00    +0.000 A 
ATOM      3  C   UNL A   1     -26.258  -3.290  29.922  0.00  0.00    +0.002 A 
ATOM      4  C   UNL A   1     -25.132  -2.458  29.671  0.00  0.00    +0.019 A 
ATOM      5  C   UNL A   1     -24.093  -3.040  29.027  0.00  0.00    +0.081 A 
ATOM      6  C   UNL A   1     -24.094  -4.328  28.738  0.00  0.00    +0.019 A 
ENDROOT
BRANCH   5   7
ATOM      7  N   UNL A   1     -23.082  -2.042  28.859  0.00  0.00    -0.248 NA
ATOM      8  C   UNL A   1     -22.820  -1.204  29.341  0.00  0.00    +0.073 C 
ATOM      9  C   UNL A   1     -21.770  -0.228  28.859  0.00  0.00    +0.053 C 
ENDBRANCH   5   7
TORSDOF 1
ENDMDL
ENDMDL
