REMARK  Name = outputs/IAG933/test6/raw/output_1084_IAG933_linker_design_.xyz
REMARK  9 active torsions:
REMARK  status: ('A' for Active; 'I' for Inactive)
REMARK    1  A    between atoms: C_1  and  C_2
REMARK    2  A    between atoms: C_1  and  C_8
REMARK    3  A    between atoms: C_1  and  N_37
REMARK    4  A    between atoms: C_13  and  N_29
REMARK    5  A    between atoms: C_14  and  C_15
REMARK    6  A    between atoms: C_21  and  O_22
REMARK    7  A    between atoms: O_22  and  C_23
REMARK    8  A    between atoms: C_23  and  C_24
REMARK    9  A    between atoms: C_28  and  C_35
REMARK                            x       y       z     vdW  Elec       q    Type
REMARK                         _______ _______ _______ _____ _____    ______ ____
ROOT
ATOM      1  C   UNL A   1     -23.388   1.708  26.960  0.00  0.00    +0.154 C 
ATOM      2  N   UNL A   1     -24.777   1.373  27.343  0.00  0.00    -0.238 N 
ATOM      3  C   UNL A   1     -23.181   0.263  29.052  0.00  0.00    +0.257 C 
ATOM      4  C   UNL A   1     -21.033   1.347  27.873  0.00  0.00    +0.170 C 
ATOM      5  C   UNL A   1     -22.336   1.034  27.517  0.00  0.00    +0.121 C 
ATOM      6  N   UNL A   1     -22.312  -0.696  29.275  0.00  0.00    -0.176 NA
ATOM      7  C   UNL A   1     -20.059   0.388  28.669  0.00  0.00    +0.054 C 
ATOM      8  C   UNL A   1     -25.380   0.629  28.519  0.00  0.00    +0.314 C 
ATOM      9  N   UNL A   1     -24.544  -0.086  29.113  0.00  0.00    -0.226 N 
ATOM     10  O   UNL A   1     -22.993   1.308  29.924  0.00  0.00    -0.186 OA
ATOM     11  O   UNL A   1     -26.591   0.820  28.852  0.00  0.00    -0.252 OA
ATOM     12  C   UNL A   1     -21.033  -0.806  28.960  0.00  0.00    +0.096 C 
ATOM     13  F   UNL A   1     -20.437   2.466  27.553  0.00  0.00    -0.237 F 
ENDROOT
BRANCH   2  14
ATOM     14  C   UNL A   1     -25.688   1.614  26.461  0.00  0.00    +0.077 C 
ATOM     15  C   UNL A   1     -26.250   2.920  26.395  0.00  0.00    +0.070 C 
ATOM     16  C   UNL A   1     -27.438   3.091  25.645  0.00  0.00    +0.160 C 
ATOM     17  N   UNL A   1     -28.075   2.089  25.003  0.00  0.00    -0.234 NA
ATOM     18  C   UNL A   1     -27.543   0.849  25.079  0.00  0.00    +0.235 C 
ATOM     19  C   UNL A   1     -26.354   0.576  25.777  0.00  0.00    +0.271 C 
ATOM     20  F   UNL A   1     -25.860  -0.681  25.795  0.00  0.00    -0.221 F 
BRANCH  15  21
ATOM     21  C   UNL A   1     -25.642   4.093  27.123  0.00  0.00    +0.264 C 
ATOM     22  N   UNL A   1     -25.614   5.252  26.449  0.00  0.00    -0.200 NA
ATOM     23  C   UNL A   1     -25.026   6.479  26.963  0.00  0.00    +0.139 C 
ATOM     24  O   UNL A   1     -25.143   3.966  28.243  0.00  0.00    -0.269 OA
ENDBRANCH  15  21
BRANCH  18  25
ATOM     25  O   UNL A   1     -28.193  -0.208  24.477  0.00  0.00    -0.459 OA
BRANCH  25  26
ATOM     26  C   UNL A   1     -29.460   0.005  23.866  0.00  0.00    +0.242 C 
BRANCH  26  27
ATOM     27  C   UNL A   1     -30.065  -1.377  23.573  0.00  0.00    +0.229 C 
ATOM     28  O   UNL A   1     -30.729  -1.878  24.721  0.00  0.00    -0.216 OA
ENDBRANCH  26  27
ENDBRANCH  25  26
ENDBRANCH  18  25
ENDBRANCH   2  14
BRANCH   1  29
ATOM     29  C   UNL A   1     -23.207   2.319  25.576  0.00  0.00    +0.228 C 
ATOM     30  O   UNL A   1     -22.162   2.930  25.254  0.00  0.00    -0.286 OA
ENDBRANCH   1  29
BRANCH   9  31
ATOM     31  C   UNL A   1     -24.855  -1.012  30.143  0.00  0.00    +0.119 C 
BRANCH  31  32
ATOM     32  C   UNL A   1     -24.973  -2.505  29.788  0.00  0.00    -0.003 C 
ATOM     33  C   UNL A   1     -23.906  -3.173  29.146  0.00  0.00    -0.003 C 
ATOM     34  C   UNL A   1     -23.989  -4.549  28.853  0.00  0.00    -0.000 C 
ATOM     35  C   UNL A   1     -25.137  -5.280  29.205  0.00  0.00    -0.000 C 
ATOM     36  C   UNL A   1     -26.232  -4.611  29.784  0.00  0.00    -0.000 C 
ATOM     37  C   UNL A   1     -26.155  -3.232  30.065  0.00  0.00    -0.003 C 
ENDBRANCH  31  32
BRANCH  31  38
ATOM     38  C   UNL A   1     -25.387  -0.679  31.571  0.00  0.00    +0.095 C 
ATOM     39  C   UNL A   1     -25.189   0.773  32.028  0.00  0.00    +0.021 C 
ATOM     40  C   UNL A   1     -25.336   0.684  33.544  0.00  0.00    +0.020 C 
ATOM     41  C   UNL A   1     -24.829  -0.715  33.905  0.00  0.00    +0.089 C 
ATOM     42  N   UNL A   1     -24.758  -1.481  32.646  0.00  0.00    -0.217 NA
ENDBRANCH  31  38
ENDBRANCH   9  31
TORSDOF 9
