MODEL 1084
MODEL 1
REMARK VINA RESULT:    -6.666      0.000      0.000
REMARK INTER + INTRA:         -11.424
REMARK INTER:                 -10.173
REMARK INTRA:                  -1.251
REMARK UNBOUND:                -1.251
REMARK  Name = No_1084-gen_results/8p0m/2024-11-27-11-27-31/
REMARK  9 active torsions:
REMARK  status: ('A' for Active; 'I' for Inactive)
REMARK    1  A    between atoms: C_2  and  C_17
REMARK    2  A    between atoms: C_4  and  C_15
REMARK    3  A    between atoms: C_6  and  O_8
REMARK    4  A    between atoms: O_8  and  C_9
REMARK    5  A    between atoms: C_9  and  C_10
REMARK    6  A    between atoms: N_12  and  C_13
REMARK    7  A    between atoms: C_13  and  C_22
REMARK    8  A    between atoms: C_15  and  C_16
REMARK    9  A    between atoms: C_26  and  C_28
REMARK                            x       y       z     vdW  Elec       q    Type
REMARK                         _______ _______ _______ _____ _____    ______ ____
ROOT
ATOM      1  C   UNL A   1     -27.194 -17.326  24.040  0.00  0.00    +0.290 C 
ENDROOT
BRANCH   1   2
ATOM      2  C   UNL A   1     -25.802 -16.940  24.476  0.00  0.00    +0.271 C 
ATOM      3  O   UNL A   1     -25.520 -15.883  24.828  0.00  0.00    -0.271 OA
ATOM      4  N   UNL A   1     -24.850 -17.871  24.205  0.00  0.00    -0.271 N 
ATOM      5  C   UNL A   1     -23.461 -17.604  24.645  0.00  0.00    +0.115 C 
BRANCH   4   6
ATOM      6  C   UNL A   1     -25.068 -19.234  23.646  0.00  0.00    +0.120 C 
BRANCH   6   7
ATOM      7  C   UNL A   1     -25.235 -19.243  22.319  0.00  0.00    -0.002 A 
ATOM      8  C   UNL A   1     -24.277 -18.667  21.648  0.00  0.00    -0.003 A 
ATOM      9  C   UNL A   1     -24.431 -18.663  20.284  0.00  0.00    -0.000 A 
ATOM     10  C   UNL A   1     -25.483 -19.288  19.578  0.00  0.00    -0.000 A 
ATOM     11  C   UNL A   1     -26.442 -19.956  20.341  0.00  0.00    -0.004 A 
ATOM     12  C   UNL A   1     -26.297 -19.984  21.726  0.00  0.00    -0.003 A 
BRANCH  11  13
ATOM     13  C   UNL A   1     -27.564 -20.603  19.644  0.00  0.00    -0.026 C 
ATOM     14  C   UNL A   1     -28.645 -19.782  19.232  0.00  0.00    -0.030 C 
ATOM     15  C   UNL A   1     -27.217 -21.649  18.662  0.00  0.00    +0.031 C 
ATOM     16  C   UNL A   1     -29.184 -18.753  20.009  0.00  0.00    +0.030 C 
ENDBRANCH  11  13
ENDBRANCH   6   7
ENDBRANCH   4   6
ENDBRANCH   1   2
BRANCH   1  17
ATOM     17  O   UNL A   1     -27.465 -16.743  22.815  0.00  0.00    -0.466 OA
BRANCH  17  23
ATOM     18  C   UNL A   1     -29.155 -15.499  23.985  0.00  0.00    +0.046 A 
ATOM     19  C   UNL A   1     -29.935 -14.577  24.050  0.00  0.00    +0.110 A 
ATOM     20  C   UNL A   1     -30.266 -13.768  22.963  0.00  0.00    +0.143 A 
ATOM     21  C   UNL A   1     -29.606 -13.990  21.691  0.00  0.00    +0.020 A 
ATOM     22  C   UNL A   1     -28.700 -15.049  21.666  0.00  0.00    +0.035 A 
ATOM     23  C   UNL A   1     -28.438 -15.758  22.747  0.00  0.00    +0.139 A 
ATOM     24  F   UNL A   1     -31.099 -12.736  22.991  0.00  0.00    -0.204 F 
BRANCH  19  25
ATOM     25  C   UNL A   1     -30.770 -14.286  25.295  0.00  0.00    +0.390 C 
ATOM     26  O   UNL A   1     -31.762 -14.976  25.495  0.00  0.00    -0.240 OA
ATOM     27  O   UNL A   1     -30.403 -13.414  26.086  0.00  0.00    -0.240 OA
ENDBRANCH  19  25
BRANCH  21  28
ATOM     28  C   UNL A   1     -30.014 -13.211  20.521  0.00  0.00    +0.143 C 
BRANCH  28  29
ATOM     29  C   UNL A   1     -29.066 -12.083  20.172  0.00  0.00    +0.369 C 
ATOM     30  O   UNL A   1     -27.972 -12.367  19.834  0.00  0.00    -0.245 OA
ATOM     31  O   UNL A   1     -29.568 -10.889  20.247  0.00  0.00    -0.245 OA
ENDBRANCH  28  29
ENDBRANCH  21  28
ENDBRANCH  17  23
ENDBRANCH   1  17
TORSDOF 9
ENDMDL
ENDMDL
