REMARK  Name = outputs/IAG933/test6/raw/output_1085_IAG933_linker_design_.xyz
REMARK  13 active torsions:
REMARK  status: ('A' for Active; 'I' for Inactive)
REMARK    1  A    between atoms: C_1  and  C_2
REMARK    2  A    between atoms: C_1  and  C_8
REMARK    3  A    between atoms: C_1  and  C_33
REMARK    4  A    between atoms: C_13  and  C_36
REMARK    5  A    between atoms: C_14  and  C_15
REMARK    6  A    between atoms: C_21  and  O_22
REMARK    7  A    between atoms: O_22  and  C_23
REMARK    8  A    between atoms: C_23  and  C_24
REMARK    9  A    between atoms: C_30  and  C_38
REMARK   10  A    between atoms: N_31  and  C_42
REMARK   11  A    between atoms: C_33  and  C_35
REMARK   12  A    between atoms: C_33  and  C_39
REMARK   13  A    between atoms: C_39  and  C_42
REMARK                            x       y       z     vdW  Elec       q    Type
REMARK                         _______ _______ _______ _____ _____    ______ ____
ROOT
ATOM      1  C   UNL A   1     -23.139   1.471  27.255  0.00  0.00    +0.044 C 
ATOM      2  C   UNL A   1     -22.394   0.844  28.273  0.00  0.00    +0.152 C 
ATOM      3  C   UNL A   1     -24.675   0.427  28.446  0.00  0.00    +0.056 C 
ATOM      4  C   UNL A   1     -24.622   1.228  27.410  0.00  0.00    +0.015 C 
ATOM      5  N   UNL A   1     -23.195   0.165  28.937  0.00  0.00    -0.270 NA
ENDROOT
BRANCH   4   6
ATOM      6  C   UNL A   1     -25.688   1.614  26.461  0.00  0.00    +0.039 C 
ATOM      7  C   UNL A   1     -26.250   2.920  26.395  0.00  0.00    +0.077 C 
ATOM      8  C   UNL A   1     -27.438   3.091  25.645  0.00  0.00    +0.107 C 
ATOM      9  N   UNL A   1     -28.075   2.089  25.003  0.00  0.00    -0.208 NA
ATOM     10  C   UNL A   1     -27.543   0.849  25.079  0.00  0.00    +0.253 C 
ATOM     11  C   UNL A   1     -26.354   0.576  25.777  0.00  0.00    +0.193 C 
ATOM     12  F   UNL A   1     -25.860  -0.681  25.795  0.00  0.00    -0.199 F 
BRANCH   7  13
ATOM     13  C   UNL A   1     -25.642   4.093  27.123  0.00  0.00    +0.266 C 
ATOM     14  N   UNL A   1     -25.614   5.252  26.449  0.00  0.00    -0.200 NA
ATOM     15  C   UNL A   1     -25.026   6.479  26.963  0.00  0.00    +0.139 C 
ATOM     16  O   UNL A   1     -25.143   3.966  28.243  0.00  0.00    -0.268 OA
ENDBRANCH   7  13
BRANCH  10  17
ATOM     17  O   UNL A   1     -28.193  -0.208  24.477  0.00  0.00    -0.456 OA
BRANCH  17  18
ATOM     18  C   UNL A   1     -29.460   0.005  23.866  0.00  0.00    +0.243 C 
BRANCH  18  19
ATOM     19  C   UNL A   1     -30.065  -1.377  23.573  0.00  0.00    +0.229 C 
ATOM     20  O   UNL A   1     -30.729  -1.878  24.721  0.00  0.00    -0.216 OA
ENDBRANCH  18  19
ENDBRANCH  17  18
ENDBRANCH  10  17
ENDBRANCH   4   6
BRANCH   1  22
ATOM     21  O   UNL A   1     -23.239   3.154  25.504  0.00  0.00    -0.179 OA
ATOM     22  C   UNL A   1     -22.571   2.318  26.250  0.00  0.00    +0.330 C 
ATOM     23  F   UNL A   1     -21.357   2.243  26.295  0.00  0.00    -0.196 F 
ENDBRANCH   1  22
BRANCH   3  24
ATOM     24  C   UNL A   1     -25.620  -0.102  29.315  0.00  0.00    +0.077 C 
BRANCH  24  26
ATOM     25  O   UNL A   1     -27.839  -1.180  29.777  0.00  0.00    -0.221 OA
ATOM     26  C   UNL A   1     -27.098   0.017  29.368  0.00  0.00    +0.174 C 
BRANCH  26  27
ATOM     27  C   UNL A   1     -28.248   1.081  29.157  0.00  0.00    +0.106 C 
BRANCH  27  29
ATOM     28  C   UNL A   1     -30.665   1.050  29.880  0.00  0.00    +0.090 C 
ATOM     29  N   UNL A   1     -29.529   0.567  28.952  0.00  0.00    -0.268 NA
ATOM     30  C   UNL A   1     -29.883  -0.165  27.702  0.00  0.00    +0.090 C 
ENDBRANCH  27  29
ENDBRANCH  26  27
ENDBRANCH  24  26
BRANCH  24  31
ATOM     31  C   UNL A   1     -24.855  -1.012  30.143  0.00  0.00    +0.046 C 
BRANCH  31  32
ATOM     32  C   UNL A   1     -24.973  -2.505  29.788  0.00  0.00    -0.021 C 
ATOM     33  C   UNL A   1     -23.906  -3.173  29.146  0.00  0.00    -0.004 C 
ATOM     34  C   UNL A   1     -23.989  -4.549  28.853  0.00  0.00    -0.000 C 
ATOM     35  C   UNL A   1     -25.137  -5.280  29.205  0.00  0.00    -0.000 C 
ATOM     36  C   UNL A   1     -26.232  -4.611  29.784  0.00  0.00    -0.000 C 
ATOM     37  C   UNL A   1     -26.155  -3.232  30.065  0.00  0.00    -0.004 C 
ENDBRANCH  31  32
BRANCH  31  38
ATOM     38  C   UNL A   1     -25.387  -0.679  31.571  0.00  0.00    +0.077 C 
ATOM     39  C   UNL A   1     -25.189   0.773  32.028  0.00  0.00    +0.019 C 
ATOM     40  C   UNL A   1     -25.336   0.684  33.544  0.00  0.00    +0.020 C 
ATOM     41  C   UNL A   1     -24.829  -0.715  33.905  0.00  0.00    +0.089 C 
ATOM     42  N   UNL A   1     -24.758  -1.481  32.646  0.00  0.00    -0.219 NA
ENDBRANCH  31  38
ENDBRANCH  24  31
ENDBRANCH   3  24
TORSDOF 13
