REMARK  Name = outputs/IAG933/test6/raw/output_1086_IAG933_linker_design_.xyz
REMARK  14 active torsions:
REMARK  status: ('A' for Active; 'I' for Inactive)
REMARK    1  A    between atoms: C_1  and  C_2
REMARK    2  A    between atoms: C_1  and  C_8
REMARK    3  A    between atoms: C_1  and  C_32
REMARK    4  A    between atoms: C_13  and  C_35
REMARK    5  A    between atoms: C_14  and  C_15
REMARK    6  A    between atoms: C_21  and  O_22
REMARK    7  A    between atoms: O_22  and  C_23
REMARK    8  A    between atoms: C_23  and  C_24
REMARK    9  A    between atoms: C_28  and  C_31
REMARK   10  A    between atoms: C_31  and  C_32
REMARK   11  A    between atoms: C_32  and  C_38
REMARK   12  A    between atoms: C_35  and  N_40
REMARK   13  A    between atoms: C_36  and  N_40
REMARK   14  A    between atoms: C_38  and  C_41
REMARK                            x       y       z     vdW  Elec       q    Type
REMARK                         _______ _______ _______ _____ _____    ______ ____
ROOT
ATOM      1  C   UNL A   1     -22.451   0.496  28.919  0.00  0.00    +0.137 C 
ATOM      2  C   UNL A   1     -21.201  -0.301  28.933  0.00  0.00    +0.193 C 
ATOM      3  O   UNL A   1     -20.208   0.448  28.242  0.00  0.00    -0.219 OA
ATOM      4  C   UNL A   1     -22.194   1.222  27.725  0.00  0.00    +0.222 C 
ATOM      5  O   UNL A   1     -20.881   1.427  27.460  0.00  0.00    -0.206 OA
ENDROOT
BRANCH   1   7
ATOM      6  O   UNL A   1     -23.780   2.169  29.868  0.00  0.00    -0.296 OA
ATOM      7  C   UNL A   1     -23.639   1.008  29.412  0.00  0.00    +0.159 C 
BRANCH   7   8
ATOM      8  C   UNL A   1     -24.837   0.137  29.314  0.00  0.00    +0.093 C 
BRANCH   8   9
ATOM      9  C   UNL A   1     -26.360   0.303  28.928  0.00  0.00    +0.159 C 
ATOM     10  O   UNL A   1     -26.853   1.533  29.282  0.00  0.00    -0.223 OA
BRANCH   9  12
ATOM     11  C   UNL A   1     -28.663  -0.767  29.331  0.00  0.00    +0.003 C 
ATOM     12  C   UNL A   1     -27.387  -0.798  28.491  0.00  0.00    +0.033 C 
ENDBRANCH   9  12
ENDBRANCH   8   9
BRANCH   8  13
ATOM     13  C   UNL A   1     -24.855  -1.012  30.143  0.00  0.00    +0.048 C 
BRANCH  13  14
ATOM     14  C   UNL A   1     -24.973  -2.505  29.788  0.00  0.00    -0.021 C 
ATOM     15  C   UNL A   1     -23.906  -3.173  29.146  0.00  0.00    -0.004 C 
ATOM     16  C   UNL A   1     -23.989  -4.549  28.853  0.00  0.00    -0.000 C 
ATOM     17  C   UNL A   1     -25.137  -5.280  29.205  0.00  0.00    -0.000 C 
ATOM     18  C   UNL A   1     -26.232  -4.611  29.784  0.00  0.00    -0.000 C 
ATOM     19  C   UNL A   1     -26.155  -3.232  30.065  0.00  0.00    -0.004 C 
ENDBRANCH  13  14
BRANCH  13  20
ATOM     20  C   UNL A   1     -25.387  -0.679  31.571  0.00  0.00    +0.077 C 
ATOM     21  C   UNL A   1     -25.189   0.773  32.028  0.00  0.00    +0.019 C 
ATOM     22  C   UNL A   1     -25.336   0.684  33.544  0.00  0.00    +0.020 C 
ATOM     23  C   UNL A   1     -24.829  -0.715  33.905  0.00  0.00    +0.089 C 
ATOM     24  N   UNL A   1     -24.758  -1.481  32.646  0.00  0.00    -0.219 NA
ENDBRANCH  13  20
ENDBRANCH   8  13
ENDBRANCH   7   8
ENDBRANCH   1   7
BRANCH   4  26
ATOM     25  C   UNL A   1     -22.999   1.922  25.666  0.00  0.00    +0.092 C 
ATOM     26  N   UNL A   1     -23.163   1.515  26.905  0.00  0.00    -0.242 NA
BRANCH  26  27
ATOM     27  C   UNL A   1     -24.511   1.403  27.097  0.00  0.00    +0.104 C 
BRANCH  27  28
ATOM     28  C   UNL A   1     -25.688   1.614  26.461  0.00  0.00    +0.032 C 
ATOM     29  C   UNL A   1     -26.250   2.920  26.395  0.00  0.00    +0.074 C 
ATOM     30  C   UNL A   1     -27.438   3.091  25.645  0.00  0.00    +0.106 C 
ATOM     31  N   UNL A   1     -28.075   2.089  25.003  0.00  0.00    -0.208 NA
ATOM     32  C   UNL A   1     -27.543   0.849  25.079  0.00  0.00    +0.253 C 
ATOM     33  C   UNL A   1     -26.354   0.576  25.777  0.00  0.00    +0.190 C 
ATOM     34  F   UNL A   1     -25.860  -0.681  25.795  0.00  0.00    -0.200 F 
BRANCH  29  35
ATOM     35  C   UNL A   1     -25.642   4.093  27.123  0.00  0.00    +0.266 C 
ATOM     36  N   UNL A   1     -25.614   5.252  26.449  0.00  0.00    -0.200 NA
ATOM     37  C   UNL A   1     -25.026   6.479  26.963  0.00  0.00    +0.139 C 
ATOM     38  O   UNL A   1     -25.143   3.966  28.243  0.00  0.00    -0.268 OA
ENDBRANCH  29  35
BRANCH  32  39
ATOM     39  O   UNL A   1     -28.193  -0.208  24.477  0.00  0.00    -0.456 OA
BRANCH  39  40
ATOM     40  C   UNL A   1     -29.460   0.005  23.866  0.00  0.00    +0.243 C 
BRANCH  40  41
ATOM     41  C   UNL A   1     -30.065  -1.377  23.573  0.00  0.00    +0.229 C 
ATOM     42  O   UNL A   1     -30.729  -1.878  24.721  0.00  0.00    -0.216 OA
ENDBRANCH  40  41
ENDBRANCH  39  40
ENDBRANCH  32  39
ENDBRANCH  27  28
ENDBRANCH  26  27
ENDBRANCH   4  26
TORSDOF 14
