MODEL 1086
MODEL 1
REMARK VINA RESULT:    -5.798      0.000      0.000
REMARK INTER + INTRA:          -6.835
REMARK INTER:                  -6.475
REMARK INTRA:                  -0.360
REMARK UNBOUND:                -0.360
REMARK  Name = No_1086-gen_results/8p0m/2024-11-27-11-27-31/
REMARK  2 active torsions:
REMARK  status: ('A' for Active; 'I' for Inactive)
REMARK    1  A    between atoms: C_4  and  C_5
REMARK    2  A    between atoms: C_8  and  C_9
REMARK                            x       y       z     vdW  Elec       q    Type
REMARK                         _______ _______ _______ _____ _____    ______ ____
ROOT
ATOM      1  C   UNL A   1     -26.095  -4.891  29.656  0.00  0.00    -0.000 A 
ATOM      2  C   UNL A   1     -26.477  -3.762  29.862  0.00  0.00    -0.000 A 
ATOM      3  C   UNL A   1     -25.855  -2.648  29.603  0.00  0.00    -0.000 A 
ATOM      4  C   UNL A   1     -24.556  -2.726  29.014  0.00  0.00    -0.004 A 
ATOM      5  C   UNL A   1     -24.865  -5.125  28.982  0.00  0.00    -0.000 A 
ATOM      6  C   UNL A   1     -24.117  -3.994  28.662  0.00  0.00    -0.000 A 
ENDROOT
BRANCH   4   7
ATOM      7  C   UNL A   1     -23.812  -1.584  28.715  0.00  0.00    -0.022 C 
ATOM      8  C   UNL A   1     -22.831  -1.166  29.382  0.00  0.00    -0.004 C 
ATOM      9  C   UNL A   1     -24.495  -0.533  27.850  0.00  0.00    +0.031 C 
BRANCH   8  10
ATOM     10  C   UNL A   1     -21.995   0.005  29.045  0.00  0.00    -0.000 C 
ATOM     11  C   UNL A   1     -20.729  -0.055  28.430  0.00  0.00    -0.000 C 
ENDBRANCH   8  10
ENDBRANCH   4   7
TORSDOF 2
ENDMDL
ENDMDL
