MODEL 1087
MODEL 1
REMARK VINA RESULT:    -6.083      0.000      0.000
REMARK INTER + INTRA:          -7.140
REMARK INTER:                  -6.795
REMARK INTRA:                  -0.346
REMARK UNBOUND:                -0.346
REMARK  Name = No_1087-gen_results/8p0m/2024-11-27-11-27-31/
REMARK  2 active torsions:
REMARK  status: ('A' for Active; 'I' for Inactive)
REMARK    1  A    between atoms: C_2  and  O_7
REMARK    2  A    between atoms: O_7  and  C_8
REMARK                            x       y       z     vdW  Elec       q    Type
REMARK                         _______ _______ _______ _____ _____    ______ ____
ROOT
ATOM      1  O   UNL A   1     -24.001  -1.427  30.239  0.00  0.00    -0.454 OA
ENDROOT
BRANCH   1   3
ATOM      2  C   UNL A   1     -22.244  -0.474  29.451  0.00  0.00    +0.037 A 
ATOM      3  C   UNL A   1     -23.281  -0.569  29.286  0.00  0.00    +0.145 A 
ATOM      4  C   UNL A   1     -21.509   0.409  28.467  0.00  0.00    +0.003 A 
ATOM      5  C   UNL A   1     -22.245   1.143  27.513  0.00  0.00    +0.000 A 
ATOM      6  C   UNL A   1     -24.273   0.095  28.411  0.00  0.00    +0.037 A 
ATOM      7  C   UNL A   1     -23.634   0.920  27.496  0.00  0.00    +0.003 A 
ENDBRANCH   1   3
BRANCH   1   8
ATOM      8  C   UNL A   1     -24.536  -2.494  29.764  0.00  0.00    +0.145 A 
ATOM      9  C   UNL A   1     -25.721  -2.959  30.072  0.00  0.00    +0.037 A 
ATOM     10  C   UNL A   1     -26.294  -4.184  29.669  0.00  0.00    +0.003 A 
ATOM     11  C   UNL A   1     -25.584  -4.911  29.269  0.00  0.00    +0.000 A 
ATOM     12  C   UNL A   1     -23.819  -3.455  28.929  0.00  0.00    +0.037 A 
ATOM     13  C   UNL A   1     -24.272  -4.647  28.672  0.00  0.00    +0.003 A 
ENDBRANCH   1   8
TORSDOF 2
ENDMDL
ENDMDL
