MODEL 1088
MODEL 1
REMARK VINA RESULT:    -3.869      0.000      0.000
REMARK INTER + INTRA:          -5.533
REMARK INTER:                  -5.227
REMARK INTRA:                  -0.306
REMARK UNBOUND:                -0.306
REMARK  Name = No_1088-gen_results/8p0m/2024-11-27-11-27-31/
REMARK  6 active torsions:
REMARK  status: ('A' for Active; 'I' for Inactive)
REMARK    1  A    between atoms: C_1  and  C_3
REMARK    2  A    between atoms: C_1  and  C_6
REMARK    3  A    between atoms: C_6  and  O_7
REMARK    4  A    between atoms: O_7  and  C_8
REMARK    5  A    between atoms: C_8  and  C_9
REMARK    6  A    between atoms: C_9  and  O_10
REMARK                            x       y       z     vdW  Elec       q    Type
REMARK                         _______ _______ _______ _____ _____    ______ ____
ROOT
ATOM      1  C   UNL A   1     -29.088 -10.539  33.299  0.00  0.00    +0.170 C 
ENDROOT
BRANCH   1   2
ATOM      2  C   UNL A   1     -28.390 -11.531  32.464  0.00  0.00    +0.212 C 
ATOM      3 CL   UNL A   1     -28.330 -11.506  31.261  0.00  0.00    -0.100 Cl
BRANCH   2   4
ATOM      4  C   UNL A   1     -27.327 -12.308  33.170  0.00  0.00    +0.382 C 
ATOM      5  O   UNL A   1     -26.420 -12.765  32.522  0.00  0.00    -0.244 OA
ATOM      6  O   UNL A   1     -27.300 -12.363  34.443  0.00  0.00    -0.244 OA
ENDBRANCH   2   4
ENDBRANCH   1   2
BRANCH   1   7
ATOM      7  O   UNL A   1     -28.585  -9.454  33.218  0.00  0.00    -0.349 OA
BRANCH   7   8
ATOM      8  C   UNL A   1     -28.322  -8.613  34.370  0.00  0.00    +0.174 C 
BRANCH   8   9
ATOM      9  C   UNL A   1     -27.118  -8.868  34.984  0.00  0.00    +0.174 C 
BRANCH   9  10
ATOM     10  O   UNL A   1     -26.931  -8.276  35.975  0.00  0.00    -0.348 OA
ATOM     11  C   UNL A   1     -27.571  -7.167  36.214  0.00  0.00    +0.174 C 
ENDBRANCH   9  10
ENDBRANCH   8   9
ENDBRANCH   7   8
ENDBRANCH   1   7
TORSDOF 6
ENDMDL
ENDMDL
