MODEL 1089
MODEL 1
REMARK VINA RESULT:    -6.837      0.000      0.000
REMARK INTER + INTRA:          -8.703
REMARK INTER:                  -8.036
REMARK INTRA:                  -0.667
REMARK UNBOUND:                -0.667
REMARK  Name = No_1089-gen_results/8p0m/2024-11-27-11-27-31/
REMARK  3 active torsions:
REMARK  status: ('A' for Active; 'I' for Inactive)
REMARK    1  A    between atoms: C_1  and  O_7
REMARK    2  A    between atoms: C_5  and  C_8
REMARK    3  A    between atoms: O_7  and  C_17
REMARK                            x       y       z     vdW  Elec       q    Type
REMARK                         _______ _______ _______ _____ _____    ______ ____
ROOT
ATOM      1  C   UNL A   1     -22.685  -0.508  29.086  0.00  0.00    +0.146 A 
ATOM      2  C   UNL A   1     -21.486  -0.460  28.939  0.00  0.00    +0.037 A 
ATOM      3  C   UNL A   1     -20.847   0.490  28.167  0.00  0.00    +0.003 A 
ATOM      4  C   UNL A   1     -21.646   1.490  27.544  0.00  0.00    +0.005 A 
ATOM      5  C   UNL A   1     -22.959   1.495  27.875  0.00  0.00    +0.057 A 
ATOM      6  C   UNL A   1     -23.477   0.568  28.657  0.00  0.00    +0.042 A 
ENDROOT
BRANCH   5   7
ATOM      7  C   UNL A   1     -23.924   2.497  27.410  0.00  0.00    +0.253 C 
ATOM      8  O   UNL A   1     -24.419   3.231  28.198  0.00  0.00    -0.270 OA
ATOM      9  N   UNL A   1     -24.456   2.404  26.218  0.00  0.00    -0.254 N 
ATOM     10  C   UNL A   1     -24.071   1.486  25.206  0.00  0.00    +0.068 C 
ATOM     11  C   UNL A   1     -24.596   0.415  25.164  0.00  0.00    +0.016 C 
ATOM     12  C   UNL A   1     -25.974   0.116  25.533  0.00  0.00    -0.003 C 
ATOM     13  C   UNL A   1     -26.864   1.061  25.434  0.00  0.00    -0.024 C 
ATOM     14  C   UNL A   1     -25.488   3.308  25.893  0.00  0.00    +0.103 C 
ATOM     15  C   UNL A   1     -26.733   2.340  26.188  0.00  0.00    +0.048 C 
ENDBRANCH   5   7
BRANCH   1  16
ATOM     16  O   UNL A   1     -23.262  -1.466  29.913  0.00  0.00    -0.451 OA
BRANCH  16  17
ATOM     17  C   UNL A   1     -23.955  -2.221  29.941  0.00  0.00    +0.175 C 
ATOM     18  C   UNL A   1     -23.907  -3.265  28.945  0.00  0.00    +0.015 C 
ATOM     19  C   UNL A   1     -24.857  -4.275  28.904  0.00  0.00    +0.034 C 
ENDBRANCH  16  17
ENDBRANCH   1  16
TORSDOF 3
ENDMDL
ENDMDL
