MODEL 108
MODEL 1
REMARK VINA RESULT:    -6.444      0.000      0.000
REMARK INTER + INTRA:          -8.324
REMARK INTER:                  -7.574
REMARK INTRA:                  -0.750
REMARK UNBOUND:                -0.750
REMARK  Name = No_108-gen_results/8p0m/2024-11-27-11-27-31/
REMARK  3 active torsions:
REMARK  status: ('A' for Active; 'I' for Inactive)
REMARK    1  A    between atoms: C_8  and  C_12
REMARK    2  A    between atoms: C_12  and  C_13
REMARK    3  A    between atoms: C_12  and  C_14
REMARK                            x       y       z     vdW  Elec       q    Type
REMARK                         _______ _______ _______ _____ _____    ______ ____
ROOT
ATOM      1  C   UNL A   1     -25.679   0.236  27.851  0.00  0.00    +0.011 A 
ATOM      2  C   UNL A   1     -24.540   0.332  27.458  0.00  0.00    -0.003 A 
ATOM      3  C   UNL A   1     -24.257   0.814  26.185  0.00  0.00    -0.000 A 
ATOM      4  C   UNL A   1     -25.316   1.172  25.276  0.00  0.00    +0.001 A 
ATOM      5  C   UNL A   1     -26.604   1.008  25.804  0.00  0.00    +0.011 A 
ATOM      6  C   UNL A   1     -26.818   0.532  27.009  0.00  0.00    +0.058 A 
ATOM      7 CL   UNL A   1     -28.427   0.320  27.526  0.00  0.00    -0.082 Cl
ATOM      8  C   UNL A   1     -23.322  -0.022  28.249  0.00  0.00    -0.018 A 
ATOM      9  C   UNL A   1     -22.291   0.750  28.299  0.00  0.00    -0.004 A 
ATOM     10  C   UNL A   1     -22.216   1.894  27.456  0.00  0.00    -0.000 A 
ATOM     11  C   UNL A   1     -23.071   1.903  26.263  0.00  0.00    -0.000 A 
ENDROOT
BRANCH   8  12
ATOM     12  C   UNL A   1     -23.491  -1.037  29.316  0.00  0.00    +0.044 C 
BRANCH  12  13
ATOM     13  C   UNL A   1     -23.433  -2.253  28.952  0.00  0.00    -0.027 C 
ATOM     14  C   UNL A   1     -24.455  -3.218  29.184  0.00  0.00    -0.030 C 
ATOM     15  C   UNL A   1     -24.333  -4.517  28.782  0.00  0.00    +0.030 C 
ENDBRANCH  12  13
BRANCH  12  16
ATOM     16  C   UNL A   1     -23.774  -0.605  30.614  0.00  0.00    +0.009 C 
ATOM     17  C   UNL A   1     -23.029  -0.821  31.670  0.00  0.00    +0.001 C 
ENDBRANCH  12  16
ENDBRANCH   8  12
TORSDOF 3
ENDMDL
ENDMDL
