REMARK  Name = No_1091-gen_results/8p0m/2024-11-27-11-27-31/
REMARK  5 active torsions:
REMARK  status: ('A' for Active; 'I' for Inactive)
REMARK    1  A    between atoms: C_4  and  C_14
REMARK    2  A    between atoms: C_5  and  C_11
REMARK    3  A    between atoms: C_9  and  C_22
REMARK    4  A    between atoms: C_14  and  C_15
REMARK    5  A    between atoms: C_22  and  C_23
REMARK                            x       y       z     vdW  Elec       q    Type
REMARK                         _______ _______ _______ _____ _____    ______ ____
ROOT
ATOM      1  C   UNL A   1     -28.016  -0.814  28.878  0.00  0.00    -0.000 A 
ATOM      2  C   UNL A   1     -27.064  -0.119  28.608  0.00  0.00    +0.000 A 
ATOM      3  C   UNL A   1     -26.876   1.133  28.913  0.00  0.00    +0.003 A 
ATOM      4  C   UNL A   1     -25.688   1.952  28.567  0.00  0.00    +0.045 A 
ATOM      5  C   UNL A   1     -24.639   1.283  27.875  0.00  0.00    +0.083 A 
ATOM      6  C   UNL A   1     -24.807  -0.051  27.604  0.00  0.00    +0.007 A 
ATOM      7  C   UNL A   1     -25.902  -0.767  27.951  0.00  0.00    +0.000 A 
ATOM      8  C   UNL A   1     -29.212  -0.115  29.122  0.00  0.00    -0.004 A 
ATOM      9  C   UNL A   1     -29.193   1.221  29.415  0.00  0.00    -0.018 A 
ATOM     10  C   UNL A   1     -28.033   1.926  29.179  0.00  0.00    -0.004 A 
ENDROOT
BRANCH   5  11
ATOM     11  C   UNL A   1     -23.354   1.890  27.589  0.00  0.00    +0.388 C 
ATOM     12  O   UNL A   1     -23.179   2.631  26.751  0.00  0.00    -0.241 OA
ATOM     13  O   UNL A   1     -22.210   1.415  28.358  0.00  0.00    -0.241 OA
ENDBRANCH   5  11
BRANCH   4  14
ATOM     14  C   UNL A   1     -25.478   3.373  28.909  0.00  0.00    +0.196 C 
ATOM     15  O   UNL A   1     -25.768   4.180  27.852  0.00  0.00    -0.287 OA
BRANCH  14  16
ATOM     16  C   UNL A   1     -25.464   3.985  30.021  0.00  0.00    +0.039 A 
ATOM     17  C   UNL A   1     -25.458   3.286  31.283  0.00  0.00    +0.003 A 
ATOM     18  C   UNL A   1     -25.369   4.040  32.508  0.00  0.00    +0.000 A 
ATOM     19  C   UNL A   1     -25.147   5.436  32.397  0.00  0.00    +0.000 A 
ATOM     20  C   UNL A   1     -25.215   6.088  31.164  0.00  0.00    +0.000 A 
ATOM     21  C   UNL A   1     -25.321   5.358  30.035  0.00  0.00    +0.003 A 
ENDBRANCH  14  16
ENDBRANCH   4  14
BRANCH   9  22
ATOM     22  C   UNL A   1     -30.428   1.923  29.884  0.00  0.00    +0.053 C 
BRANCH  22  23
ATOM     23  C   UNL A   1     -31.015   2.648  29.166  0.00  0.00    -0.018 A 
ATOM     24  C   UNL A   1     -30.606   2.990  27.813  0.00  0.00    -0.004 A 
ATOM     25  C   UNL A   1     -31.360   3.924  27.024  0.00  0.00    -0.000 A 
ATOM     26  C   UNL A   1     -32.486   4.526  27.560  0.00  0.00    -0.000 A 
ATOM     27  C   UNL A   1     -32.908   4.271  28.811  0.00  0.00    -0.000 A 
ATOM     28  C   UNL A   1     -32.215   3.433  29.641  0.00  0.00    -0.004 A 
ENDBRANCH  22  23
ENDBRANCH   9  22
TORSDOF 5
