MODEL 1091
MODEL 1
REMARK VINA RESULT:    -7.806      0.000      0.000
REMARK INTER + INTRA:         -11.746
REMARK INTER:                 -10.088
REMARK INTRA:                  -1.657
REMARK UNBOUND:                -1.657
REMARK  Name = No_1091-gen_results/8p0m/2024-11-27-11-27-31/
REMARK  5 active torsions:
REMARK  status: ('A' for Active; 'I' for Inactive)
REMARK    1  A    between atoms: C_4  and  C_14
REMARK    2  A    between atoms: C_5  and  C_11
REMARK    3  A    between atoms: C_9  and  C_22
REMARK    4  A    between atoms: C_14  and  C_15
REMARK    5  A    between atoms: C_22  and  C_23
REMARK                            x       y       z     vdW  Elec       q    Type
REMARK                         _______ _______ _______ _____ _____    ______ ____
ROOT
ATOM      1  C   UNL A   1     -13.052   2.467  34.269  0.00  0.00    -0.000 A 
ATOM      2  C   UNL A   1     -12.025   1.957  34.654  0.00  0.00    +0.000 A 
ATOM      3  C   UNL A   1     -11.772   1.461  35.831  0.00  0.00    +0.003 A 
ATOM      4  C   UNL A   1     -10.497   0.837  36.264  0.00  0.00    +0.045 A 
ATOM      5  C   UNL A   1      -9.475   0.736  35.278  0.00  0.00    +0.083 A 
ATOM      6  C   UNL A   1      -9.759   1.204  34.020  0.00  0.00    +0.007 A 
ATOM      7  C   UNL A   1     -10.943   1.753  33.660  0.00  0.00    +0.000 A 
ATOM      8  C   UNL A   1     -13.871   2.994  35.284  0.00  0.00    -0.004 A 
ATOM      9  C   UNL A   1     -13.706   2.608  36.586  0.00  0.00    -0.018 A 
ATOM     10  C   UNL A   1     -12.553   1.935  36.927  0.00  0.00    -0.004 A 
ENDROOT
BRANCH   5  11
ATOM     11  C   UNL A   1      -8.227   0.029  35.487  0.00  0.00    +0.388 C 
ATOM     12  O   UNL A   1      -8.090  -1.078  35.293  0.00  0.00    -0.241 OA
ATOM     13  O   UNL A   1      -7.135   0.777  36.097  0.00  0.00    -0.241 OA
ENDBRANCH   5  11
BRANCH   4  14
ATOM     14  C   UNL A   1     -10.208   0.279  37.600  0.00  0.00    +0.196 C 
ATOM     15  O   UNL A   1      -9.530   1.173  38.370  0.00  0.00    -0.287 OA
BRANCH  14  16
ATOM     16  C   UNL A   1     -10.763  -0.644  38.272  0.00  0.00    +0.039 A 
ATOM     17  C   UNL A   1     -11.032  -0.513  39.683  0.00  0.00    +0.003 A 
ATOM     18  C   UNL A   1     -11.729  -1.569  40.371  0.00  0.00    +0.000 A 
ATOM     19  C   UNL A   1     -12.244  -2.629  39.582  0.00  0.00    +0.000 A 
ATOM     20  C   UNL A   1     -11.918  -2.755  38.230  0.00  0.00    +0.000 A 
ATOM     21  C   UNL A   1     -11.245  -1.760  37.617  0.00  0.00    +0.003 A 
ENDBRANCH  14  16
ENDBRANCH   4  14
BRANCH   9  22
ATOM     22  C   UNL A   1     -14.701   2.994  37.634  0.00  0.00    +0.053 C 
BRANCH  22  23
ATOM     23  C   UNL A   1     -15.226   4.047  37.604  0.00  0.00    -0.018 A 
ATOM     24  C   UNL A   1     -14.612   5.295  38.027  0.00  0.00    -0.004 A 
ATOM     25  C   UNL A   1     -15.347   6.530  38.001  0.00  0.00    -0.000 A 
ATOM     26  C   UNL A   1     -16.667   6.536  37.583  0.00  0.00    -0.000 A 
ATOM     27  C   UNL A   1     -17.302   5.415  37.198  0.00  0.00    -0.000 A 
ATOM     28  C   UNL A   1     -16.686   4.194  37.244  0.00  0.00    -0.004 A 
ENDBRANCH  22  23
ENDBRANCH   9  22
TORSDOF 5
ENDMDL
ENDMDL
