REMARK  Name = No_1092-gen_results/8p0m/2024-11-27-11-27-31/
REMARK  6 active torsions:
REMARK  status: ('A' for Active; 'I' for Inactive)
REMARK    1  A    between atoms: C_2  and  C_24
REMARK    2  A    between atoms: C_6  and  O_13
REMARK    3  A    between atoms: O_13  and  C_14
REMARK    4  A    between atoms: C_14  and  C_15
REMARK    5  A    between atoms: C_24  and  C_25
REMARK    6  A    between atoms: C_24  and  C_31
REMARK                            x       y       z     vdW  Elec       q    Type
REMARK                         _______ _______ _______ _____ _____    ______ ____
ROOT
ATOM      1  C   UNL A   1     -28.016  -0.814  28.878  0.00  0.00    +0.034 A 
ATOM      2  C   UNL A   1     -27.064  -0.119  28.608  0.00  0.00    -0.008 A 
ATOM      3  C   UNL A   1     -25.765  -0.390  29.036  0.00  0.00    -0.003 A 
ATOM      4  C   UNL A   1     -25.530  -1.530  29.901  0.00  0.00    +0.003 A 
ATOM      5  C   UNL A   1     -26.658  -2.292  30.203  0.00  0.00    +0.037 A 
ATOM      6  C   UNL A   1     -27.855  -1.956  29.763  0.00  0.00    +0.144 A 
ATOM      7  C   UNL A   1     -24.544   0.413  28.738  0.00  0.00    +0.001 A 
ATOM      8  C   UNL A   1     -24.473   1.206  27.711  0.00  0.00    +0.011 A 
ATOM      9  C   UNL A   1     -23.278   1.842  27.366  0.00  0.00    +0.058 A 
ATOM     10  C   UNL A   1     -22.093   1.664  28.034  0.00  0.00    +0.011 A 
ATOM     11  C   UNL A   1     -23.303   0.139  29.470  0.00  0.00    +0.000 A 
ATOM     12  C   UNL A   1     -22.094   0.798  29.103  0.00  0.00    +0.001 A 
ATOM     13 CL   UNL A   1     -23.304   2.968  26.013  0.00  0.00    -0.082 Cl
ATOM     14  C   UNL A   1     -24.209  -1.854  30.427  0.00  0.00    +0.000 A 
ATOM     15  C   UNL A   1     -23.180  -0.990  30.356  0.00  0.00    +0.000 A 
ENDROOT
BRANCH   6  16
ATOM     16  O   UNL A   1     -28.930  -2.727  30.120  0.00  0.00    -0.425 OA
BRANCH  16  17
ATOM     17  C   UNL A   1     -30.046  -2.169  30.608  0.00  0.00    +0.481 C 
ATOM     18  F   UNL A   1     -29.959  -0.888  30.448  0.00  0.00    -0.157 F 
ATOM     19  F   UNL A   1     -29.793  -2.402  31.975  0.00  0.00    -0.157 F 
BRANCH  17  20
ATOM     20  C   UNL A   1     -31.121  -2.790  30.213  0.00  0.00    +0.423 C 
ATOM     21 CL   UNL A   1     -31.080  -4.359  29.891  0.00  0.00    -0.038 Cl
ATOM     22  F   UNL A   1     -32.155  -2.576  31.136  0.00  0.00    -0.176 F 
ATOM     23  F   UNL A   1     -31.601  -2.224  29.037  0.00  0.00    -0.176 F 
ENDBRANCH  17  20
ENDBRANCH  16  17
ENDBRANCH   6  16
BRANCH   2  24
ATOM     24  C   UNL A   1     -27.216   1.130  27.718  0.00  0.00    +0.109 C 
BRANCH  24  25
ATOM     25  C   UNL A   1     -28.230   1.663  27.403  0.00  0.00    -0.011 A 
ATOM     26  C   UNL A   1     -28.380   2.734  26.509  0.00  0.00    -0.004 A 
ATOM     27  C   UNL A   1     -29.529   3.321  26.150  0.00  0.00    -0.000 A 
ATOM     28  C   UNL A   1     -30.731   2.778  26.615  0.00  0.00    -0.000 A 
ATOM     29  C   UNL A   1     -30.707   1.687  27.439  0.00  0.00    -0.000 A 
ATOM     30  C   UNL A   1     -29.531   1.116  27.822  0.00  0.00    -0.004 A 
ENDBRANCH  24  25
BRANCH  24  31
ATOM     31  C   UNL A   1     -25.841   1.820  27.382  0.00  0.00    +0.216 C 
ATOM     32  O   UNL A   1     -25.898   2.826  26.606  0.00  0.00    -0.288 OA
ENDBRANCH  24  31
ENDBRANCH   2  24
TORSDOF 6
