REMARK  Name = outputs/IAG933/test6/raw/output_1093_IAG933_linker_design_.xyz
REMARK  13 active torsions:
REMARK  status: ('A' for Active; 'I' for Inactive)
REMARK    1  A    between atoms: C_1  and  C_2
REMARK    2  A    between atoms: C_1  and  C_8
REMARK    3  A    between atoms: C_1  and  C_32
REMARK    4  A    between atoms: C_14  and  C_15
REMARK    5  A    between atoms: C_21  and  O_22
REMARK    6  A    between atoms: O_22  and  C_23
REMARK    7  A    between atoms: C_23  and  C_24
REMARK    8  A    between atoms: C_28  and  C_40
REMARK    9  A    between atoms: C_29  and  C_32
REMARK   10  A    between atoms: C_32  and  C_39
REMARK   11  A    between atoms: N_35  and  C_37
REMARK   12  A    between atoms: N_38  and  C_40
REMARK   13  A    between atoms: C_39  and  C_40
REMARK                            x       y       z     vdW  Elec       q    Type
REMARK                         _______ _______ _______ _____ _____    ______ ____
ROOT
ATOM      1  O   UNL A   1     -22.456  -0.224  29.273  0.00  0.00    -0.293 OA
ATOM      2  C   UNL A   1     -23.405   0.319  28.629  0.00  0.00    +0.190 C 
ENDROOT
BRANCH   2   3
ATOM      3  C   UNL A   1     -24.981  -0.023  29.005  0.00  0.00    +0.143 C 
BRANCH   3   4
ATOM      4  C   UNL A   1     -26.664   0.292  29.014  0.00  0.00    +0.248 C 
ATOM      5  O   UNL A   1     -27.396  -0.659  28.729  0.00  0.00    -0.273 OA
ATOM      6  N   UNL A   1     -26.942   1.507  29.373  0.00  0.00    -0.205 NA
BRANCH   6   8
ATOM      7  C   UNL A   1     -29.181   1.900  28.645  0.00  0.00    +0.025 C 
ATOM      8  C   UNL A   1     -28.208   1.942  29.746  0.00  0.00    +0.115 C 
ENDBRANCH   6   8
ENDBRANCH   3   4
BRANCH   3   9
ATOM      9  C   UNL A   1     -24.855  -1.012  30.143  0.00  0.00    +0.054 C 
BRANCH   9  10
ATOM     10  C   UNL A   1     -24.973  -2.505  29.788  0.00  0.00    -0.020 C 
ATOM     11  C   UNL A   1     -23.906  -3.173  29.146  0.00  0.00    -0.004 C 
ATOM     12  C   UNL A   1     -23.989  -4.549  28.853  0.00  0.00    -0.000 C 
ATOM     13  C   UNL A   1     -25.137  -5.280  29.205  0.00  0.00    -0.000 C 
ATOM     14  C   UNL A   1     -26.232  -4.611  29.784  0.00  0.00    -0.000 C 
ATOM     15  C   UNL A   1     -26.155  -3.232  30.065  0.00  0.00    -0.004 C 
ENDBRANCH   9  10
BRANCH   9  16
ATOM     16  C   UNL A   1     -25.387  -0.679  31.571  0.00  0.00    +0.078 C 
ATOM     17  C   UNL A   1     -25.189   0.773  32.028  0.00  0.00    +0.019 C 
ATOM     18  C   UNL A   1     -25.336   0.684  33.544  0.00  0.00    +0.020 C 
ATOM     19  C   UNL A   1     -24.829  -0.715  33.905  0.00  0.00    +0.089 C 
ATOM     20  N   UNL A   1     -24.758  -1.481  32.646  0.00  0.00    -0.219 NA
ENDBRANCH   9  16
ENDBRANCH   3   9
ENDBRANCH   2   3
BRANCH   2  21
ATOM     21  C   UNL A   1     -23.377   1.137  27.536  0.00  0.00    +0.233 C 
BRANCH  21  29
ATOM     22  C   UNL A   1     -25.688   1.614  26.461  0.00  0.00    +0.102 C 
ATOM     23  C   UNL A   1     -26.250   2.920  26.395  0.00  0.00    +0.090 C 
ATOM     24  C   UNL A   1     -27.438   3.091  25.645  0.00  0.00    +0.108 C 
ATOM     25  N   UNL A   1     -28.075   2.089  25.003  0.00  0.00    -0.211 NA
ATOM     26  C   UNL A   1     -27.543   0.849  25.079  0.00  0.00    +0.240 C 
ATOM     27  C   UNL A   1     -26.354   0.576  25.777  0.00  0.00    +0.275 C 
ATOM     28  F   UNL A   1     -25.860  -0.681  25.795  0.00  0.00    -0.221 F 
ATOM     29  N   UNL A   1     -24.598   1.738  27.170  0.00  0.00    -0.257 NA
BRANCH  23  30
ATOM     30  C   UNL A   1     -25.642   4.093  27.123  0.00  0.00    +0.268 C 
ATOM     31  N   UNL A   1     -25.614   5.252  26.449  0.00  0.00    -0.200 NA
ATOM     32  C   UNL A   1     -25.026   6.479  26.963  0.00  0.00    +0.139 C 
ATOM     33  O   UNL A   1     -25.143   3.966  28.243  0.00  0.00    -0.268 OA
ENDBRANCH  23  30
BRANCH  26  34
ATOM     34  O   UNL A   1     -28.193  -0.208  24.477  0.00  0.00    -0.458 OA
BRANCH  34  35
ATOM     35  C   UNL A   1     -29.460   0.005  23.866  0.00  0.00    +0.242 C 
BRANCH  35  36
ATOM     36  C   UNL A   1     -30.065  -1.377  23.573  0.00  0.00    +0.229 C 
ATOM     37  O   UNL A   1     -30.729  -1.878  24.721  0.00  0.00    -0.216 OA
ENDBRANCH  35  36
ENDBRANCH  34  35
ENDBRANCH  26  34
ENDBRANCH  21  29
BRANCH  21  38
ATOM     38  C   UNL A   1     -22.089   1.440  27.003  0.00  0.00    +0.260 C 
ATOM     39 CL   UNL A   1     -21.970   1.934  25.277  0.00  0.00    -0.041 Cl
ATOM     40  O   UNL A   1     -21.002   1.454  27.605  0.00  0.00    -0.276 OA
ENDBRANCH  21  38
ENDBRANCH   2  21
TORSDOF 13
