MODEL 1093
MODEL 1
REMARK VINA RESULT:    -3.915      0.000      0.000
REMARK INTER + INTRA:          -3.915
REMARK INTER:                  -3.915
REMARK INTRA:                   0.000
REMARK UNBOUND:                 0.000
REMARK  Name = No_1093-gen_results/8p0m/2024-11-27-11-27-31/
REMARK  0 active torsions:
REMARK  status: ('A' for Active; 'I' for Inactive)
REMARK                            x       y       z     vdW  Elec       q    Type
REMARK                         _______ _______ _______ _____ _____    ______ ____
ROOT
ATOM      1 BR   UNL A   1     -26.660  -1.355  30.518  0.00  0.00    -0.049 Br
ATOM      2  C   UNL A   1     -25.843  -2.699  30.006  0.00  0.00    +0.035 A 
ATOM      3  C   UNL A   1     -26.288  -3.900  29.913  0.00  0.00    +0.007 A 
ATOM      4  C   UNL A   1     -25.676  -4.998  29.265  0.00  0.00    +0.001 A 
ATOM      5  C   UNL A   1     -24.373  -4.774  28.766  0.00  0.00    +0.000 A 
ATOM      6  C   UNL A   1     -23.851  -3.515  28.826  0.00  0.00    +0.001 A 
ATOM      7  C   UNL A   1     -24.589  -2.550  29.360  0.00  0.00    +0.007 A 
ENDROOT
TORSDOF 0
ENDMDL
ENDMDL
