MODEL 1095
MODEL 1
REMARK VINA RESULT:    -4.555      0.000      0.000
REMARK INTER + INTRA:          -5.229
REMARK INTER:                  -5.088
REMARK INTRA:                  -0.141
REMARK UNBOUND:                -0.141
REMARK  Name = No_1095-gen_results/8p0m/2024-11-27-11-27-31/
REMARK  2 active torsions:
REMARK  status: ('A' for Active; 'I' for Inactive)
REMARK    1  A    between atoms: C_2  and  C_4
REMARK    2  A    between atoms: C_5  and  C_6
REMARK                            x       y       z     vdW  Elec       q    Type
REMARK                         _______ _______ _______ _____ _____    ______ ____
ROOT
ATOM      1  C   UNL A   1     -24.158  -4.184  28.711  0.00  0.00    +0.045 C 
ATOM      2  C   UNL A   1     -24.227  -3.088  29.377  0.00  0.00    +0.001 C 
ENDROOT
BRANCH   1   4
ATOM      3  F   UNL A   1     -25.777  -5.251  29.809  0.00  0.00    -0.193 F 
ATOM      4  C   UNL A   1     -24.932  -5.315  29.039  0.00  0.00    +0.341 C 
ATOM      5  F   UNL A   1     -24.872  -6.296  28.445  0.00  0.00    -0.193 F 
ENDBRANCH   1   4
BRANCH   2   6
ATOM      6  C   UNL A   1     -23.480  -1.964  29.069  0.00  0.00    -0.005 C 
ATOM      7  C   UNL A   1     -23.139  -1.017  30.116  0.00  0.00    -0.026 C 
ATOM      8  C   UNL A   1     -23.582  -1.333  31.435  0.00  0.00    +0.031 C 
ENDBRANCH   2   6
TORSDOF 2
ENDMDL
ENDMDL
