MODEL 1096
MODEL 1
REMARK VINA RESULT:    -6.820      0.000      0.000
REMARK INTER + INTRA:         -13.970
REMARK INTER:                 -11.206
REMARK INTRA:                  -2.764
REMARK UNBOUND:                -2.764
REMARK  Name = No_1096-gen_results/8p0m/2024-11-27-11-27-31/
REMARK  11 active torsions:
REMARK  status: ('A' for Active; 'I' for Inactive)
REMARK    1  A    between atoms: C_3  and  C_25
REMARK    2  A    between atoms: C_5  and  C_14
REMARK    3  A    between atoms: C_7  and  C_8
REMARK    4  A    between atoms: C_11  and  C_17
REMARK    5  A    between atoms: C_25  and  O_27
REMARK    6  A    between atoms: O_27  and  C_28
REMARK    7  A    between atoms: C_28  and  C_29
REMARK    8  A    between atoms: C_29  and  C_30
REMARK    9  A    between atoms: C_31  and  C_32
REMARK   10  A    between atoms: C_32  and  N_33
REMARK   11  A    between atoms: N_33  and  C_34
REMARK                            x       y       z     vdW  Elec       q    Type
REMARK                         _______ _______ _______ _____ _____    ______ ____
ROOT
ATOM      1  F   UNL A   1     -31.579 -15.056  24.593  0.00  0.00    -0.204 F 
ATOM      2  C   UNL A   1     -31.090 -14.378  23.811  0.00  0.00    +0.146 A 
ATOM      3  C   UNL A   1     -31.148 -14.795  22.594  0.00  0.00    +0.103 A 
ATOM      4  C   UNL A   1     -30.628 -14.056  21.420  0.00  0.00    +0.015 A 
ATOM      5  C   UNL A   1     -30.037 -12.780  21.728  0.00  0.00    +0.080 A 
ATOM      6  C   UNL A   1     -30.044 -12.384  23.046  0.00  0.00    +0.009 A 
ATOM      7  C   UNL A   1     -30.575 -13.128  24.057  0.00  0.00    +0.028 A 
ENDROOT
BRANCH   7   8
ATOM      8  C   UNL A   1     -30.546 -12.566  25.392  0.00  0.00    +0.002 A 
ATOM      9  C   UNL A   1     -31.049 -11.846  25.893  0.00  0.00    +0.000 A 
ATOM     10  C   UNL A   1     -30.856 -11.251  27.238  0.00  0.00    +0.000 A 
ATOM     11  C   UNL A   1     -29.760 -11.823  27.911  0.00  0.00    +0.000 A 
ATOM     12  C   UNL A   1     -28.936 -12.778  27.349  0.00  0.00    +0.000 A 
ATOM     13  C   UNL A   1     -29.246 -13.244  26.089  0.00  0.00    +0.000 A 
BRANCH  11  14
ATOM     14  C   UNL A   1     -29.443 -11.353  29.305  0.00  0.00    +0.001 A 
ATOM     15  C   UNL A   1     -28.721 -12.043  30.130  0.00  0.00    +0.014 A 
ATOM     16  C   UNL A   1     -28.470 -11.507  31.474  0.00  0.00    +0.085 A 
ATOM     17  C   UNL A   1     -29.172 -10.363  31.835  0.00  0.00    +0.151 A 
ATOM     18  C   UNL A   1     -30.173  -9.854  31.053  0.00  0.00    +0.030 A 
ATOM     19  C   UNL A   1     -30.315 -10.278  29.790  0.00  0.00    +0.002 A 
ATOM     20  F   UNL A   1     -29.214  -9.902  33.171  0.00  0.00    -0.203 F 
ATOM     21 CL   UNL A   1     -27.341 -12.063  32.627  0.00  0.00    -0.080 Cl
ENDBRANCH  11  14
ENDBRANCH   7   8
BRANCH   5  22
ATOM     22  C   UNL A   1     -29.449 -12.032  20.628  0.00  0.00    +0.388 C 
ATOM     23  O   UNL A   1     -28.367 -12.294  20.085  0.00  0.00    -0.241 OA
ATOM     24  O   UNL A   1     -30.082 -10.901  20.242  0.00  0.00    -0.241 OA
ENDBRANCH   5  22
BRANCH   3  25
ATOM     25  C   UNL A   1     -31.730 -16.108  22.143  0.00  0.00    +0.343 C 
ATOM     26  O   UNL A   1     -32.848 -16.349  22.215  0.00  0.00    -0.245 OA
BRANCH  25  27
ATOM     27  O   UNL A   1     -30.778 -16.982  21.887  0.00  0.00    -0.445 OA
BRANCH  27  28
ATOM     28  C   UNL A   1     -30.407 -17.939  22.606  0.00  0.00    +0.213 C 
BRANCH  28  29
ATOM     29  C   UNL A   1     -29.067 -17.766  23.251  0.00  0.00    +0.073 C 
BRANCH  29  30
ATOM     30  C   UNL A   1     -29.047 -17.165  24.554  0.00  0.00    -0.025 C 
ATOM     31  C   UNL A   1     -28.014 -16.236  24.775  0.00  0.00    -0.007 C 
BRANCH  31  32
ATOM     32  C   UNL A   1     -26.858 -16.324  24.137  0.00  0.00    +0.138 C 
BRANCH  32  33
ATOM     33  N   UNL A   1     -25.954 -15.999  24.467  0.00  0.00    -0.232 NA
BRANCH  33  34
ATOM     34  C   UNL A   1     -24.945 -16.698  25.137  0.00  0.00    +0.081 C 
ATOM     35  C   UNL A   1     -24.286 -17.575  24.395  0.00  0.00    +0.019 C 
ENDBRANCH  33  34
ENDBRANCH  32  33
ENDBRANCH  31  32
ENDBRANCH  29  30
ENDBRANCH  28  29
ENDBRANCH  27  28
ENDBRANCH  25  27
ENDBRANCH   3  25
TORSDOF 11
ENDMDL
ENDMDL
