MODEL 1097
MODEL 1
REMARK VINA RESULT:    -5.211      0.000      0.000
REMARK INTER + INTRA:          -7.204
REMARK INTER:                  -6.734
REMARK INTRA:                  -0.469
REMARK UNBOUND:                -0.469
REMARK  Name = No_1097-gen_results/8p0m/2024-11-27-11-27-31/
REMARK  5 active torsions:
REMARK  status: ('A' for Active; 'I' for Inactive)
REMARK    1  A    between atoms: C_2  and  C_3
REMARK    2  A    between atoms: C_3  and  C_5
REMARK    3  A    between atoms: N_4  and  C_8
REMARK    4  A    between atoms: C_9  and  C_10
REMARK    5  A    between atoms: C_10  and  C_11
REMARK                            x       y       z     vdW  Elec       q    Type
REMARK                         _______ _______ _______ _____ _____    ______ ____
ROOT
ATOM      1  O   UNL A   1      -9.524   2.119  33.437  0.00  0.00    -0.273 OA
ATOM      2  C   UNL A   1     -10.172   1.792  34.332  0.00  0.00    +0.245 C 
ATOM      3  N   UNL A   1      -9.836   0.653  35.207  0.00  0.00    -0.178 NA
ENDROOT
BRANCH   2   4
ATOM      4  C   UNL A   1     -11.257   2.537  34.747  0.00  0.00    +0.079 C 
ATOM      5  C   UNL A   1     -11.039   3.943  35.018  0.00  0.00    +0.010 C 
BRANCH   4   6
ATOM      6  C   UNL A   1     -12.604   2.178  34.479  0.00  0.00    +0.009 C 
ATOM      7  C   UNL A   1     -12.949   1.440  33.526  0.00  0.00    +0.001 C 
ATOM      8  C   UNL A   1     -13.672   2.663  35.410  0.00  0.00    +0.001 C 
ENDBRANCH   4   6
ENDBRANCH   2   4
BRANCH   3   9
ATOM      9  C   UNL A   1     -10.476   0.231  36.364  0.00  0.00    +0.084 C 
ATOM     10  C   UNL A   1     -10.360  -0.469  37.073  0.00  0.00    -0.004 C 
BRANCH  10  11
ATOM     11  C   UNL A   1     -10.716  -1.141  37.763  0.00  0.00    +0.053 C 
BRANCH  11  12
ATOM     12  C   UNL A   1     -10.734  -1.199  39.295  0.00  0.00    -0.026 C 
ATOM     13  C   UNL A   1     -11.558  -2.025  39.842  0.00  0.00    -0.030 C 
ATOM     14  C   UNL A   1     -12.448  -2.678  39.037  0.00  0.00    +0.030 C 
ENDBRANCH  11  12
ENDBRANCH  10  11
ENDBRANCH   3   9
TORSDOF 5
ENDMDL
ENDMDL
