MODEL 1098
MODEL 1
REMARK VINA RESULT:    -6.154      0.000      0.000
REMARK INTER + INTRA:          -6.805
REMARK INTER:                  -6.513
REMARK INTRA:                  -0.292
REMARK UNBOUND:                -0.292
REMARK  Name = No_1098-gen_results/8p0m/2024-11-27-11-27-31/
REMARK  1 active torsions:
REMARK  status: ('A' for Active; 'I' for Inactive)
REMARK    1  A    between atoms: C_1  and  C_2
REMARK                            x       y       z     vdW  Elec       q    Type
REMARK                         _______ _______ _______ _____ _____    ______ ____
ROOT
ATOM      1  C   UNL A   1     -24.100  -1.392  28.964  0.00  0.00    +0.018 A 
ATOM      2  C   UNL A   1     -24.601  -0.468  27.936  0.00  0.00    +0.002 A 
ATOM      3  C   UNL A   1     -23.824   0.497  27.471  0.00  0.00    +0.000 A 
ATOM      4  C   UNL A   1     -22.570   0.821  28.162  0.00  0.00    +0.000 A 
ATOM      5  C   UNL A   1     -22.035  -0.068  29.040  0.00  0.00    +0.000 A 
ATOM      6  C   UNL A   1     -22.658  -1.238  29.223  0.00  0.00    +0.002 A 
ENDROOT
BRANCH   1   7
ATOM      7  C   UNL A   1     -24.469  -2.544  28.950  0.00  0.00    +0.081 A 
ATOM      8  N   UNL A   1     -23.717  -3.571  28.528  0.00  0.00    -0.244 NA
ATOM      9  C   UNL A   1     -24.054  -4.914  28.521  0.00  0.00    +0.099 A 
ATOM     10  C   UNL A   1     -25.199  -5.289  29.220  0.00  0.00    +0.021 A 
ATOM     11  C   UNL A   1     -25.747  -2.930  29.533  0.00  0.00    +0.019 A 
ATOM     12  C   UNL A   1     -26.098  -4.316  29.618  0.00  0.00    +0.003 A 
ENDBRANCH   1   7
TORSDOF 1
ENDMDL
ENDMDL
