REMARK  Name = outputs/IAG933/test6/raw/output_1099_IAG933_linker_design_.xyz
REMARK  15 active torsions:
REMARK  status: ('A' for Active; 'I' for Inactive)
REMARK    1  A    between atoms: C_1  and  C_2
REMARK    2  A    between atoms: C_1  and  C_8
REMARK    3  A    between atoms: C_1  and  C_41
REMARK    4  A    between atoms: C_13  and  O_35
REMARK    5  A    between atoms: C_14  and  C_15
REMARK    6  A    between atoms: C_21  and  O_22
REMARK    7  A    between atoms: O_22  and  C_23
REMARK    8  A    between atoms: C_23  and  C_24
REMARK    9  A    between atoms: O_28  and  C_39
REMARK   10  A    between atoms: C_29  and  C_42
REMARK   11  A    between atoms: C_30  and  O_35
REMARK   12  A    between atoms: C_30  and  C_42
REMARK   13  A    between atoms: C_33  and  O_37
REMARK   14  A    between atoms: N_40  and  C_41
REMARK   15  A    between atoms: C_41  and  C_42
REMARK                            x       y       z     vdW  Elec       q    Type
REMARK                         _______ _______ _______ _____ _____    ______ ____
ROOT
ATOM      1  C   UNL A   1     -23.635   0.424  28.358  0.00  0.00    +0.135 C 
ENDROOT
BRANCH   1   2
ATOM      2  C   UNL A   1     -22.411  -0.006  28.890  0.00  0.00    +0.163 C 
ATOM      3  C   UNL A   1     -20.584   1.550  27.494  0.00  0.00    +0.217 C 
ATOM      4  F   UNL A   1     -22.134  -0.833  29.717  0.00  0.00    -0.200 F 
ATOM      5  C   UNL A   1     -21.197   0.915  28.261  0.00  0.00    -0.036 C 
BRANCH   3   6
ATOM      6  O   UNL A   1     -20.707   2.337  26.313  0.00  0.00    -0.461 OA
ATOM      7  C   UNL A   1     -21.977   2.615  25.806  0.00  0.00    +0.253 C 
ENDBRANCH   3   6
ENDBRANCH   1   2
BRANCH   1   8
ATOM      8  C   UNL A   1     -23.612   1.395  27.183  0.00  0.00    +0.125 C 
ATOM      9  C   UNL A   1     -23.112   1.902  26.442  0.00  0.00    +0.036 C 
BRANCH   8  10
ATOM     10  O   UNL A   1     -24.359   1.640  26.811  0.00  0.00    -0.475 OA
BRANCH  10  11
ATOM     11  C   UNL A   1     -25.688   1.614  26.461  0.00  0.00    +0.235 C 
ATOM     12  C   UNL A   1     -26.250   2.920  26.395  0.00  0.00    +0.095 C 
ATOM     13  C   UNL A   1     -27.438   3.091  25.645  0.00  0.00    +0.106 C 
ATOM     14  N   UNL A   1     -28.075   2.089  25.003  0.00  0.00    -0.212 NA
ATOM     15  C   UNL A   1     -27.543   0.849  25.079  0.00  0.00    +0.238 C 
ATOM     16  C   UNL A   1     -26.354   0.576  25.777  0.00  0.00    +0.280 C 
ATOM     17  F   UNL A   1     -25.860  -0.681  25.795  0.00  0.00    -0.223 F 
BRANCH  12  18
ATOM     18  C   UNL A   1     -25.642   4.093  27.123  0.00  0.00    +0.266 C 
ATOM     19  N   UNL A   1     -25.614   5.252  26.449  0.00  0.00    -0.200 NA
ATOM     20  C   UNL A   1     -25.026   6.479  26.963  0.00  0.00    +0.139 C 
ATOM     21  O   UNL A   1     -25.143   3.966  28.243  0.00  0.00    -0.269 OA
ENDBRANCH  12  18
BRANCH  15  22
ATOM     22  O   UNL A   1     -28.193  -0.208  24.477  0.00  0.00    -0.458 OA
BRANCH  22  23
ATOM     23  C   UNL A   1     -29.460   0.005  23.866  0.00  0.00    +0.242 C 
BRANCH  23  24
ATOM     24  C   UNL A   1     -30.065  -1.377  23.573  0.00  0.00    +0.229 C 
ATOM     25  O   UNL A   1     -30.729  -1.878  24.721  0.00  0.00    -0.216 OA
ENDBRANCH  23  24
ENDBRANCH  22  23
ENDBRANCH  15  22
ENDBRANCH  10  11
ENDBRANCH   8  10
ENDBRANCH   1   8
BRANCH   1  26
ATOM     26  C   UNL A   1     -24.881   0.068  29.071  0.00  0.00    +0.118 C 
BRANCH  26  29
ATOM     27  O   UNL A   1     -27.570   1.403  29.833  0.00  0.00    -0.225 OA
ATOM     28  C   UNL A   1     -27.411   0.478  29.064  0.00  0.00    +0.421 C 
ATOM     29  N   UNL A   1     -26.166   0.202  28.480  0.00  0.00    -0.169 NA
BRANCH  28  30
ATOM     30  O   UNL A   1     -28.324  -0.336  28.567  0.00  0.00    -0.429 OA
ATOM     31  C   UNL A   1     -29.543   0.186  28.008  0.00  0.00    +0.257 C 
ENDBRANCH  28  30
ENDBRANCH  26  29
BRANCH  26  32
ATOM     32  C   UNL A   1     -24.855  -1.012  30.143  0.00  0.00    +0.059 C 
BRANCH  32  33
ATOM     33  C   UNL A   1     -24.973  -2.505  29.788  0.00  0.00    -0.019 C 
ATOM     34  C   UNL A   1     -23.906  -3.173  29.146  0.00  0.00    -0.004 C 
ATOM     35  C   UNL A   1     -23.989  -4.549  28.853  0.00  0.00    -0.000 C 
ATOM     36  C   UNL A   1     -25.137  -5.280  29.205  0.00  0.00    -0.000 C 
ATOM     37  C   UNL A   1     -26.232  -4.611  29.784  0.00  0.00    -0.000 C 
ATOM     38  C   UNL A   1     -26.155  -3.232  30.065  0.00  0.00    -0.004 C 
ENDBRANCH  32  33
BRANCH  32  39
ATOM     39  C   UNL A   1     -25.387  -0.679  31.571  0.00  0.00    +0.079 C 
ATOM     40  C   UNL A   1     -25.189   0.773  32.028  0.00  0.00    +0.019 C 
ATOM     41  C   UNL A   1     -25.336   0.684  33.544  0.00  0.00    +0.020 C 
ATOM     42  C   UNL A   1     -24.829  -0.715  33.905  0.00  0.00    +0.089 C 
ATOM     43  N   UNL A   1     -24.758  -1.481  32.646  0.00  0.00    -0.219 NA
ENDBRANCH  32  39
ENDBRANCH  26  32
ENDBRANCH   1  26
TORSDOF 15
