MODEL 1099
MODEL 1
REMARK VINA RESULT:    -5.226      0.000      0.000
REMARK INTER + INTRA:         -10.433
REMARK INTER:                  -7.365
REMARK INTRA:                  -3.068
REMARK UNBOUND:                -3.068
REMARK  Name = No_1099-gen_results/8p0m/2024-11-27-11-27-31/
REMARK  7 active torsions:
REMARK  status: ('A' for Active; 'I' for Inactive)
REMARK    1  A    between atoms: C_3  and  C_8
REMARK    2  A    between atoms: C_6  and  O_7
REMARK    3  A    between atoms: O_7  and  C_14
REMARK    4  A    between atoms: C_14  and  C_15
REMARK    5  A    between atoms: N_17  and  C_18
REMARK    6  A    between atoms: C_19  and  C_20
REMARK    7  A    between atoms: C_21  and  C_22
REMARK                            x       y       z     vdW  Elec       q    Type
REMARK                         _______ _______ _______ _____ _____    ______ ____
ROOT
ATOM      1  C   UNL A   1      -7.079   0.613   8.522  0.00  0.00    +0.037 A 
ATOM      2  C   UNL A   1      -7.866   1.383   9.021  0.00  0.00    +0.003 A 
ATOM      3  C   UNL A   1      -8.325   1.199  10.321  0.00  0.00    +0.000 A 
ATOM      4  C   UNL A   1      -7.912   0.059  11.098  0.00  0.00    +0.003 A 
ATOM      5  C   UNL A   1      -7.018  -0.793  10.436  0.00  0.00    +0.037 A 
ATOM      6  C   UNL A   1      -6.628  -0.583   9.199  0.00  0.00    +0.139 A 
ENDROOT
BRANCH   3   7
ATOM      7  C   UNL A   1      -9.296   2.092  11.055  0.00  0.00    +0.000 A 
ATOM      8  C   UNL A   1      -9.806   1.850  12.211  0.00  0.00    +0.000 A 
ATOM      9  C   UNL A   1     -10.667   2.814  12.875  0.00  0.00    +0.000 A 
ATOM     10  C   UNL A   1     -10.718   4.124  12.373  0.00  0.00    +0.000 A 
ATOM     11  C   UNL A   1      -9.375   3.473  10.594  0.00  0.00    +0.000 A 
ATOM     12  C   UNL A   1     -10.107   4.416  11.250  0.00  0.00    +0.000 A 
ENDBRANCH   3   7
BRANCH   6  13
ATOM     13  O   UNL A   1      -5.788  -1.481   8.615  0.00  0.00    -0.466 OA
BRANCH  13  14
ATOM     14  C   UNL A   1      -4.616  -1.101   8.074  0.00  0.00    +0.291 C 
BRANCH  14  15
ATOM     15  C   UNL A   1      -3.614  -1.313   8.871  0.00  0.00    +0.290 C 
ATOM     16  O   UNL A   1      -3.190  -2.385   9.083  0.00  0.00    -0.269 OA
ATOM     17  N   UNL A   1      -3.026  -0.265   9.588  0.00  0.00    -0.175 NA
BRANCH  17  18
ATOM     18  C   UNL A   1      -3.451   1.129   9.402  0.00  0.00    +0.089 C 
ATOM     19  C   UNL A   1      -4.040   1.695  10.313  0.00  0.00    +0.018 C 
BRANCH  19  20
ATOM     20  C   UNL A   1      -4.638   3.026  10.092  0.00  0.00    +0.001 C 
ATOM     21  C   UNL A   1      -5.507   3.677  10.993  0.00  0.00    +0.000 C 
BRANCH  21  22
ATOM     22  C   UNL A   1      -5.810   2.975  12.177  0.00  0.00    +0.000 C 
ATOM     23  C   UNL A   1      -6.585   3.539  13.162  0.00  0.00    +0.000 C 
ENDBRANCH  21  22
ENDBRANCH  19  20
ENDBRANCH  17  18
ENDBRANCH  14  15
ENDBRANCH  13  14
ENDBRANCH   6  13
TORSDOF 7
ENDMDL
ENDMDL
