MODEL 109
MODEL 1
REMARK VINA RESULT:    -5.387      0.000      0.000
REMARK INTER + INTRA:          -6.223
REMARK INTER:                  -6.016
REMARK INTRA:                  -0.206
REMARK UNBOUND:                -0.206
REMARK  Name = No_109-gen_results/8p0m/2024-11-27-11-27-31/
REMARK  2 active torsions:
REMARK  status: ('A' for Active; 'I' for Inactive)
REMARK    1  A    between atoms: C_7  and  O_10
REMARK    2  A    between atoms: O_10  and  C_11
REMARK                            x       y       z     vdW  Elec       q    Type
REMARK                         _______ _______ _______ _____ _____    ______ ____
ROOT
ATOM      1  C   UNL A   1     -22.521   0.240  28.209  0.00  0.00    +0.202 A 
ATOM      2  C   UNL A   1     -22.708   1.198  27.811  0.00  0.00    +0.171 A 
ATOM      3  F   UNL A   1     -21.809   0.382  29.212  0.00  0.00    -0.199 F 
ATOM      4  C   UNL A   1     -23.655   1.312  26.614  0.00  0.00    +0.044 A 
ATOM      5  C   UNL A   1     -24.681   0.402  26.483  0.00  0.00    +0.063 A 
ATOM      6  C   UNL A   1     -24.813  -0.524  27.507  0.00  0.00    +0.051 A 
ATOM      7  C   UNL A   1     -23.860  -0.537  28.525  0.00  0.00    +0.176 A 
ATOM      8 CL   UNL A   1     -25.936   0.518  25.390  0.00  0.00    -0.082 Cl
ATOM      9  F   UNL A   1     -21.749   2.215  27.500  0.00  0.00    -0.202 F 
ENDROOT
BRANCH   7  10
ATOM     10  O   UNL A   1     -23.956  -1.500  29.500  0.00  0.00    -0.448 OA
BRANCH  10  11
ATOM     11  C   UNL A   1     -23.872  -2.888  28.906  0.00  0.00    +0.175 C 
ATOM     12  C   UNL A   1     -24.818  -3.861  29.218  0.00  0.00    +0.015 C 
ATOM     13  C   UNL A   1     -24.563  -5.139  28.866  0.00  0.00    +0.034 C 
ENDBRANCH  10  11
ENDBRANCH   7  10
TORSDOF 2
ENDMDL
ENDMDL
