REMARK  Name = outputs/IAG933/test6/raw/output_1100_IAG933_linker_design_.xyz
REMARK  10 active torsions:
REMARK  status: ('A' for Active; 'I' for Inactive)
REMARK    1  A    between atoms: C_1  and  C_2
REMARK    2  A    between atoms: C_1  and  C_8
REMARK    3  A    between atoms: C_1  and  N_32
REMARK    4  A    between atoms: C_13  and  N_33
REMARK    5  A    between atoms: C_14  and  C_15
REMARK    6  A    between atoms: C_21  and  O_22
REMARK    7  A    between atoms: O_22  and  C_23
REMARK    8  A    between atoms: C_23  and  C_24
REMARK    9  A    between atoms: C_28  and  C_31
REMARK   10  A    between atoms: N_33  and  C_36
REMARK                            x       y       z     vdW  Elec       q    Type
REMARK                         _______ _______ _______ _____ _____    ______ ____
ROOT
ATOM      1  N   UNL A   1     -25.894   2.061  29.533  0.00  0.00    +0.129 NA
ATOM      2  N   UNL A   1     -25.679  -0.231  29.137  0.00  0.00    -0.089 NA
ATOM      3  N   UNL A   1     -24.937   1.312  27.577  0.00  0.00    -0.205 N 
ATOM      4  C   UNL A   1     -25.612   1.054  28.779  0.00  0.00    +0.468 C 
ENDROOT
BRANCH   3   5
ATOM      5  C   UNL A   1     -25.688   1.614  26.461  0.00  0.00    +0.217 C 
ATOM      6  C   UNL A   1     -26.250   2.920  26.395  0.00  0.00    +0.091 C 
ATOM      7  C   UNL A   1     -27.438   3.091  25.645  0.00  0.00    +0.105 C 
ATOM      8  N   UNL A   1     -28.075   2.089  25.003  0.00  0.00    -0.212 NA
ATOM      9  C   UNL A   1     -27.543   0.849  25.079  0.00  0.00    +0.238 C 
ATOM     10  C   UNL A   1     -26.354   0.576  25.777  0.00  0.00    +0.276 C 
ATOM     11  F   UNL A   1     -25.860  -0.681  25.795  0.00  0.00    -0.223 F 
BRANCH   6  12
ATOM     12  C   UNL A   1     -25.642   4.093  27.123  0.00  0.00    +0.266 C 
ATOM     13  N   UNL A   1     -25.614   5.252  26.449  0.00  0.00    -0.200 NA
ATOM     14  C   UNL A   1     -25.026   6.479  26.963  0.00  0.00    +0.139 C 
ATOM     15  O   UNL A   1     -25.143   3.966  28.243  0.00  0.00    -0.269 OA
ENDBRANCH   6  12
BRANCH   9  16
ATOM     16  O   UNL A   1     -28.193  -0.208  24.477  0.00  0.00    -0.458 OA
BRANCH  16  17
ATOM     17  C   UNL A   1     -29.460   0.005  23.866  0.00  0.00    +0.242 C 
BRANCH  17  18
ATOM     18  C   UNL A   1     -30.065  -1.377  23.573  0.00  0.00    +0.229 C 
ATOM     19  O   UNL A   1     -30.729  -1.878  24.721  0.00  0.00    -0.216 OA
ENDBRANCH  17  18
ENDBRANCH  16  17
ENDBRANCH   9  16
ENDBRANCH   3   5
BRANCH   3  23
ATOM     20  O   UNL A   1     -22.831   0.763  30.665  0.00  0.00    -0.244 OA
ATOM     21  C   UNL A   1     -22.612   1.733  26.999  0.00  0.00    +0.136 C 
ATOM     22  C   UNL A   1     -23.469   0.805  28.689  0.00  0.00    +0.116 C 
ATOM     23  C   UNL A   1     -23.724   1.267  27.718  0.00  0.00    +0.136 C 
ATOM     24  C   UNL A   1     -21.399   1.499  27.644  0.00  0.00    +0.192 C 
ATOM     25  C   UNL A   1     -22.501   0.709  29.440  0.00  0.00    +0.349 C 
ATOM     26  O   UNL A   1     -21.332   1.002  28.857  0.00  0.00    -0.417 OA
BRANCH  21  27
ATOM     27  C   UNL A   1     -22.583   2.382  25.760  0.00  0.00    +0.339 C 
ATOM     28  F   UNL A   1     -21.487   2.320  25.036  0.00  0.00    -0.158 F 
ATOM     29  O   UNL A   1     -23.543   2.896  25.187  0.00  0.00    -0.254 OA
ENDBRANCH  21  27
ENDBRANCH   3  23
BRANCH   2  30
ATOM     30  C   UNL A   1     -24.855  -1.012  30.143  0.00  0.00    +0.219 C 
BRANCH  30  31
ATOM     31  C   UNL A   1     -24.973  -2.505  29.788  0.00  0.00    +0.018 C 
ATOM     32  C   UNL A   1     -23.906  -3.173  29.146  0.00  0.00    -0.001 C 
ATOM     33  C   UNL A   1     -23.989  -4.549  28.853  0.00  0.00    -0.000 C 
ATOM     34  C   UNL A   1     -25.137  -5.280  29.205  0.00  0.00    -0.000 C 
ATOM     35  C   UNL A   1     -26.232  -4.611  29.784  0.00  0.00    -0.000 C 
ATOM     36  C   UNL A   1     -26.155  -3.232  30.065  0.00  0.00    -0.001 C 
ENDBRANCH  30  31
BRANCH  30  37
ATOM     37  C   UNL A   1     -25.387  -0.679  31.571  0.00  0.00    +0.117 C 
ATOM     38  C   UNL A   1     -25.189   0.773  32.028  0.00  0.00    +0.023 C 
ATOM     39  C   UNL A   1     -25.336   0.684  33.544  0.00  0.00    +0.020 C 
ATOM     40  C   UNL A   1     -24.829  -0.715  33.905  0.00  0.00    +0.089 C 
ATOM     41  N   UNL A   1     -24.758  -1.481  32.646  0.00  0.00    -0.216 NA
ENDBRANCH  30  37
ENDBRANCH   2  30
TORSDOF 10
