MODEL 1100
MODEL 1
REMARK VINA RESULT:    -4.969      0.000      0.000
REMARK INTER + INTRA:          -8.114
REMARK INTER:                  -7.003
REMARK INTRA:                  -1.111
REMARK UNBOUND:                -1.111
REMARK  Name = No_1100-gen_results/8p0m/2024-11-27-11-27-31/
REMARK  7 active torsions:
REMARK  status: ('A' for Active; 'I' for Inactive)
REMARK    1  A    between atoms: C_2  and  N_7
REMARK    2  A    between atoms: N_7  and  C_8
REMARK    3  A    between atoms: C_9  and  C_10
REMARK    4  A    between atoms: C_10  and  C_11
REMARK    5  A    between atoms: C_11  and  C_12
REMARK    6  A    between atoms: C_12  and  N_13
REMARK    7  A    between atoms: N_13  and  C_14
REMARK                            x       y       z     vdW  Elec       q    Type
REMARK                         _______ _______ _______ _____ _____    ______ ____
ROOT
ATOM      1  C   UNL A   1     -22.176   0.064  29.073  0.00  0.00    +0.046 C 
ATOM      2  C   UNL A   1     -22.787   0.996  28.647  0.00  0.00    -0.014 C 
ATOM      3  C   UNL A   1     -20.810  -0.202  28.552  0.00  0.00    +0.049 C 
ENDROOT
BRANCH   1   4
ATOM      4  N   UNL A   1     -22.586  -0.738  30.025  0.00  0.00    -0.199 NA
BRANCH   4   6
ATOM      5  C   UNL A   1     -23.598  -2.553  29.004  0.00  0.00    +0.036 A 
ATOM      6  C   UNL A   1     -23.632  -1.672  29.832  0.00  0.00    +0.151 A 
ATOM      7  N   UNL A   1     -24.704  -1.385  30.584  0.00  0.00    -0.227 NA
ATOM      8  C   UNL A   1     -25.780  -2.191  30.528  0.00  0.00    +0.100 A 
ATOM      9  C   UNL A   1     -25.815  -3.205  29.564  0.00  0.00    +0.021 A 
ATOM     10  C   UNL A   1     -24.730  -3.382  28.817  0.00  0.00    +0.004 A 
ENDBRANCH   4   6
ENDBRANCH   1   4
BRANCH   2  11
ATOM     11  C   UNL A   1     -22.304   1.864  27.551  0.00  0.00    +0.029 C 
BRANCH  11  12
ATOM     12  C   UNL A   1     -23.132   2.290  26.552  0.00  0.00    +0.028 C 
BRANCH  12  13
ATOM     13  C   UNL A   1     -23.702   1.664  25.594  0.00  0.00    +0.113 C 
BRANCH  13  14
ATOM     14  N   UNL A   1     -24.911   1.324  25.706  0.00  0.00    -0.236 NA
BRANCH  14  15
ATOM     15  C   UNL A   1     -25.270   0.150  26.025  0.00  0.00    +0.080 C 
ATOM     16  C   UNL A   1     -25.967  -0.166  27.267  0.00  0.00    +0.019 C 
ENDBRANCH  14  15
ENDBRANCH  13  14
ENDBRANCH  12  13
ENDBRANCH  11  12
ENDBRANCH   2  11
TORSDOF 7
ENDMDL
ENDMDL
