REMARK  Name = outputs/IAG933/test6/raw/output_1101_IAG933_linker_design_.xyz
REMARK  13 active torsions:
REMARK  status: ('A' for Active; 'I' for Inactive)
REMARK    1  A    between atoms: C_1  and  C_2
REMARK    2  A    between atoms: C_1  and  C_8
REMARK    3  A    between atoms: C_9  and  N_34
REMARK    4  A    between atoms: C_13  and  C_43
REMARK    5  A    between atoms: C_14  and  C_15
REMARK    6  A    between atoms: C_21  and  O_22
REMARK    7  A    between atoms: O_22  and  C_23
REMARK    8  A    between atoms: C_23  and  C_24
REMARK    9  A    between atoms: C_30  and  C_31
REMARK   10  A    between atoms: C_30  and  C_43
REMARK   11  A    between atoms: N_34  and  C_41
REMARK   12  A    between atoms: C_35  and  C_39
REMARK   13  A    between atoms: C_37  and  C_43
REMARK                            x       y       z     vdW  Elec       q    Type
REMARK                         _______ _______ _______ _____ _____    ______ ____
ROOT
ATOM      1  N   UNL A   1     -25.244   1.887  31.026  0.00  0.00    -0.255 N 
ATOM      2  C   UNL A   1     -24.780   2.969  31.599  0.00  0.00    +0.253 C 
ATOM      3  O   UNL A   1     -23.455   2.877  31.798  0.00  0.00    -0.270 OA
ENDROOT
BRANCH   2   8
ATOM      4  C   UNL A   1     -25.698   5.876  33.889  0.00  0.00    +0.030 C 
ATOM      5  C   UNL A   1     -26.974   4.169  32.057  0.00  0.00    +0.007 C 
ATOM      6  C   UNL A   1     -24.992   4.922  33.161  0.00  0.00    +0.007 C 
ATOM      7  C   UNL A   1     -27.690   5.120  32.797  0.00  0.00    +0.030 C 
ATOM      8  C   UNL A   1     -25.579   4.015  32.240  0.00  0.00    +0.054 C 
ATOM      9  C   UNL A   1     -27.082   5.849  33.835  0.00  0.00    +0.140 C 
ATOM     10  F   UNL A   1     -27.770   6.393  34.771  0.00  0.00    -0.204 F 
ENDBRANCH   2   8
BRANCH   1  12
ATOM     11  C   UNL A   1     -25.387  -0.679  31.571  0.00  0.00    +0.096 C 
ATOM     12  C   UNL A   1     -25.189   0.773  32.028  0.00  0.00    +0.098 C 
ATOM     13  C   UNL A   1     -25.336   0.684  33.544  0.00  0.00    +0.040 C 
ATOM     14  C   UNL A   1     -24.829  -0.715  33.905  0.00  0.00    +0.090 C 
ATOM     15  N   UNL A   1     -24.758  -1.481  32.646  0.00  0.00    -0.217 NA
BRANCH  11  16
ATOM     16  C   UNL A   1     -24.855  -1.012  30.143  0.00  0.00    +0.045 C 
BRANCH  16  17
ATOM     17  C   UNL A   1     -24.973  -2.505  29.788  0.00  0.00    -0.021 C 
ATOM     18  C   UNL A   1     -23.906  -3.173  29.146  0.00  0.00    -0.004 C 
ATOM     19  C   UNL A   1     -23.989  -4.549  28.853  0.00  0.00    -0.000 C 
ATOM     20  C   UNL A   1     -25.137  -5.280  29.205  0.00  0.00    -0.000 C 
ATOM     21  C   UNL A   1     -26.232  -4.611  29.784  0.00  0.00    -0.000 C 
ATOM     22  C   UNL A   1     -26.155  -3.232  30.065  0.00  0.00    -0.004 C 
ENDBRANCH  16  17
ENDBRANCH  11  16
ENDBRANCH   1  12
BRANCH   1  24
ATOM     23  C   UNL A   1     -24.340   1.625  28.587  0.00  0.00    -0.006 C 
ATOM     24  C   UNL A   1     -25.547   1.450  29.646  0.00  0.00    +0.064 C 
BRANCH  23  25
ATOM     25  C   UNL A   1     -24.373   1.264  27.029  0.00  0.00    +0.048 C 
BRANCH  25  26
ATOM     26  C   UNL A   1     -25.688   1.614  26.461  0.00  0.00    +0.020 C 
ATOM     27  C   UNL A   1     -26.250   2.920  26.395  0.00  0.00    +0.073 C 
ATOM     28  C   UNL A   1     -27.438   3.091  25.645  0.00  0.00    +0.106 C 
ATOM     29  N   UNL A   1     -28.075   2.089  25.003  0.00  0.00    -0.208 NA
ATOM     30  C   UNL A   1     -27.543   0.849  25.079  0.00  0.00    +0.253 C 
ATOM     31  C   UNL A   1     -26.354   0.576  25.777  0.00  0.00    +0.189 C 
ATOM     32  F   UNL A   1     -25.860  -0.681  25.795  0.00  0.00    -0.200 F 
BRANCH  27  33
ATOM     33  C   UNL A   1     -25.642   4.093  27.123  0.00  0.00    +0.266 C 
ATOM     34  N   UNL A   1     -25.614   5.252  26.449  0.00  0.00    -0.200 NA
ATOM     35  C   UNL A   1     -25.026   6.479  26.963  0.00  0.00    +0.139 C 
ATOM     36  O   UNL A   1     -25.143   3.966  28.243  0.00  0.00    -0.268 OA
ENDBRANCH  27  33
BRANCH  30  37
ATOM     37  O   UNL A   1     -28.193  -0.208  24.477  0.00  0.00    -0.456 OA
BRANCH  37  38
ATOM     38  C   UNL A   1     -29.460   0.005  23.866  0.00  0.00    +0.243 C 
BRANCH  38  39
ATOM     39  C   UNL A   1     -30.065  -1.377  23.573  0.00  0.00    +0.229 C 
ATOM     40  O   UNL A   1     -30.729  -1.878  24.721  0.00  0.00    -0.216 OA
ENDBRANCH  38  39
ENDBRANCH  37  38
ENDBRANCH  30  37
ENDBRANCH  25  26
BRANCH  25  41
ATOM     41  C   UNL A   1     -23.207   1.865  26.110  0.00  0.00    +0.009 C 
BRANCH  41  42
ATOM     42  C   UNL A   1     -21.852   2.116  26.652  0.00  0.00    +0.001 C 
ATOM     43  C   UNL A   1     -21.317   1.107  27.686  0.00  0.00    +0.000 C 
ENDBRANCH  41  42
ENDBRANCH  25  41
ENDBRANCH  23  25
ENDBRANCH   1  24
TORSDOF 13
