MODEL 1101
MODEL 1
REMARK VINA RESULT:    -6.943      0.000      0.000
REMARK INTER + INTRA:          -9.264
REMARK INTER:                  -8.567
REMARK INTRA:                  -0.697
REMARK UNBOUND:                -0.697
REMARK  Name = No_1101-gen_results/8p0m/2024-11-27-11-27-31/
REMARK  4 active torsions:
REMARK  status: ('A' for Active; 'I' for Inactive)
REMARK    1  A    between atoms: C_3  and  C_7
REMARK    2  A    between atoms: C_7  and  C_8
REMARK    3  A    between atoms: C_9  and  C_10
REMARK    4  A    between atoms: C_11  and  C_12
REMARK                            x       y       z     vdW  Elec       q    Type
REMARK                         _______ _______ _______ _____ _____    ______ ____
ROOT
ATOM      1  C   UNL A   1     -23.743  -1.323  29.902  0.00  0.00    +0.072 C 
ATOM      2  C   UNL A   1     -24.057  -0.679  31.190  0.00  0.00    +0.012 C 
ENDROOT
BRANCH   1   5
ATOM      3  C   UNL A   1     -24.309  -4.710  28.606  0.00  0.00    -0.000 A 
ATOM      4  C   UNL A   1     -23.782  -3.674  28.937  0.00  0.00    -0.004 A 
ATOM      5  C   UNL A   1     -24.401  -2.651  29.636  0.00  0.00    -0.016 A 
ATOM      6  C   UNL A   1     -25.760  -2.857  30.017  0.00  0.00    -0.004 A 
ATOM      7  C   UNL A   1     -26.272  -4.075  29.778  0.00  0.00    -0.000 A 
ATOM      8  C   UNL A   1     -25.597  -4.995  29.151  0.00  0.00    -0.000 A 
ENDBRANCH   1   5
BRANCH   1   9
ATOM      9  C   UNL A   1     -22.962  -0.733  28.980  0.00  0.00    +0.121 C 
ATOM     10  C   UNL A   1     -23.123   0.298  28.274  0.00  0.00    +0.025 C 
ATOM     11  F   UNL A   1     -21.634  -1.097  28.964  0.00  0.00    -0.208 F 
BRANCH  10  12
ATOM     12  C   UNL A   1     -23.344   0.807  27.421  0.00  0.00    +0.003 C 
ATOM     13  C   UNL A   1     -23.277   1.765  26.396  0.00  0.00    +0.045 C 
BRANCH  13  14
ATOM     14  C   UNL A   1     -23.429   2.606  25.501  0.00  0.00    +0.341 C 
ATOM     15  F   UNL A   1     -23.824   3.702  25.707  0.00  0.00    -0.193 F 
ATOM     16  F   UNL A   1     -22.281   2.576  24.668  0.00  0.00    -0.193 F 
ENDBRANCH  13  14
ENDBRANCH  10  12
ENDBRANCH   1   9
TORSDOF 4
ENDMDL
ENDMDL
