MODEL 1102
MODEL 1
REMARK VINA RESULT:    -4.396      0.000      0.000
REMARK INTER + INTRA:          -4.396
REMARK INTER:                  -4.396
REMARK INTRA:                   0.000
REMARK UNBOUND:                 0.000
REMARK  Name = No_1102-gen_results/8p0m/2024-11-27-11-27-31/
REMARK  0 active torsions:
REMARK  status: ('A' for Active; 'I' for Inactive)
REMARK                            x       y       z     vdW  Elec       q    Type
REMARK                         _______ _______ _______ _____ _____    ______ ____
ROOT
ATOM      1  C   UNL A   1     -25.390  -2.598  29.660  0.00  0.00    +0.011 A 
ATOM      2  C   UNL A   1     -24.311  -2.868  29.186  0.00  0.00    +0.058 A 
ATOM      3  C   UNL A   1     -24.003  -4.166  28.793  0.00  0.00    +0.011 A 
ATOM      4  C   UNL A   1     -24.945  -5.239  28.982  0.00  0.00    +0.001 A 
ATOM      5  C   UNL A   1     -26.158  -4.843  29.559  0.00  0.00    +0.000 A 
ATOM      6  C   UNL A   1     -26.393  -3.605  29.928  0.00  0.00    +0.001 A 
ATOM      7 CL   UNL A   1     -23.057  -1.728  28.935  0.00  0.00    -0.082 Cl
ENDROOT
TORSDOF 0
ENDMDL
ENDMDL
