REMARK  Name = outputs/IAG933/test6/raw/output_1103_IAG933_linker_design_.xyz
REMARK  13 active torsions:
REMARK  status: ('A' for Active; 'I' for Inactive)
REMARK    1  A    between atoms: C_1  and  C_2
REMARK    2  A    between atoms: C_1  and  C_8
REMARK    3  A    between atoms: C_9  and  C_42
REMARK    4  A    between atoms: C_14  and  C_15
REMARK    5  A    between atoms: C_15  and  O_18
REMARK    6  A    between atoms: O_18  and  C_35
REMARK    7  A    between atoms: C_21  and  O_22
REMARK    8  A    between atoms: O_22  and  C_23
REMARK    9  A    between atoms: C_23  and  C_24
REMARK   10  A    between atoms: N_29  and  C_35
REMARK   11  A    between atoms: C_30  and  O_31
REMARK   12  A    between atoms: N_41  and  C_42
REMARK   13  A    between atoms: N_41  and  C_46
REMARK                            x       y       z     vdW  Elec       q    Type
REMARK                         _______ _______ _______ _____ _____    ______ ____
ROOT
ATOM      1  C   UNL A   1     -25.569   2.611  30.158  0.00  0.00    -0.037 C 
ATOM      2  C   UNL A   1     -24.698   3.077  28.838  0.00  0.00    +0.245 C 
ATOM      3  C   UNL A   1     -25.997   1.927  31.349  0.00  0.00    +0.085 C 
ENDROOT
BRANCH   2   5
ATOM      4  C   UNL A   1     -23.108   1.553  29.759  0.00  0.00    +0.105 C 
ATOM      5  N   UNL A   1     -23.854   1.984  28.451  0.00  0.00    -0.221 N 
ATOM      6  C   UNL A   1     -22.165   0.509  29.201  0.00  0.00    +0.067 C 
ATOM      7  C   UNL A   1     -23.102   1.859  27.371  0.00  0.00    +0.265 C 
ATOM      8  O   UNL A   1     -23.225   2.333  26.278  0.00  0.00    -0.272 OA
ATOM      9  F   UNL A   1     -20.783   1.533  27.428  0.00  0.00    -0.227 F 
ATOM     10  C   UNL A   1     -21.974   0.956  27.717  0.00  0.00    +0.239 C 
ENDBRANCH   2   5
BRANCH   3  12
ATOM     11  C   UNL A   1     -25.387  -0.679  31.571  0.00  0.00    +0.083 C 
ATOM     12  C   UNL A   1     -25.189   0.773  32.028  0.00  0.00    +0.063 C 
ATOM     13  C   UNL A   1     -25.336   0.684  33.544  0.00  0.00    +0.026 C 
ATOM     14  C   UNL A   1     -24.829  -0.715  33.905  0.00  0.00    +0.089 C 
ATOM     15  N   UNL A   1     -24.758  -1.481  32.646  0.00  0.00    -0.219 NA
BRANCH  11  16
ATOM     16  C   UNL A   1     -24.855  -1.012  30.143  0.00  0.00    +0.044 C 
BRANCH  16  17
ATOM     17  C   UNL A   1     -24.973  -2.505  29.788  0.00  0.00    -0.021 C 
ATOM     18  C   UNL A   1     -23.906  -3.173  29.146  0.00  0.00    -0.004 C 
ATOM     19  C   UNL A   1     -23.989  -4.549  28.853  0.00  0.00    -0.000 C 
ATOM     20  C   UNL A   1     -25.137  -5.280  29.205  0.00  0.00    -0.000 C 
ATOM     21  C   UNL A   1     -26.232  -4.611  29.784  0.00  0.00    -0.000 C 
ATOM     22  C   UNL A   1     -26.155  -3.232  30.065  0.00  0.00    -0.004 C 
ENDBRANCH  16  17
ENDBRANCH  11  16
ENDBRANCH   3  12
BRANCH   2  23
ATOM     23  O   UNL A   1     -25.143   3.966  28.243  0.00  0.00    -0.416 OA
BRANCH  23  24
ATOM     24  C   UNL A   1     -25.642   4.093  27.123  0.00  0.00    +0.229 C 
ATOM     25  N   UNL A   1     -25.614   5.252  26.449  0.00  0.00    -0.235 NA
ATOM     26  C   UNL A   1     -25.026   6.479  26.963  0.00  0.00    +0.155 C 
BRANCH  24  28
ATOM     27  C   UNL A   1     -25.688   1.614  26.461  0.00  0.00    +0.041 C 
ATOM     28  C   UNL A   1     -26.250   2.920  26.395  0.00  0.00    +0.075 C 
ATOM     29  C   UNL A   1     -27.438   3.091  25.645  0.00  0.00    +0.107 C 
ATOM     30  N   UNL A   1     -28.075   2.089  25.003  0.00  0.00    -0.208 NA
ATOM     31  C   UNL A   1     -27.543   0.849  25.079  0.00  0.00    +0.253 C 
ATOM     32  C   UNL A   1     -26.354   0.576  25.777  0.00  0.00    +0.193 C 
ATOM     33  F   UNL A   1     -25.860  -0.681  25.795  0.00  0.00    -0.199 F 
BRANCH  31  34
ATOM     34  O   UNL A   1     -28.193  -0.208  24.477  0.00  0.00    -0.456 OA
BRANCH  34  35
ATOM     35  C   UNL A   1     -29.460   0.005  23.866  0.00  0.00    +0.243 C 
BRANCH  35  36
ATOM     36  C   UNL A   1     -30.065  -1.377  23.573  0.00  0.00    +0.229 C 
ATOM     37  O   UNL A   1     -30.729  -1.878  24.721  0.00  0.00    -0.216 OA
ENDBRANCH  35  36
ENDBRANCH  34  35
ENDBRANCH  31  34
ENDBRANCH  24  28
ENDBRANCH  23  24
ENDBRANCH   2  23
BRANCH   3  38
ATOM     38  N   UNL A   1     -27.213   2.749  32.138  0.00  0.00    -0.206 NA
BRANCH  38  46
ATOM     39  C   UNL A   1     -27.116   5.316  31.266  0.00  0.00    +0.162 C 
ATOM     40  C   UNL A   1     -24.953   6.050  33.325  0.00  0.00    +0.000 C 
ATOM     41  C   UNL A   1     -24.608   6.311  31.869  0.00  0.00    +0.003 C 
ATOM     42  C   UNL A   1     -28.308   5.072  34.800  0.00  0.00    +0.004 C 
ATOM     43  C   UNL A   1     -25.664   5.764  30.910  0.00  0.00    +0.034 C 
ATOM     44  C   UNL A   1     -25.768   5.075  33.962  0.00  0.00    +0.004 C 
ATOM     45  O   UNL A   1     -29.115   4.000  32.275  0.00  0.00    -0.201 OA
ATOM     46  C   UNL A   1     -27.463   4.165  32.277  0.00  0.00    +0.226 C 
ATOM     47  C   UNL A   1     -27.274   4.764  33.680  0.00  0.00    +0.050 C 
BRANCH  39  48
ATOM     48  O   UNL A   1     -28.035   6.569  31.109  0.00  0.00    -0.349 OA
ATOM     49  C   UNL A   1     -27.616   7.882  30.374  0.00  0.00    +0.174 C 
ENDBRANCH  39  48
ENDBRANCH  38  46
ENDBRANCH   3  38
TORSDOF 13
