MODEL 1103
MODEL 1
REMARK VINA RESULT:    -6.828      0.000      0.000
REMARK INTER + INTRA:         -10.442
REMARK INTER:                  -9.223
REMARK INTRA:                  -1.220
REMARK UNBOUND:                -1.220
REMARK  Name = No_1103-gen_results/8p0m/2024-11-27-11-27-31/
REMARK  6 active torsions:
REMARK  status: ('A' for Active; 'I' for Inactive)
REMARK    1  A    between atoms: C_2  and  C_7
REMARK    2  A    between atoms: C_6  and  O_14
REMARK    3  A    between atoms: C_7  and  C_8
REMARK    4  A    between atoms: O_14  and  C_15
REMARK    5  A    between atoms: C_15  and  C_17
REMARK    6  A    between atoms: C_16  and  C_19
REMARK                            x       y       z     vdW  Elec       q    Type
REMARK                         _______ _______ _______ _____ _____    ______ ____
ROOT
ATOM      1  C   UNL A   1     -27.671   0.845  26.067  0.00  0.00    -0.001 A 
ATOM      2  C   UNL A   1     -27.173   0.670  24.979  0.00  0.00    -0.018 A 
ATOM      3  C   UNL A   1     -25.959   0.095  24.785  0.00  0.00    -0.001 A 
ATOM      4  C   UNL A   1     -25.230  -0.324  25.914  0.00  0.00    +0.037 A 
ATOM      5  C   UNL A   1     -27.025   0.356  27.258  0.00  0.00    +0.037 A 
ATOM      6  C   UNL A   1     -25.790  -0.203  27.119  0.00  0.00    +0.145 A 
ENDROOT
BRANCH   2   7
ATOM      7  C   UNL A   1     -27.871   1.060  23.683  0.00  0.00    +0.053 C 
BRANCH   7   8
ATOM      8  C   UNL A   1     -29.234   0.440  23.502  0.00  0.00    -0.018 A 
ATOM      9  C   UNL A   1     -30.374   1.168  23.235  0.00  0.00    -0.004 A 
ATOM     10  C   UNL A   1     -31.616   0.501  23.142  0.00  0.00    -0.000 A 
ATOM     11  C   UNL A   1     -29.348  -0.971  23.612  0.00  0.00    -0.004 A 
ATOM     12  C   UNL A   1     -30.603  -1.569  23.603  0.00  0.00    -0.000 A 
ATOM     13  C   UNL A   1     -31.726  -0.813  23.298  0.00  0.00    -0.000 A 
ENDBRANCH   7   8
ENDBRANCH   2   7
BRANCH   6  14
ATOM     14  O   UNL A   1     -25.147  -0.613  28.299  0.00  0.00    -0.454 OA
BRANCH  14  15
ATOM     15  C   UNL A   1     -24.632  -1.536  28.560  0.00  0.00    +0.145 C 
ATOM     16  C   UNL A   1     -24.947  -2.684  28.753  0.00  0.00    +0.037 C 
BRANCH  15  17
ATOM     17  C   UNL A   1     -23.137  -1.290  28.900  0.00  0.00    +0.033 C 
ATOM     18  C   UNL A   1     -22.491  -0.134  28.549  0.00  0.00    -0.023 C 
ATOM     19  C   UNL A   1     -21.091  -0.187  28.872  0.00  0.00    +0.031 C 
ENDBRANCH  15  17
BRANCH  16  20
ATOM     20  C   UNL A   1     -24.212  -3.820  29.224  0.00  0.00    +0.003 C 
ATOM     21  C   UNL A   1     -24.836  -5.050  28.950  0.00  0.00    +0.000 C 
ENDBRANCH  16  20
ENDBRANCH  14  15
ENDBRANCH   6  14
TORSDOF 6
ENDMDL
ENDMDL
