MODEL 1104
MODEL 1
REMARK VINA RESULT:    -3.489      0.000      0.000
REMARK INTER + INTRA:          -3.944
REMARK INTER:                  -3.897
REMARK INTRA:                  -0.048
REMARK UNBOUND:                -0.048
REMARK  Name = No_1104-gen_results/8p0m/2024-11-27-11-27-31/
REMARK  2 active torsions:
REMARK  status: ('A' for Active; 'I' for Inactive)
REMARK    1  A    between atoms: C_2  and  C_3
REMARK    2  A    between atoms: N_5  and  C_6
REMARK                            x       y       z     vdW  Elec       q    Type
REMARK                         _______ _______ _______ _____ _____    ______ ____
ROOT
ATOM      1  C   UNL A   1     -27.334 -11.990  32.949  0.00  0.00    +0.338 C 
ATOM      2  O   UNL A   1     -26.522 -12.707  32.414  0.00  0.00    -0.256 OA
ATOM      3  N   UNL A   1     -28.355 -11.532  31.979  0.00  0.00    -0.165 NA
ENDROOT
BRANCH   1   5
ATOM      4  N   UNL A   1     -26.845 -10.832  34.637  0.00  0.00    -0.186 NA
ATOM      5  C   UNL A   1     -27.115 -11.566  33.916  0.00  0.00    +0.161 C 
ENDBRANCH   1   5
BRANCH   3   6
ATOM      6  C   UNL A   1     -28.505 -12.039  30.665  0.00  0.00    +0.090 C 
ATOM      7  C   UNL A   1     -29.062 -11.337  29.948  0.00  0.00    +0.019 C 
ENDBRANCH   3   6
TORSDOF 2
ENDMDL
ENDMDL
