REMARK  Name = No_1105-gen_results/8p0m/2024-11-27-11-27-31/
REMARK  3 active torsions:
REMARK  status: ('A' for Active; 'I' for Inactive)
REMARK    1  A    between atoms: C_4  and  C_9
REMARK    2  A    between atoms: C_9  and  C_10
REMARK    3  A    between atoms: C_10  and  C_11
REMARK                            x       y       z     vdW  Elec       q    Type
REMARK                         _______ _______ _______ _____ _____    ______ ____
ROOT
ATOM      1  C   UNL A   1     -28.016  -0.814  28.878  0.00  0.00    +0.035 C 
ATOM      2  C   UNL A   1     -28.469  -0.785  29.829  0.00  0.00    +0.182 C 
ATOM      3  C   UNL A   1     -26.504  -0.778  28.877  0.00  0.00    +0.003 C 
ATOM      4  C   UNL A   1     -25.831  -1.681  29.685  0.00  0.00    +0.003 C 
ATOM      5  C   UNL A   1     -28.149  -1.885  30.903  0.00  0.00    +0.182 C 
ATOM      6  C   UNL A   1     -26.646  -1.956  31.033  0.00  0.00    +0.036 C 
ATOM      7  O   UNL A   1     -28.627  -1.731  32.186  0.00  0.00    -0.220 OA
ATOM      8  O   UNL A   1     -30.017  -0.927  29.877  0.00  0.00    -0.220 OA
ENDROOT
BRANCH   4   9
ATOM      9  C   UNL A   1     -24.388  -1.347  29.954  0.00  0.00    +0.005 C 
BRANCH   9  10
ATOM     10  C   UNL A   1     -24.041  -0.592  30.996  0.00  0.00    +0.026 C 
BRANCH  10  11
ATOM     11  C   UNL A   1     -24.239   0.861  30.803  0.00  0.00    -0.031 C 
ATOM     12  C   UNL A   1     -24.978   1.689  31.716  0.00  0.00    -0.030 C 
ATOM     13  C   UNL A   1     -25.103   3.056  31.404  0.00  0.00    +0.030 C 
ENDBRANCH  10  11
ENDBRANCH   9  10
ENDBRANCH   4   9
TORSDOF 3
