REMARK  Name = outputs/IAG933/test6/raw/output_1106_IAG933_linker_design_.xyz
REMARK  11 active torsions:
REMARK  status: ('A' for Active; 'I' for Inactive)
REMARK    1  A    between atoms: C_1  and  C_2
REMARK    2  A    between atoms: C_1  and  C_8
REMARK    3  A    between atoms: C_1  and  N_28
REMARK    4  A    between atoms: C_14  and  C_15
REMARK    5  A    between atoms: C_15  and  O_18
REMARK    6  A    between atoms: O_18  and  C_38
REMARK    7  A    between atoms: C_21  and  O_22
REMARK    8  A    between atoms: O_22  and  C_23
REMARK    9  A    between atoms: C_23  and  C_24
REMARK   10  A    between atoms: N_28  and  C_36
REMARK   11  A    between atoms: C_38  and  C_41
REMARK                            x       y       z     vdW  Elec       q    Type
REMARK                         _______ _______ _______ _____ _____    ______ ____
ROOT
ATOM      1  C   UNL A   1     -28.051   4.824  32.193  0.00  0.00    +0.140 C 
ATOM      2  C   UNL A   1     -26.935   2.156  29.639  0.00  0.00    +0.071 C 
ATOM      3  C   UNL A   1     -28.225   3.599  31.535  0.00  0.00    +0.025 C 
ATOM      4  F   UNL A   1     -29.005   5.239  33.060  0.00  0.00    -0.204 F 
ATOM      5  C   UNL A   1     -25.886   5.125  31.040  0.00  0.00    +0.001 C 
ATOM      6  C   UNL A   1     -25.481   3.075  29.215  0.00  0.00    +0.159 C 
ATOM      7  C   UNL A   1     -26.112   3.890  30.337  0.00  0.00    +0.010 C 
ATOM      8  C   UNL A   1     -26.878   5.586  31.949  0.00  0.00    +0.029 C 
ATOM      9  C   UNL A   1     -27.202   3.182  30.635  0.00  0.00    -0.017 C 
ENDROOT
BRANCH   6  15
ATOM     10  C   UNL A   1     -22.342   0.096  29.296  0.00  0.00    -0.010 C 
ATOM     11  C   UNL A   1     -21.163   0.528  28.645  0.00  0.00    -0.004 C 
ATOM     12  C   UNL A   1     -23.656   0.793  28.976  0.00  0.00    +0.086 C 
ATOM     13  C   UNL A   1     -22.328   2.140  27.316  0.00  0.00    -0.025 C 
ATOM     14  C   UNL A   1     -21.163   1.488  27.628  0.00  0.00    -0.005 C 
ATOM     15  C   UNL A   1     -24.667   1.807  29.175  0.00  0.00    +0.066 C 
ATOM     16  C   UNL A   1     -23.453   1.818  28.223  0.00  0.00    +0.046 C 
BRANCH  12  17
ATOM     17  N   UNL A   1     -24.649  -0.113  29.166  0.00  0.00    -0.212 NA
BRANCH  17  18
ATOM     18  C   UNL A   1     -24.855  -1.012  30.143  0.00  0.00    +0.111 C 
BRANCH  18  19
ATOM     19  C   UNL A   1     -24.973  -2.505  29.788  0.00  0.00    -0.005 C 
ATOM     20  C   UNL A   1     -23.906  -3.173  29.146  0.00  0.00    -0.003 C 
ATOM     21  C   UNL A   1     -23.989  -4.549  28.853  0.00  0.00    -0.000 C 
ATOM     22  C   UNL A   1     -25.137  -5.280  29.205  0.00  0.00    -0.000 C 
ATOM     23  C   UNL A   1     -26.232  -4.611  29.784  0.00  0.00    -0.000 C 
ATOM     24  C   UNL A   1     -26.155  -3.232  30.065  0.00  0.00    -0.003 C 
ENDBRANCH  18  19
BRANCH  18  25
ATOM     25  C   UNL A   1     -25.387  -0.679  31.571  0.00  0.00    +0.093 C 
ATOM     26  C   UNL A   1     -25.189   0.773  32.028  0.00  0.00    +0.021 C 
ATOM     27  C   UNL A   1     -25.336   0.684  33.544  0.00  0.00    +0.020 C 
ATOM     28  C   UNL A   1     -24.829  -0.715  33.905  0.00  0.00    +0.089 C 
ATOM     29  N   UNL A   1     -24.758  -1.481  32.646  0.00  0.00    -0.218 NA
ENDBRANCH  18  25
ENDBRANCH  17  18
ENDBRANCH  12  17
ENDBRANCH   6  15
BRANCH   6  30
ATOM     30  O   UNL A   1     -25.143   3.966  28.243  0.00  0.00    -0.463 OA
BRANCH  30  31
ATOM     31  C   UNL A   1     -25.642   4.093  27.123  0.00  0.00    +0.222 C 
ATOM     32  N   UNL A   1     -25.614   5.252  26.449  0.00  0.00    -0.236 NA
ATOM     33  C   UNL A   1     -25.026   6.479  26.963  0.00  0.00    +0.155 C 
BRANCH  31  35
ATOM     34  C   UNL A   1     -25.688   1.614  26.461  0.00  0.00    +0.041 C 
ATOM     35  C   UNL A   1     -26.250   2.920  26.395  0.00  0.00    +0.074 C 
ATOM     36  C   UNL A   1     -27.438   3.091  25.645  0.00  0.00    +0.107 C 
ATOM     37  N   UNL A   1     -28.075   2.089  25.003  0.00  0.00    -0.208 NA
ATOM     38  C   UNL A   1     -27.543   0.849  25.079  0.00  0.00    +0.253 C 
ATOM     39  C   UNL A   1     -26.354   0.576  25.777  0.00  0.00    +0.193 C 
ATOM     40  F   UNL A   1     -25.860  -0.681  25.795  0.00  0.00    -0.199 F 
BRANCH  38  41
ATOM     41  O   UNL A   1     -28.193  -0.208  24.477  0.00  0.00    -0.456 OA
BRANCH  41  42
ATOM     42  C   UNL A   1     -29.460   0.005  23.866  0.00  0.00    +0.243 C 
BRANCH  42  43
ATOM     43  C   UNL A   1     -30.065  -1.377  23.573  0.00  0.00    +0.229 C 
ATOM     44  O   UNL A   1     -30.729  -1.878  24.721  0.00  0.00    -0.216 OA
ENDBRANCH  42  43
ENDBRANCH  41  42
ENDBRANCH  38  41
ENDBRANCH  31  35
ENDBRANCH  30  31
ENDBRANCH   6  30
TORSDOF 11
