MODEL 1107
MODEL 1
REMARK VINA RESULT:    -5.496      0.000      0.000
REMARK INTER + INTRA:          -5.496
REMARK INTER:                  -5.496
REMARK INTRA:                   0.000
REMARK UNBOUND:                 0.000
REMARK  Name = No_1107-gen_results/8p0m/2024-11-27-11-27-31/
REMARK  0 active torsions:
REMARK  status: ('A' for Active; 'I' for Inactive)
REMARK                            x       y       z     vdW  Elec       q    Type
REMARK                         _______ _______ _______ _____ _____    ______ ____
ROOT
ATOM      1  C   UNL A   1     -25.501  -0.055  27.167  0.00  0.00    -0.000 A 
ATOM      2  C   UNL A   1     -25.649  -0.112  26.125  0.00  0.00    -0.000 A 
ATOM      3  C   UNL A   1     -24.105   0.329  27.605  0.00  0.00    -0.004 A 
ATOM      4  C   UNL A   1     -23.535   1.460  27.041  0.00  0.00    -0.000 A 
ATOM      5  C   UNL A   1     -25.080   0.172  25.243  0.00  0.00    -0.000 A 
ATOM      6  C   UNL A   1     -22.287   1.980  27.305  0.00  0.00    -0.000 A 
ATOM      7  C   UNL A   1     -23.912   1.182  25.534  0.00  0.00    -0.000 A 
ATOM      8  C   UNL A   1     -21.325   1.067  27.851  0.00  0.00    -0.000 A 
ATOM      9  C   UNL A   1     -21.600   0.023  28.597  0.00  0.00    -0.004 A 
ATOM     10  C   UNL A   1     -23.271  -0.308  28.648  0.00  0.00    -0.022 A 
ATOM     11  C   UNL A   1     -23.415  -1.693  28.946  0.00  0.00    +0.031 C 
ENDROOT
TORSDOF 0
ENDMDL
ENDMDL
