REMARK  Name = outputs/IAG933/test6/raw/output_1107_IAG933_linker_design_.xyz
REMARK  13 active torsions:
REMARK  status: ('A' for Active; 'I' for Inactive)
REMARK    1  A    between atoms: C_1  and  C_2
REMARK    2  A    between atoms: C_1  and  C_8
REMARK    3  A    between atoms: C_1  and  C_32
REMARK    4  A    between atoms: C_13  and  C_28
REMARK    5  A    between atoms: C_14  and  C_15
REMARK    6  A    between atoms: C_21  and  O_22
REMARK    7  A    between atoms: O_22  and  C_23
REMARK    8  A    between atoms: C_23  and  C_24
REMARK    9  A    between atoms: C_31  and  C_33
REMARK   10  A    between atoms: C_31  and  C_37
REMARK   11  A    between atoms: C_32  and  N_34
REMARK   12  A    between atoms: C_32  and  C_42
REMARK   13  A    between atoms: C_33  and  C_38
REMARK                            x       y       z     vdW  Elec       q    Type
REMARK                         _______ _______ _______ _____ _____    ______ ____
ROOT
ATOM      1  C   UNL A   1     -25.020   0.137  29.119  0.00  0.00    +0.106 C 
ENDROOT
BRANCH   1   8
ATOM      2  C   UNL A   1     -24.273   1.404  26.951  0.00  0.00    +0.003 C 
ATOM      3  C   UNL A   1     -21.900   2.124  26.771  0.00  0.00    +0.003 C 
ATOM      4  O   UNL A   1     -22.078  -0.304  29.541  0.00  0.00    -0.287 OA
ATOM      5  C   UNL A   1     -21.560   1.314  27.888  0.00  0.00    +0.042 C 
ATOM      6  C   UNL A   1     -22.515   0.492  28.528  0.00  0.00    +0.193 C 
ATOM      7  C   UNL A   1     -23.219   2.144  26.294  0.00  0.00    +0.000 C 
ATOM      8  C   UNL A   1     -23.917   0.628  28.172  0.00  0.00    +0.033 C 
BRANCH   2   9
ATOM      9  C   UNL A   1     -25.688   1.614  26.461  0.00  0.00    +0.038 C 
ATOM     10  C   UNL A   1     -26.250   2.920  26.395  0.00  0.00    +0.076 C 
ATOM     11  C   UNL A   1     -27.438   3.091  25.645  0.00  0.00    +0.107 C 
ATOM     12  N   UNL A   1     -28.075   2.089  25.003  0.00  0.00    -0.208 NA
ATOM     13  C   UNL A   1     -27.543   0.849  25.079  0.00  0.00    +0.253 C 
ATOM     14  C   UNL A   1     -26.354   0.576  25.777  0.00  0.00    +0.193 C 
ATOM     15  F   UNL A   1     -25.860  -0.681  25.795  0.00  0.00    -0.199 F 
BRANCH  10  16
ATOM     16  C   UNL A   1     -25.642   4.093  27.123  0.00  0.00    +0.266 C 
ATOM     17  N   UNL A   1     -25.614   5.252  26.449  0.00  0.00    -0.200 NA
ATOM     18  C   UNL A   1     -25.026   6.479  26.963  0.00  0.00    +0.139 C 
ATOM     19  O   UNL A   1     -25.143   3.966  28.243  0.00  0.00    -0.268 OA
ENDBRANCH  10  16
BRANCH  13  20
ATOM     20  O   UNL A   1     -28.193  -0.208  24.477  0.00  0.00    -0.456 OA
BRANCH  20  21
ATOM     21  C   UNL A   1     -29.460   0.005  23.866  0.00  0.00    +0.243 C 
BRANCH  21  22
ATOM     22  C   UNL A   1     -30.065  -1.377  23.573  0.00  0.00    +0.229 C 
ATOM     23  O   UNL A   1     -30.729  -1.878  24.721  0.00  0.00    -0.216 OA
ENDBRANCH  21  22
ENDBRANCH  20  21
ENDBRANCH  13  20
ENDBRANCH   2   9
ENDBRANCH   1   8
BRANCH   1  24
ATOM     24  N   UNL A   1     -26.362   0.691  29.021  0.00  0.00    -0.183 NA
ATOM     25  C   UNL A   1     -27.542   0.684  29.653  0.00  0.00    +0.167 C 
ATOM     26  N   UNL A   1     -27.286  -0.223  28.602  0.00  0.00    -0.129 NA
BRANCH  25  27
ATOM     27  C   UNL A   1     -29.073   0.810  29.568  0.00  0.00    +0.070 C 
BRANCH  27  28
ATOM     28  C   UNL A   1     -29.766   0.619  28.297  0.00  0.00    +0.157 C 
ATOM     29  O   UNL A   1     -29.791  -0.443  27.335  0.00  0.00    -0.223 OA
BRANCH  28  30
ATOM     30  C   UNL A   1     -30.982   1.614  28.245  0.00  0.00    +0.063 C 
ATOM     31  C   UNL A   1     -31.558   2.756  27.361  0.00  0.00    +0.145 C 
ATOM     32  C   UNL A   1     -33.413   1.734  28.309  0.00  0.00    +0.142 C 
ATOM     33  C   UNL A   1     -32.215   0.772  28.446  0.00  0.00    +0.037 C 
ATOM     34  O   UNL A   1     -32.809   3.001  28.014  0.00  0.00    -0.354 OA
ENDBRANCH  28  30
ENDBRANCH  27  28
ENDBRANCH  25  27
ENDBRANCH   1  24
BRANCH   1  35
ATOM     35  C   UNL A   1     -24.855  -1.012  30.143  0.00  0.00    +0.059 C 
BRANCH  35  36
ATOM     36  C   UNL A   1     -24.973  -2.505  29.788  0.00  0.00    -0.019 C 
ATOM     37  C   UNL A   1     -23.906  -3.173  29.146  0.00  0.00    -0.004 C 
ATOM     38  C   UNL A   1     -23.989  -4.549  28.853  0.00  0.00    -0.000 C 
ATOM     39  C   UNL A   1     -25.137  -5.280  29.205  0.00  0.00    -0.000 C 
ATOM     40  C   UNL A   1     -26.232  -4.611  29.784  0.00  0.00    -0.000 C 
ATOM     41  C   UNL A   1     -26.155  -3.232  30.065  0.00  0.00    -0.004 C 
ENDBRANCH  35  36
BRANCH  35  42
ATOM     42  C   UNL A   1     -25.387  -0.679  31.571  0.00  0.00    +0.079 C 
ATOM     43  C   UNL A   1     -25.189   0.773  32.028  0.00  0.00    +0.019 C 
ATOM     44  C   UNL A   1     -25.336   0.684  33.544  0.00  0.00    +0.020 C 
ATOM     45  C   UNL A   1     -24.829  -0.715  33.905  0.00  0.00    +0.089 C 
ATOM     46  N   UNL A   1     -24.758  -1.481  32.646  0.00  0.00    -0.219 NA
ENDBRANCH  35  42
ENDBRANCH   1  35
TORSDOF 13
