MODEL 1108
MODEL 1
REMARK VINA RESULT:    -8.297      0.000      0.000
REMARK INTER + INTRA:         -13.176
REMARK INTER:                 -11.692
REMARK INTRA:                  -1.484
REMARK UNBOUND:                -1.484
REMARK  Name = No_1108-gen_results/8p0m/2024-11-27-11-27-31/
REMARK  7 active torsions:
REMARK  status: ('A' for Active; 'I' for Inactive)
REMARK    1  A    between atoms: C_3  and  C_4
REMARK    2  A    between atoms: C_10  and  C_13
REMARK    3  A    between atoms: C_16  and  C_17
REMARK    4  A    between atoms: C_20  and  C_25
REMARK    5  A    between atoms: C_26  and  O_31
REMARK    6  A    between atoms: O_31  and  C_32
REMARK    7  A    between atoms: C_33  and  C_34
REMARK                            x       y       z     vdW  Elec       q    Type
REMARK                         _______ _______ _______ _____ _____    ______ ____
ROOT
ATOM      1  C   UNL A   1      -2.206  -1.115  33.002  0.00  0.00    +0.272 C 
ATOM      2  O   UNL A   1      -2.248   0.012  33.392  0.00  0.00    -0.268 OA
ATOM      3  N   UNL A   1      -2.653  -2.145  33.762  0.00  0.00    -0.137 NA
ATOM      4  C   UNL A   1      -3.390  -1.952  35.003  0.00  0.00    +0.272 C 
ATOM      5  O   UNL A   1      -2.755  -2.367  36.032  0.00  0.00    -0.268 OA
ENDROOT
BRANCH   1   9
ATOM      6  C   UNL A   1      -0.631  -2.561  31.589  0.00  0.00    +0.005 A 
ATOM      7  C   UNL A   1      -0.116  -2.825  30.528  0.00  0.00    +0.000 A 
ATOM      8  C   UNL A   1      -0.147  -1.975  29.423  0.00  0.00    +0.000 A 
ATOM      9  C   UNL A   1      -1.521  -1.415  31.721  0.00  0.00    +0.056 A 
ATOM     10  C   UNL A   1      -1.558  -0.426  30.749  0.00  0.00    +0.005 A 
ATOM     11  C   UNL A   1      -0.900  -0.705  29.537  0.00  0.00    +0.000 A 
BRANCH   8  12
ATOM     12  C   UNL A   1       0.442  -2.221  28.092  0.00  0.00    +0.001 A 
ATOM     13  C   UNL A   1      -0.488  -2.358  27.017  0.00  0.00    +0.011 A 
ATOM     14  C   UNL A   1      -0.007  -2.630  25.736  0.00  0.00    +0.058 A 
ATOM     15  C   UNL A   1       1.355  -2.914  25.576  0.00  0.00    +0.011 A 
ATOM     16  C   UNL A   1       2.253  -2.804  26.611  0.00  0.00    +0.001 A 
ATOM     17  C   UNL A   1       1.765  -2.490  27.898  0.00  0.00    +0.000 A 
ATOM     18 CL   UNL A   1      -1.116  -2.829  24.446  0.00  0.00    -0.082 Cl
ENDBRANCH   8  12
ENDBRANCH   1   9
BRANCH   4  19
ATOM     19  C   UNL A   1      -4.592  -1.351  34.906  0.00  0.00    +0.056 A 
ATOM     20  C   UNL A   1      -5.643  -1.845  34.506  0.00  0.00    +0.005 A 
ATOM     21  C   UNL A   1      -6.977  -1.298  34.553  0.00  0.00    +0.000 A 
ATOM     22  C   UNL A   1      -7.111  -0.088  35.206  0.00  0.00    +0.003 A 
ATOM     23  C   UNL A   1      -5.980   0.482  35.783  0.00  0.00    +0.000 A 
ATOM     24  C   UNL A   1      -4.744  -0.131  35.721  0.00  0.00    +0.005 A 
BRANCH  22  25
ATOM     25  C   UNL A   1      -8.430   0.531  35.235  0.00  0.00    +0.035 A 
ATOM     26  C   UNL A   1      -9.413   0.334  35.767  0.00  0.00    +0.145 A 
ATOM     27  C   UNL A   1     -10.730   0.918  35.671  0.00  0.00    +0.037 A 
ATOM     28  C   UNL A   1     -10.789   1.981  34.758  0.00  0.00    +0.003 A 
ATOM     29  C   UNL A   1      -9.691   2.317  34.032  0.00  0.00    +0.000 A 
ATOM     30  C   UNL A   1      -8.452   1.620  34.136  0.00  0.00    +0.003 A 
BRANCH  26  31
ATOM     31  O   UNL A   1      -9.514  -0.778  36.699  0.00  0.00    -0.450 OA
BRANCH  31  32
ATOM     32  C   UNL A   1     -10.610  -1.123  37.277  0.00  0.00    +0.179 C 
ATOM     33  C   UNL A   1     -10.482  -1.065  38.763  0.00  0.00    +0.041 C 
BRANCH  33  34
ATOM     34  C   UNL A   1     -11.431  -1.833  39.495  0.00  0.00    +0.003 C 
ATOM     35  C   UNL A   1     -12.319  -2.757  38.804  0.00  0.00    +0.000 C 
ENDBRANCH  33  34
ENDBRANCH  31  32
ENDBRANCH  26  31
ENDBRANCH  22  25
ENDBRANCH   4  19
TORSDOF 7
ENDMDL
ENDMDL
