MODEL 1109
MODEL 1
REMARK VINA RESULT:    -4.909      0.000      0.000
REMARK INTER + INTRA:          -5.780
REMARK INTER:                  -5.483
REMARK INTRA:                  -0.297
REMARK UNBOUND:                -0.297
REMARK  Name = No_1109-gen_results/8p0m/2024-11-27-11-27-31/
REMARK  2 active torsions:
REMARK  status: ('A' for Active; 'I' for Inactive)
REMARK    1  A    between atoms: C_5  and  C_9
REMARK    2  A    between atoms: C_9  and  C_11
REMARK                            x       y       z     vdW  Elec       q    Type
REMARK                         _______ _______ _______ _____ _____    ______ ____
ROOT
ATOM      1  F   UNL A   1     -25.731   1.827  26.379  0.00  0.00    -0.204 F 
ATOM      2  C   UNL A   1     -24.656   1.498  26.896  0.00  0.00    +0.140 A 
ATOM      3  C   UNL A   1     -23.536   2.187  26.612  0.00  0.00    +0.030 A 
ATOM      4  C   UNL A   1     -24.623   0.342  27.826  0.00  0.00    +0.027 A 
ATOM      5  C   UNL A   1     -23.364  -0.107  28.337  0.00  0.00    +0.001 A 
ATOM      6  C   UNL A   1     -22.250   1.718  27.169  0.00  0.00    +0.013 A 
ATOM      7  C   UNL A   1     -22.175   0.602  28.009  0.00  0.00    +0.054 A 
ATOM      8 CL   UNL A   1     -20.697   0.049  28.632  0.00  0.00    -0.083 Cl
ENDROOT
BRANCH   5   9
ATOM      9  C   UNL A   1     -23.209  -1.234  29.248  0.00  0.00    +0.127 C 
ATOM     10  C   UNL A   1     -23.756  -2.441  28.992  0.00  0.00    +0.017 C 
BRANCH   9  11
ATOM     11  C   UNL A   1     -23.654  -0.776  30.694  0.00  0.00    +0.368 C 
ATOM     12  O   UNL A   1     -22.702  -0.839  31.301  0.00  0.00    -0.245 OA
ATOM     13  O   UNL A   1     -24.617  -1.587  31.238  0.00  0.00    -0.245 OA
ENDBRANCH   9  11
ENDBRANCH   5   9
TORSDOF 2
ENDMDL
ENDMDL
