MODEL 110
MODEL 1
REMARK VINA RESULT:    -6.230      0.000      0.000
REMARK INTER + INTRA:          -8.880
REMARK INTER:                  -8.051
REMARK INTRA:                  -0.828
REMARK UNBOUND:                -0.828
REMARK  Name = No_110-gen_results/8p0m/2024-11-27-11-27-31/
REMARK  5 active torsions:
REMARK  status: ('A' for Active; 'I' for Inactive)
REMARK    1  A    between atoms: C_2  and  C_10
REMARK    2  A    between atoms: C_5  and  C_7
REMARK    3  A    between atoms: C_10  and  C_12
REMARK    4  A    between atoms: C_13  and  C_14
REMARK    5  A    between atoms: C_15  and  C_16
REMARK                            x       y       z     vdW  Elec       q    Type
REMARK                         _______ _______ _______ _____ _____    ______ ____
ROOT
ATOM      1  C   UNL A   1     -12.840   2.263  37.665  0.00  0.00    -0.003 A 
ATOM      2  C   UNL A   1     -12.244   2.040  36.637  0.00  0.00    -0.003 A 
ATOM      3  C   UNL A   1     -12.748   2.240  35.363  0.00  0.00    -0.003 A 
ATOM      4  C   UNL A   1     -14.064   2.780  35.264  0.00  0.00    +0.006 A 
ATOM      5  C   UNL A   1     -14.640   3.156  36.424  0.00  0.00    +0.080 A 
ATOM      6  C   UNL A   1     -14.026   2.997  37.598  0.00  0.00    +0.006 A 
ENDROOT
BRANCH   5   7
ATOM      7  C   UNL A   1     -15.981   3.757  36.290  0.00  0.00    +0.388 C 
ATOM      8  O   UNL A   1     -16.458   3.762  35.300  0.00  0.00    -0.241 OA
ATOM      9  O   UNL A   1     -16.544   4.401  37.333  0.00  0.00    -0.241 OA
ENDBRANCH   5   7
BRANCH   2  10
ATOM     10  C   UNL A   1     -10.824   1.307  36.640  0.00  0.00    +0.124 C 
ATOM     11 CL   UNL A   1      -9.635   2.040  36.399  0.00  0.00    -0.105 Cl
BRANCH  10  12
ATOM     12  C   UNL A   1     -10.791  -0.130  36.823  0.00  0.00    -0.006 C 
ATOM     13  C   UNL A   1     -11.017  -0.729  37.733  0.00  0.00    -0.003 C 
BRANCH  13  14
ATOM     14  C   UNL A   1     -11.420  -2.074  37.913  0.00  0.00    -0.000 C 
ATOM     15  C   UNL A   1     -12.195  -2.621  38.991  0.00  0.00    -0.000 C 
BRANCH  15  16
ATOM     16  C   UNL A   1     -12.333  -1.652  40.079  0.00  0.00    -0.005 C 
ATOM     17  C   UNL A   1     -11.636  -1.619  41.248  0.00  0.00    -0.026 C 
ATOM     18  C   UNL A   1     -10.589  -2.548  41.422  0.00  0.00    +0.031 C 
ENDBRANCH  15  16
ENDBRANCH  13  14
ENDBRANCH  10  12
ENDBRANCH   2  10
TORSDOF 5
ENDMDL
ENDMDL
