REMARK  Name = outputs/IAG933/test6/raw/output_1112_IAG933_linker_design_.xyz
REMARK  15 active torsions:
REMARK  status: ('A' for Active; 'I' for Inactive)
REMARK    1  A    between atoms: C_1  and  C_2
REMARK    2  A    between atoms: C_1  and  C_8
REMARK    3  A    between atoms: C_1  and  C_33
REMARK    4  A    between atoms: C_13  and  C_42
REMARK    5  A    between atoms: C_14  and  C_15
REMARK    6  A    between atoms: C_21  and  O_22
REMARK    7  A    between atoms: O_22  and  C_23
REMARK    8  A    between atoms: C_23  and  C_24
REMARK    9  A    between atoms: C_29  and  O_31
REMARK   10  A    between atoms: C_29  and  C_46
REMARK   11  A    between atoms: O_31  and  C_35
REMARK   12  A    between atoms: O_32  and  C_33
REMARK   13  A    between atoms: O_32  and  C_46
REMARK   14  A    between atoms: C_33  and  C_39
REMARK   15  A    between atoms: C_38  and  C_41
REMARK                            x       y       z     vdW  Elec       q    Type
REMARK                         _______ _______ _______ _____ _____    ______ ____
ROOT
ATOM      1  C   UNL A   1     -25.394   0.065  29.094  0.00  0.00    +0.143 C 
ENDROOT
BRANCH   1   5
ATOM      2  C   UNL A   1     -21.762   0.920  28.377  0.00  0.00    +0.001 C 
ATOM      3  C   UNL A   1     -21.826   1.645  27.177  0.00  0.00    +0.011 C 
ATOM      4  C   UNL A   1     -22.977   0.388  28.924  0.00  0.00    -0.002 C 
ATOM      5  C   UNL A   1     -24.245   0.598  28.338  0.00  0.00    +0.006 C 
ATOM      6  C   UNL A   1     -24.346   1.359  27.107  0.00  0.00    +0.011 C 
ATOM      7  C   UNL A   1     -23.089   1.845  26.508  0.00  0.00    +0.058 C 
ATOM      8 CL   UNL A   1     -23.051   2.679  25.003  0.00  0.00    -0.082 Cl
BRANCH   6   9
ATOM      9  C   UNL A   1     -25.688   1.614  26.461  0.00  0.00    +0.039 C 
ATOM     10  C   UNL A   1     -26.250   2.920  26.395  0.00  0.00    +0.077 C 
ATOM     11  C   UNL A   1     -27.438   3.091  25.645  0.00  0.00    +0.107 C 
ATOM     12  N   UNL A   1     -28.075   2.089  25.003  0.00  0.00    -0.208 NA
ATOM     13  C   UNL A   1     -27.543   0.849  25.079  0.00  0.00    +0.253 C 
ATOM     14  C   UNL A   1     -26.354   0.576  25.777  0.00  0.00    +0.193 C 
ATOM     15  F   UNL A   1     -25.860  -0.681  25.795  0.00  0.00    -0.199 F 
BRANCH  10  16
ATOM     16  C   UNL A   1     -25.642   4.093  27.123  0.00  0.00    +0.266 C 
ATOM     17  N   UNL A   1     -25.614   5.252  26.449  0.00  0.00    -0.200 NA
ATOM     18  C   UNL A   1     -25.026   6.479  26.963  0.00  0.00    +0.139 C 
ATOM     19  O   UNL A   1     -25.143   3.966  28.243  0.00  0.00    -0.268 OA
ENDBRANCH  10  16
BRANCH  13  20
ATOM     20  O   UNL A   1     -28.193  -0.208  24.477  0.00  0.00    -0.456 OA
BRANCH  20  21
ATOM     21  C   UNL A   1     -29.460   0.005  23.866  0.00  0.00    +0.243 C 
BRANCH  21  22
ATOM     22  C   UNL A   1     -30.065  -1.377  23.573  0.00  0.00    +0.229 C 
ATOM     23  O   UNL A   1     -30.729  -1.878  24.721  0.00  0.00    -0.216 OA
ENDBRANCH  21  22
ENDBRANCH  20  21
ENDBRANCH  13  20
ENDBRANCH   6   9
ENDBRANCH   1   5
BRANCH   1  24
ATOM     24  C   UNL A   1     -24.855  -1.012  30.143  0.00  0.00    +0.070 C 
BRANCH  24  25
ATOM     25  C   UNL A   1     -24.973  -2.505  29.788  0.00  0.00    -0.018 C 
ATOM     26  C   UNL A   1     -23.906  -3.173  29.146  0.00  0.00    -0.004 C 
ATOM     27  C   UNL A   1     -23.989  -4.549  28.853  0.00  0.00    -0.000 C 
ATOM     28  C   UNL A   1     -25.137  -5.280  29.205  0.00  0.00    -0.000 C 
ATOM     29  C   UNL A   1     -26.232  -4.611  29.784  0.00  0.00    -0.000 C 
ATOM     30  C   UNL A   1     -26.155  -3.232  30.065  0.00  0.00    -0.004 C 
ENDBRANCH  24  25
BRANCH  24  31
ATOM     31  C   UNL A   1     -25.387  -0.679  31.571  0.00  0.00    +0.080 C 
ATOM     32  C   UNL A   1     -25.189   0.773  32.028  0.00  0.00    +0.019 C 
ATOM     33  C   UNL A   1     -25.336   0.684  33.544  0.00  0.00    +0.020 C 
ATOM     34  C   UNL A   1     -24.829  -0.715  33.905  0.00  0.00    +0.089 C 
ATOM     35  N   UNL A   1     -24.758  -1.481  32.646  0.00  0.00    -0.219 NA
ENDBRANCH  24  31
ENDBRANCH   1  24
BRANCH   1  36
ATOM     36  O   UNL A   1     -26.567  -0.362  28.511  0.00  0.00    -0.349 OA
BRANCH  36  37
ATOM     37  C   UNL A   1     -27.582  -0.738  29.482  0.00  0.00    +0.174 C 
BRANCH  37  38
ATOM     38  C   UNL A   1     -28.314   0.508  29.988  0.00  0.00    +0.174 C 
BRANCH  38  39
ATOM     39  O   UNL A   1     -29.665   0.819  29.816  0.00  0.00    -0.354 OA
BRANCH  39  41
ATOM     40  C   UNL A   1     -31.586   1.370  28.279  0.00  0.00    +0.030 C 
ATOM     41  C   UNL A   1     -30.119   1.000  28.564  0.00  0.00    +0.115 C 
ATOM     42  C   UNL A   1     -31.169  -0.721  27.211  0.00  0.00    +0.035 C 
ATOM     43  C   UNL A   1     -31.788   0.671  26.925  0.00  0.00    +0.005 C 
ATOM     44  C   UNL A   1     -29.776  -0.167  27.627  0.00  0.00    +0.032 C 
BRANCH  42  46
ATOM     45  O   UNL A   1     -32.943  -2.346  26.929  0.00  0.00    -0.220 OA
ATOM     46  C   UNL A   1     -32.399  -1.435  27.884  0.00  0.00    +0.182 C 
ENDBRANCH  42  46
ENDBRANCH  39  41
ENDBRANCH  38  39
ENDBRANCH  37  38
ENDBRANCH  36  37
ENDBRANCH   1  36
TORSDOF 15
