MODEL 1113
MODEL 1
REMARK VINA RESULT:    -7.685      0.000      0.000
REMARK INTER + INTRA:          -9.306
REMARK INTER:                  -8.584
REMARK INTRA:                  -0.722
REMARK UNBOUND:                -0.722
REMARK  Name = No_1113-gen_results/8p0m/2024-11-27-11-27-31/
REMARK  2 active torsions:
REMARK  status: ('A' for Active; 'I' for Inactive)
REMARK    1  A    between atoms: C_4  and  C_11
REMARK    2  A    between atoms: C_7  and  C_17
REMARK                            x       y       z     vdW  Elec       q    Type
REMARK                         _______ _______ _______ _____ _____    ______ ____
ROOT
ATOM      1  C   UNL A   1     -24.597   0.499  26.271  0.00  0.00    +0.007 A 
ATOM      2  C   UNL A   1     -24.715  -0.421  27.047  0.00  0.00    +0.000 A 
ATOM      3  C   UNL A   1     -24.127  -0.446  28.310  0.00  0.00    +0.000 A 
ATOM      4  C   UNL A   1     -24.208  -1.528  29.312  0.00  0.00    +0.000 A 
ATOM      5  C   UNL A   1     -23.553  -1.537  30.594  0.00  0.00    +0.000 A 
ATOM      6  C   UNL A   1     -22.965  -0.321  30.960  0.00  0.00    +0.000 A 
ATOM      7  C   UNL A   1     -23.635   1.593  26.640  0.00  0.00    +0.080 A 
ATOM      8  C   UNL A   1     -23.082   1.695  27.896  0.00  0.00    +0.007 A 
ATOM      9  C   UNL A   1     -23.258   0.659  28.795  0.00  0.00    +0.000 A 
ATOM     10  C   UNL A   1     -22.728   0.716  30.083  0.00  0.00    +0.000 A 
ENDROOT
BRANCH   4  11
ATOM     11  C   UNL A   1     -24.992  -2.769  29.011  0.00  0.00    +0.000 A 
ATOM     12  C   UNL A   1     -26.226  -2.796  29.362  0.00  0.00    +0.000 A 
ATOM     13  C   UNL A   1     -26.699  -3.901  29.946  0.00  0.00    +0.000 A 
ATOM     14  C   UNL A   1     -26.085  -5.149  29.603  0.00  0.00    +0.000 A 
ATOM     15  C   UNL A   1     -24.341  -3.932  28.576  0.00  0.00    +0.000 A 
ATOM     16  C   UNL A   1     -24.836  -5.125  29.013  0.00  0.00    +0.000 A 
ENDBRANCH   4  11
BRANCH   7  17
ATOM     17  C   UNL A   1     -23.444   2.689  25.613  0.00  0.00    +0.388 C 
ATOM     18  O   UNL A   1     -24.179   3.604  25.561  0.00  0.00    -0.241 OA
ATOM     19  O   UNL A   1     -22.436   2.675  24.873  0.00  0.00    -0.241 OA
ENDBRANCH   7  17
TORSDOF 2
ENDMDL
ENDMDL
