MODEL 1114
MODEL 1
REMARK VINA RESULT:    -6.874      0.000      0.000
REMARK INTER + INTRA:         -10.378
REMARK INTER:                  -9.285
REMARK INTRA:                  -1.093
REMARK UNBOUND:                -1.093
REMARK  Name = No_1114-gen_results/8p0m/2024-11-27-11-27-31/
REMARK  6 active torsions:
REMARK  status: ('A' for Active; 'I' for Inactive)
REMARK    1  A    between atoms: C_1  and  C_2
REMARK    2  A    between atoms: C_1  and  N_8
REMARK    3  A    between atoms: C_5  and  C_16
REMARK    4  A    between atoms: C_10  and  C_20
REMARK    5  A    between atoms: C_11  and  C_12
REMARK    6  A    between atoms: N_15  and  C_23
REMARK                            x       y       z     vdW  Elec       q    Type
REMARK                         _______ _______ _______ _____ _____    ______ ____
ROOT
ATOM      1  N   UNL A   1      -9.128   0.063  35.969  0.00  0.00    -0.296 N 
ATOM      2  C   UNL A   1      -9.406  -0.811  36.607  0.00  0.00    +0.063 C 
ATOM      3  C   UNL A   1     -10.197  -0.610  37.742  0.00  0.00    +0.062 C 
ATOM      4  C   UNL A   1      -9.481   1.393  36.583  0.00  0.00    +0.155 C 
ATOM      5  C   UNL A   1     -10.264   1.183  37.681  0.00  0.00    +0.062 C 
ENDROOT
BRANCH   4   6
ATOM      6  C   UNL A   1      -9.094   2.621  35.869  0.00  0.00    +0.248 C 
ATOM      7  O   UNL A   1      -8.215   3.340  36.219  0.00  0.00    -0.273 OA
ATOM      8  N   UNL A   1     -10.148   3.184  35.107  0.00  0.00    -0.256 N 
ATOM      9  C   UNL A   1     -10.018   4.465  34.538  0.00  0.00    +0.120 C 
BRANCH   8  10
ATOM     10  C   UNL A   1     -11.218   2.366  34.624  0.00  0.00    +0.054 A 
ATOM     11  C   UNL A   1     -12.552   2.807  35.085  0.00  0.00    +0.015 A 
ATOM     12  C   UNL A   1     -13.537   2.618  34.522  0.00  0.00    +0.001 A 
ATOM     13  C   UNL A   1     -13.562   1.593  33.427  0.00  0.00    +0.000 A 
ATOM     14  C   UNL A   1     -12.314   1.108  33.040  0.00  0.00    +0.001 A 
ATOM     15  C   UNL A   1     -11.171   1.628  33.557  0.00  0.00    +0.015 A 
ENDBRANCH   8  10
ENDBRANCH   4   6
BRANCH   3  16
ATOM     16  C   UNL A   1     -10.863  -1.252  38.722  0.00  0.00    +0.331 C 
ATOM     17  O   UNL A   1     -11.811  -1.852  38.624  0.00  0.00    -0.254 OA
ATOM     18  F   UNL A   1     -10.001  -1.496  39.619  0.00  0.00    -0.159 F 
ENDBRANCH   3  16
BRANCH   1  19
ATOM     19  C   UNL A   1      -8.357   0.110  34.843  0.00  0.00    +0.118 C 
BRANCH  19  20
ATOM     20  C   UNL A   1      -7.244  -0.355  34.935  0.00  0.00    -0.002 A 
ATOM     21  C   UNL A   1      -6.144   0.369  35.350  0.00  0.00    -0.002 A 
ATOM     22  C   UNL A   1      -4.779  -0.121  35.403  0.00  0.00    +0.006 A 
ATOM     23  C   UNL A   1      -4.520  -1.454  35.015  0.00  0.00    +0.080 A 
ATOM     24  C   UNL A   1      -5.658  -2.217  34.566  0.00  0.00    +0.006 A 
ATOM     25  C   UNL A   1      -6.937  -1.719  34.489  0.00  0.00    -0.002 A 
BRANCH  23  26
ATOM     26  C   UNL A   1      -3.196  -1.997  34.941  0.00  0.00    +0.388 C 
ATOM     27  O   UNL A   1      -2.694  -2.239  33.858  0.00  0.00    -0.241 OA
ATOM     28  O   UNL A   1      -2.652  -2.460  36.032  0.00  0.00    -0.241 OA
ENDBRANCH  23  26
ENDBRANCH  19  20
ENDBRANCH   1  19
TORSDOF 6
ENDMDL
ENDMDL
