MODEL 1115
MODEL 1
REMARK VINA RESULT:    -8.342      0.000      0.000
REMARK INTER + INTRA:         -12.525
REMARK INTER:                 -11.267
REMARK INTRA:                  -1.257
REMARK UNBOUND:                -1.257
REMARK  Name = No_1115-gen_results/8p0m/2024-11-27-11-27-31/
REMARK  6 active torsions:
REMARK  status: ('A' for Active; 'I' for Inactive)
REMARK    1  A    between atoms: C_3  and  C_4
REMARK    2  A    between atoms: C_6  and  O_13
REMARK    3  A    between atoms: O_13  and  C_14
REMARK    4  A    between atoms: C_14  and  C_15
REMARK    5  A    between atoms: C_19  and  C_22
REMARK    6  A    between atoms: C_22  and  C_23
REMARK                            x       y       z     vdW  Elec       q    Type
REMARK                         _______ _______ _______ _____ _____    ______ ____
ROOT
ATOM      1  C   UNL A   1     -24.972   0.672  25.985  0.00  0.00    +0.235 C 
ENDROOT
BRANCH   1   2
ATOM      2  C   UNL A   1     -24.155   0.770  26.708  0.00  0.00    +0.060 A 
ATOM      3  C   UNL A   1     -23.290   1.146  27.071  0.00  0.00    +0.003 A 
ATOM      4  C   UNL A   1     -22.291   1.153  27.841  0.00  0.00    -0.000 A 
ATOM      5  C   UNL A   1     -22.467   0.220  28.900  0.00  0.00    -0.001 A 
ATOM      6  C   UNL A   1     -23.583  -0.540  28.914  0.00  0.00    +0.021 A 
ATOM      7  C   UNL A   1     -24.508  -0.319  27.956  0.00  0.00    +0.192 A 
ATOM      8  O   UNL A   1     -25.348   0.544  28.909  0.00  0.00    -0.287 OA
BRANCH   6   9
ATOM      9  C   UNL A   1     -23.717  -1.571  29.997  0.00  0.00    +0.056 C 
BRANCH   9  10
ATOM     10  C   UNL A   1     -24.413  -2.759  29.768  0.00  0.00    -0.018 A 
ATOM     11  C   UNL A   1     -23.943  -3.784  29.129  0.00  0.00    -0.004 A 
ATOM     12  C   UNL A   1     -24.757  -4.908  28.833  0.00  0.00    -0.000 A 
ATOM     13  C   UNL A   1     -26.066  -4.877  29.324  0.00  0.00    -0.000 A 
ATOM     14  C   UNL A   1     -26.596  -3.793  29.995  0.00  0.00    -0.000 A 
ATOM     15  C   UNL A   1     -25.779  -2.701  30.231  0.00  0.00    -0.004 A 
ENDBRANCH   9  10
ENDBRANCH   6   9
ENDBRANCH   1   2
BRANCH   1  16
ATOM     16  O   UNL A   1     -25.500   1.608  25.222  0.00  0.00    -0.470 OA
BRANCH  16  20
ATOM     17  C   UNL A   1     -27.685   2.632  24.654  0.00  0.00    +0.037 A 
ATOM     18  C   UNL A   1     -28.773   2.519  24.137  0.00  0.00    +0.003 A 
ATOM     19  C   UNL A   1     -29.255   1.276  23.742  0.00  0.00    +0.000 A 
ATOM     20  C   UNL A   1     -26.770   1.481  24.706  0.00  0.00    +0.139 A 
ATOM     21  C   UNL A   1     -27.172   0.211  24.412  0.00  0.00    +0.037 A 
ATOM     22  C   UNL A   1     -28.472   0.055  23.903  0.00  0.00    +0.003 A 
BRANCH  19  23
ATOM     23  C   UNL A   1     -30.567   1.009  23.087  0.00  0.00    +0.000 A 
ATOM     24  C   UNL A   1     -31.400  -0.139  23.327  0.00  0.00    +0.000 A 
ATOM     25  C   UNL A   1     -32.585  -0.235  22.657  0.00  0.00    +0.000 A 
ATOM     26  C   UNL A   1     -33.233   0.739  21.968  0.00  0.00    +0.000 A 
ATOM     27  C   UNL A   1     -31.221   2.049  22.307  0.00  0.00    +0.000 A 
ATOM     28  C   UNL A   1     -32.501   1.885  21.780  0.00  0.00    +0.000 A 
ENDBRANCH  19  23
ENDBRANCH  16  20
ENDBRANCH   1  16
TORSDOF 6
ENDMDL
ENDMDL
