REMARK  Name = outputs/IAG933/test6/raw/output_1115_IAG933_linker_design_.xyz
REMARK  10 active torsions:
REMARK  status: ('A' for Active; 'I' for Inactive)
REMARK    1  A    between atoms: C_1  and  C_2
REMARK    2  A    between atoms: C_1  and  C_8
REMARK    3  A    between atoms: C_1  and  O_34
REMARK    4  A    between atoms: C_13  and  C_35
REMARK    5  A    between atoms: C_14  and  C_15
REMARK    6  A    between atoms: C_21  and  O_22
REMARK    7  A    between atoms: O_22  and  C_23
REMARK    8  A    between atoms: C_23  and  C_24
REMARK    9  A    between atoms: C_28  and  O_34
REMARK   10  A    between atoms: C_32  and  C_44
REMARK                            x       y       z     vdW  Elec       q    Type
REMARK                         _______ _______ _______ _____ _____    ______ ____
ROOT
ATOM      1  C   UNL A   1     -22.992   0.713  29.924  0.00  0.00    +0.249 C 
ATOM      2  C   UNL A   1     -22.152   1.420  27.067  0.00  0.00    +0.188 C 
ATOM      3  C   UNL A   1     -22.287   1.314  28.527  0.00  0.00    +0.193 C 
ATOM      4  O   UNL A   1     -22.869   1.980  30.791  0.00  0.00    -0.193 OA
ATOM      5  C   UNL A   1     -24.504   1.269  27.132  0.00  0.00    +0.120 C 
ATOM      6  O   UNL A   1     -20.917   1.969  27.023  0.00  0.00    -0.171 OA
ATOM      7  C   UNL A   1     -20.887   0.335  28.446  0.00  0.00    +0.360 C 
ATOM      8  O   UNL A   1     -21.211  -0.904  28.573  0.00  0.00    -0.247 OA
ATOM      9  N   UNL A   1     -24.720   0.755  28.390  0.00  0.00    -0.126 NA
ATOM     10  O   UNL A   1     -25.907   0.062  28.590  0.00  0.00    -0.118 OA
ATOM     11  O   UNL A   1     -20.168   1.090  27.830  0.00  0.00    -0.295 OA
ATOM     12  C   UNL A   1     -23.560   1.051  28.799  0.00  0.00    +0.159 C 
ATOM     13  C   UNL A   1     -23.256   1.365  26.342  0.00  0.00    +0.120 C 
ENDROOT
BRANCH   5  14
ATOM     14  C   UNL A   1     -25.688   1.614  26.461  0.00  0.00    +0.033 C 
ATOM     15  C   UNL A   1     -26.250   2.920  26.395  0.00  0.00    +0.074 C 
ATOM     16  C   UNL A   1     -27.438   3.091  25.645  0.00  0.00    +0.106 C 
ATOM     17  N   UNL A   1     -28.075   2.089  25.003  0.00  0.00    -0.208 NA
ATOM     18  C   UNL A   1     -27.543   0.849  25.079  0.00  0.00    +0.253 C 
ATOM     19  C   UNL A   1     -26.354   0.576  25.777  0.00  0.00    +0.190 C 
ATOM     20  F   UNL A   1     -25.860  -0.681  25.795  0.00  0.00    -0.200 F 
BRANCH  15  21
ATOM     21  C   UNL A   1     -25.642   4.093  27.123  0.00  0.00    +0.266 C 
ATOM     22  N   UNL A   1     -25.614   5.252  26.449  0.00  0.00    -0.200 NA
ATOM     23  C   UNL A   1     -25.026   6.479  26.963  0.00  0.00    +0.139 C 
ATOM     24  O   UNL A   1     -25.143   3.966  28.243  0.00  0.00    -0.268 OA
ENDBRANCH  15  21
BRANCH  18  25
ATOM     25  O   UNL A   1     -28.193  -0.208  24.477  0.00  0.00    -0.456 OA
BRANCH  25  26
ATOM     26  C   UNL A   1     -29.460   0.005  23.866  0.00  0.00    +0.243 C 
BRANCH  26  27
ATOM     27  C   UNL A   1     -30.065  -1.377  23.573  0.00  0.00    +0.229 C 
ATOM     28  O   UNL A   1     -30.729  -1.878  24.721  0.00  0.00    -0.216 OA
ENDBRANCH  26  27
ENDBRANCH  25  26
ENDBRANCH  18  25
ENDBRANCH   5  14
BRANCH  13  30
ATOM     29  F   UNL A   1     -23.287   3.454  25.298  0.00  0.00    -0.198 F 
ATOM     30  C   UNL A   1     -22.695   2.194  25.058  0.00  0.00    +0.323 C 
ATOM     31  F   UNL A   1     -23.384   1.058  25.014  0.00  0.00    -0.198 F 
ENDBRANCH  13  30
BRANCH   1  32
ATOM     32  O   UNL A   1     -23.347  -0.636  30.293  0.00  0.00    -0.327 OA
BRANCH  32  33
ATOM     33  C   UNL A   1     -24.855  -1.012  30.143  0.00  0.00    +0.156 C 
BRANCH  33  34
ATOM     34  C   UNL A   1     -24.973  -2.505  29.788  0.00  0.00    +0.006 C 
ATOM     35  C   UNL A   1     -23.906  -3.173  29.146  0.00  0.00    -0.002 C 
ATOM     36  C   UNL A   1     -23.989  -4.549  28.853  0.00  0.00    -0.000 C 
ATOM     37  C   UNL A   1     -25.137  -5.280  29.205  0.00  0.00    -0.000 C 
ATOM     38  C   UNL A   1     -26.232  -4.611  29.784  0.00  0.00    -0.000 C 
ATOM     39  C   UNL A   1     -26.155  -3.232  30.065  0.00  0.00    -0.002 C 
ENDBRANCH  33  34
BRANCH  33  40
ATOM     40  C   UNL A   1     -25.387  -0.679  31.571  0.00  0.00    +0.104 C 
ATOM     41  C   UNL A   1     -25.189   0.773  32.028  0.00  0.00    +0.022 C 
ATOM     42  C   UNL A   1     -25.336   0.684  33.544  0.00  0.00    +0.020 C 
ATOM     43  C   UNL A   1     -24.829  -0.715  33.905  0.00  0.00    +0.089 C 
ATOM     44  N   UNL A   1     -24.758  -1.481  32.646  0.00  0.00    -0.217 NA
ENDBRANCH  33  40
ENDBRANCH  32  33
ENDBRANCH   1  32
TORSDOF 10
