MODEL 1116
MODEL 1
REMARK VINA RESULT:    -7.041      0.000      0.000
REMARK INTER + INTRA:          -7.640
REMARK INTER:                  -7.453
REMARK INTRA:                  -0.187
REMARK UNBOUND:                -0.187
REMARK  Name = No_1116-gen_results/8p0m/2024-11-27-11-27-31/
REMARK  1 active torsions:
REMARK  status: ('A' for Active; 'I' for Inactive)
REMARK    1  A    between atoms: C_6  and  C_7
REMARK                            x       y       z     vdW  Elec       q    Type
REMARK                         _______ _______ _______ _____ _____    ______ ____
ROOT
ATOM      1  N   UNL A   1     -24.160   2.765  26.210  0.00  0.00    -0.213 NA
ATOM      2  C   UNL A   1     -24.125   1.771  25.833  0.00  0.00    +0.094 C 
ATOM      3  C   UNL A   1     -25.140   0.911  26.076  0.00  0.00    +0.044 C 
ATOM      4  C   UNL A   1     -24.997  -0.318  26.831  0.00  0.00    -0.032 C 
ATOM      5  C   UNL A   1     -25.535  -0.420  28.025  0.00  0.00    -0.033 C 
ATOM      6  C   UNL A   1     -25.167  -1.449  28.934  0.00  0.00    +0.144 C 
ATOM      7  C   UNL A   1     -23.736  -1.596  29.282  0.00  0.00    +0.043 C 
ATOM      8  C   UNL A   1     -22.791  -0.734  28.633  0.00  0.00    -0.025 A 
ATOM      9  C   UNL A   1     -21.578  -0.711  28.966  0.00  0.00    -0.005 A 
ATOM     10  C   UNL A   1     -20.797   0.332  28.500  0.00  0.00    -0.001 A 
ATOM     11  C   UNL A   1     -21.365   1.265  27.622  0.00  0.00    -0.003 A 
ATOM     12  C   UNL A   1     -22.678   1.357  27.484  0.00  0.00    -0.009 A 
ATOM     13  C   UNL A   1     -23.399   0.334  28.059  0.00  0.00    -0.025 A 
ATOM     14  C   UNL A   1     -24.646   0.547  27.957  0.00  0.00    +0.040 C 
ATOM     15  C   UNL A   1     -23.154   2.238  26.595  0.00  0.00    +0.115 C 
ATOM     16  C   UNL A   1     -25.448   1.568  28.551  0.00  0.00    +0.009 C 
ENDROOT
BRANCH   6  17
ATOM     17  C   UNL A   1     -25.980  -2.223  29.534  0.00  0.00    +0.457 C 
ATOM     18  N   UNL A   1     -27.250  -1.861  29.682  0.00  0.00    +0.200 NA
ATOM     19  N   UNL A   1     -25.753  -3.585  29.651  0.00  0.00    +0.200 NA
ENDBRANCH   6  17
TORSDOF 1
ENDMDL
ENDMDL
