MODEL 1117
MODEL 1
REMARK VINA RESULT:    -7.139      0.000      0.000
REMARK INTER + INTRA:         -13.347
REMARK INTER:                 -10.478
REMARK INTRA:                  -2.869
REMARK UNBOUND:                -2.869
REMARK  Name = No_1117-gen_results/8p0m/2024-11-27-11-27-31/
REMARK  8 active torsions:
REMARK  status: ('A' for Active; 'I' for Inactive)
REMARK    1  A    between atoms: C_1  and  C_2
REMARK    2  A    between atoms: C_6  and  C_11
REMARK    3  A    between atoms: C_11  and  C_12
REMARK    4  A    between atoms: C_11  and  O_13
REMARK    5  A    between atoms: O_13  and  C_14
REMARK    6  A    between atoms: C_14  and  C_17
REMARK    7  A    between atoms: C_18  and  C_23
REMARK    8  A    between atoms: C_28  and  C_29
REMARK                            x       y       z     vdW  Elec       q    Type
REMARK                         _______ _______ _______ _____ _____    ______ ____
ROOT
ATOM      1  O   UNL A   1     -22.653  -0.781  28.791  0.00  0.00    -0.336 OA
ENDROOT
BRANCH   1   2
ATOM      2  C   UNL A   1     -22.749   0.645  28.545  0.00  0.00    +0.243 C 
BRANCH   2   7
ATOM      3  C   UNL A   1     -25.733   0.516  26.029  0.00  0.00    +0.043 A 
ATOM      4  C   UNL A   1     -26.543   1.388  26.737  0.00  0.00    -0.001 A 
ATOM      5  C   UNL A   1     -26.217   2.032  27.987  0.00  0.00    +0.005 A 
ATOM      6  C   UNL A   1     -24.959   1.765  28.577  0.00  0.00    +0.135 A 
ATOM      7  C   UNL A   1     -24.081   0.876  27.903  0.00  0.00    +0.043 A 
ATOM      8  C   UNL A   1     -24.468   0.341  26.713  0.00  0.00    +0.002 A 
ATOM      9  F   UNL A   1     -24.632   2.265  29.722  0.00  0.00    -0.205 F 
ATOM     10  C   UNL A   1     -27.194   2.853  28.678  0.00  0.00    +0.033 C 
BRANCH   3  11
ATOM     11  C   UNL A   1     -25.999   0.041  24.949  0.00  0.00    +0.341 C 
ATOM     12  F   UNL A   1     -25.437  -0.989  24.534  0.00  0.00    -0.193 F 
ATOM     13  F   UNL A   1     -26.786   0.579  24.151  0.00  0.00    -0.193 F 
ENDBRANCH   3  11
ENDBRANCH   2   7
BRANCH   2  14
ATOM     14  C   UNL A   1     -21.592   1.000  27.820  0.00  0.00    +0.396 C 
ATOM     15  O   UNL A   1     -21.461   1.895  27.035  0.00  0.00    -0.243 OA
ATOM     16  O   UNL A   1     -20.488   0.281  28.131  0.00  0.00    -0.243 OA
ENDBRANCH   2  14
ENDBRANCH   1   2
BRANCH   1  17
ATOM     17  C   UNL A   1     -23.120  -1.229  30.044  0.00  0.00    +0.170 C 
BRANCH  17  18
ATOM     18  C   UNL A   1     -24.153  -2.300  29.978  0.00  0.00    +0.007 A 
ATOM     19  C   UNL A   1     -25.183  -1.928  30.435  0.00  0.00    -0.002 A 
ATOM     20  C   UNL A   1     -26.410  -2.748  30.255  0.00  0.00    -0.000 A 
ATOM     21  C   UNL A   1     -26.245  -3.964  29.555  0.00  0.00    -0.000 A 
ATOM     22  C   UNL A   1     -25.024  -4.297  29.013  0.00  0.00    -0.000 A 
ATOM     23  C   UNL A   1     -23.962  -3.431  29.151  0.00  0.00    -0.002 A 
BRANCH  19  24
ATOM     24  C   UNL A   1     -25.541  -0.712  31.243  0.00  0.00    -0.000 A 
ATOM     25  C   UNL A   1     -26.677   0.005  31.155  0.00  0.00    +0.000 A 
ATOM     26  C   UNL A   1     -25.097  -0.877  32.645  0.00  0.00    +0.000 A 
ATOM     27  C   UNL A   1     -25.296   0.211  33.530  0.00  0.00    +0.007 A 
ATOM     28  C   UNL A   1     -26.893   1.150  32.010  0.00  0.00    +0.007 A 
ATOM     29  C   UNL A   1     -26.231   1.173  33.233  0.00  0.00    +0.080 A 
BRANCH  29  30
ATOM     30  C   UNL A   1     -26.480   2.257  34.188  0.00  0.00    +0.388 C 
ATOM     31  O   UNL A   1     -26.054   3.263  33.947  0.00  0.00    -0.241 OA
ATOM     32  O   UNL A   1     -27.212   2.013  35.178  0.00  0.00    -0.241 OA
ENDBRANCH  29  30
ENDBRANCH  19  24
ENDBRANCH  17  18
ENDBRANCH   1  17
TORSDOF 8
ENDMDL
ENDMDL
