MODEL 1118
MODEL 1
REMARK VINA RESULT:    -5.682      0.000      0.000
REMARK INTER + INTRA:          -7.083
REMARK INTER:                  -6.678
REMARK INTRA:                  -0.405
REMARK UNBOUND:                -0.405
REMARK  Name = No_1118-gen_results/8p0m/2024-11-27-11-27-31/
REMARK  3 active torsions:
REMARK  status: ('A' for Active; 'I' for Inactive)
REMARK    1  A    between atoms: C_3  and  N_14
REMARK    2  A    between atoms: C_5  and  C_11
REMARK    3  A    between atoms: N_14  and  C_15
REMARK                            x       y       z     vdW  Elec       q    Type
REMARK                         _______ _______ _______ _____ _____    ______ ____
ROOT
ATOM      1  C   UNL A   1     -30.778  -9.488  29.763  0.00  0.00    +0.017 A 
ATOM      2  C   UNL A   1     -30.068 -10.108  30.521  0.00  0.00    -0.007 A 
ATOM      3  C   UNL A   1     -29.888  -9.817  31.862  0.00  0.00    +0.096 C 
ATOM      4  C   UNL A   1     -28.987 -10.488  32.768  0.00  0.00    +0.034 C 
ATOM      5  C   UNL A   1     -28.201 -11.555  32.273  0.00  0.00    +0.110 C 
ATOM      6  C   UNL A   1     -28.340 -11.907  30.906  0.00  0.00    +0.039 C 
ATOM      7  C   UNL A   1     -29.196 -11.195  30.124  0.00  0.00    -0.005 A 
ATOM      8  C   UNL A   1     -31.013 -10.005  28.372  0.00  0.00    +0.099 A 
ATOM      9  N   UNL A   1     -30.125 -10.906  27.862  0.00  0.00    -0.243 NA
ATOM     10  C   UNL A   1     -29.317 -11.589  28.685  0.00  0.00    +0.094 A 
ENDROOT
BRANCH   5  11
ATOM     11  C   UNL A   1     -27.282 -12.306  33.164  0.00  0.00    +0.365 C 
ATOM     12  O   UNL A   1     -26.355 -12.938  32.591  0.00  0.00    -0.246 OA
ATOM     13  O   UNL A   1     -27.432 -12.266  34.410  0.00  0.00    -0.246 OA
ENDBRANCH   5  11
BRANCH   3  14
ATOM     14  N   UNL A   1     -30.534  -8.731  32.411  0.00  0.00    -0.204 NA
BRANCH  14  15
ATOM     15  C   UNL A   1     -30.036  -7.736  32.906  0.00  0.00    +0.151 C 
ATOM     16  I   UNL A   1     -29.975  -6.463  32.375  0.00  0.00    -0.054 I 
ENDBRANCH  14  15
ENDBRANCH   3  14
TORSDOF 3
ENDMDL
ENDMDL
