REMARK  Name = outputs/IAG933/test6/raw/output_1118_IAG933_linker_design_.xyz
REMARK  14 active torsions:
REMARK  status: ('A' for Active; 'I' for Inactive)
REMARK    1  A    between atoms: C_1  and  C_2
REMARK    2  A    between atoms: C_1  and  C_8
REMARK    3  A    between atoms: C_1  and  C_50
REMARK    4  A    between atoms: C_13  and  C_31
REMARK    5  A    between atoms: C_14  and  C_15
REMARK    6  A    between atoms: C_21  and  O_22
REMARK    7  A    between atoms: O_22  and  C_23
REMARK    8  A    between atoms: C_23  and  C_24
REMARK    9  A    between atoms: C_32  and  C_37
REMARK   10  A    between atoms: C_32  and  C_48
REMARK   11  A    between atoms: C_42  and  C_50
REMARK   12  A    between atoms: C_45  and  C_50
REMARK   13  A    between atoms: C_46  and  C_48
REMARK   14  A    between atoms: C_48  and  O_51
REMARK                            x       y       z     vdW  Elec       q    Type
REMARK                         _______ _______ _______ _____ _____    ______ ____
ROOT
ATOM      1  C   UNL A   1     -25.092  -0.042  28.999  0.00  0.00    +0.025 C 
ENDROOT
BRANCH   1   8
ATOM      2  C   UNL A   1     -24.280   1.571  26.879  0.00  0.00    -0.026 C 
ATOM      3  C   UNL A   1     -21.990   1.075  28.917  0.00  0.00    +0.089 C 
ATOM      4  C   UNL A   1     -21.225   1.776  27.856  0.00  0.00    +0.024 C 
ATOM      5  N   UNL A   1     -23.290   1.559  29.111  0.00  0.00    -0.215 NA
ATOM      6  C   UNL A   1     -23.208   2.122  26.081  0.00  0.00    -0.033 C 
ATOM      7  C   UNL A   1     -21.759   2.112  26.491  0.00  0.00    +0.027 C 
ATOM      8  C   UNL A   1     -24.147   1.053  28.270  0.00  0.00    +0.091 C 
BRANCH   2   9
ATOM      9  C   UNL A   1     -25.688   1.614  26.461  0.00  0.00    +0.089 C 
ATOM     10  C   UNL A   1     -26.250   2.920  26.395  0.00  0.00    +0.059 C 
ATOM     11  C   UNL A   1     -27.438   3.091  25.645  0.00  0.00    +0.102 C 
ATOM     12  N   UNL A   1     -28.075   2.089  25.003  0.00  0.00    -0.212 NA
ATOM     13  C   UNL A   1     -27.543   0.849  25.079  0.00  0.00    +0.234 C 
ATOM     14  C   UNL A   1     -26.354   0.576  25.777  0.00  0.00    +0.244 C 
ATOM     15  F   UNL A   1     -25.860  -0.681  25.795  0.00  0.00    -0.227 F 
BRANCH  10  16
ATOM     16  C   UNL A   1     -25.642   4.093  27.123  0.00  0.00    +0.263 C 
ATOM     17  N   UNL A   1     -25.614   5.252  26.449  0.00  0.00    -0.200 NA
ATOM     18  C   UNL A   1     -25.026   6.479  26.963  0.00  0.00    +0.139 C 
ATOM     19  O   UNL A   1     -25.143   3.966  28.243  0.00  0.00    -0.269 OA
ENDBRANCH  10  16
BRANCH  13  20
ATOM     20  O   UNL A   1     -28.193  -0.208  24.477  0.00  0.00    -0.459 OA
BRANCH  20  21
ATOM     21  C   UNL A   1     -29.460   0.005  23.866  0.00  0.00    +0.242 C 
BRANCH  21  22
ATOM     22  C   UNL A   1     -30.065  -1.377  23.573  0.00  0.00    +0.229 C 
ATOM     23  O   UNL A   1     -30.729  -1.878  24.721  0.00  0.00    -0.216 OA
ENDBRANCH  21  22
ENDBRANCH  20  21
ENDBRANCH  13  20
ENDBRANCH   2   9
ENDBRANCH   1   8
BRANCH   1  27
ATOM     24  C   UNL A   1     -27.024   1.430  29.131  0.00  0.00    +0.003 C 
ATOM     25  C   UNL A   1     -28.719  -0.162  29.537  0.00  0.00    +0.002 C 
ATOM     26  C   UNL A   1     -27.591  -0.762  28.883  0.00  0.00    +0.000 C 
ATOM     27  C   UNL A   1     -26.488   0.163  28.828  0.00  0.00    +0.002 C 
ATOM     28  C   UNL A   1     -28.378   1.276  29.627  0.00  0.00    +0.027 C 
BRANCH  28  29
ATOM     29  C   UNL A   1     -28.917   2.613  30.098  0.00  0.00    +0.118 C 
BRANCH  29  31
ATOM     30  C   UNL A   1     -30.002   1.656  32.069  0.00  0.00    +0.174 C 
ATOM     31  O   UNL A   1     -29.599   2.814  31.340  0.00  0.00    -0.353 OA
ENDBRANCH  29  31
BRANCH  29  32
ATOM     32  C   UNL A   1     -27.934   3.774  29.781  0.00  0.00    +0.059 C 
BRANCH  32  36
ATOM     33  C   UNL A   1     -26.777   5.731  30.453  0.00  0.00    +0.030 C 
ATOM     34  C   UNL A   1     -26.334   4.478  33.480  0.00  0.00    +0.142 C 
ATOM     35  C   UNL A   1     -25.164   4.589  31.409  0.00  0.00    +0.000 C 
ATOM     36  C   UNL A   1     -27.542   4.585  31.017  0.00  0.00    +0.118 C 
ATOM     37  C   UNL A   1     -25.581   5.694  31.553  0.00  0.00    +0.005 C 
ATOM     38  O   UNL A   1     -27.318   4.327  32.390  0.00  0.00    -0.356 OA
ATOM     39  C   UNL A   1     -25.078   5.221  32.923  0.00  0.00    +0.032 C 
ENDBRANCH  32  36
ENDBRANCH  29  32
ENDBRANCH  28  29
ENDBRANCH   1  27
BRANCH   1  40
ATOM     40  C   UNL A   1     -24.855  -1.012  30.143  0.00  0.00    +0.040 C 
BRANCH  40  41
ATOM     41  C   UNL A   1     -24.973  -2.505  29.788  0.00  0.00    -0.021 C 
ATOM     42  C   UNL A   1     -23.906  -3.173  29.146  0.00  0.00    -0.004 C 
ATOM     43  C   UNL A   1     -23.989  -4.549  28.853  0.00  0.00    -0.000 C 
ATOM     44  C   UNL A   1     -25.137  -5.280  29.205  0.00  0.00    -0.000 C 
ATOM     45  C   UNL A   1     -26.232  -4.611  29.784  0.00  0.00    -0.000 C 
ATOM     46  C   UNL A   1     -26.155  -3.232  30.065  0.00  0.00    -0.004 C 
ENDBRANCH  40  41
BRANCH  40  47
ATOM     47  C   UNL A   1     -25.387  -0.679  31.571  0.00  0.00    +0.077 C 
ATOM     48  C   UNL A   1     -25.189   0.773  32.028  0.00  0.00    +0.019 C 
ATOM     49  C   UNL A   1     -25.336   0.684  33.544  0.00  0.00    +0.020 C 
ATOM     50  C   UNL A   1     -24.829  -0.715  33.905  0.00  0.00    +0.089 C 
ATOM     51  N   UNL A   1     -24.758  -1.481  32.646  0.00  0.00    -0.219 NA
ENDBRANCH  40  47
ENDBRANCH   1  40
TORSDOF 14
