MODEL 1119
MODEL 1
REMARK VINA RESULT:    -5.881      0.000      0.000
REMARK INTER + INTRA:          -5.881
REMARK INTER:                  -5.881
REMARK INTRA:                   0.000
REMARK UNBOUND:                 0.000
REMARK  Name = No_1119-gen_results/8p0m/2024-11-27-11-27-31/
REMARK  0 active torsions:
REMARK  status: ('A' for Active; 'I' for Inactive)
REMARK                            x       y       z     vdW  Elec       q    Type
REMARK                         _______ _______ _______ _____ _____    ______ ____
ROOT
ATOM      1  C   UNL A   1     -26.533  -3.929  30.003  0.00  0.00    -0.002 A 
ATOM      2  C   UNL A   1     -26.244  -4.828  29.534  0.00  0.00    -0.000 A 
ATOM      3  C   UNL A   1     -25.587  -2.881  30.056  0.00  0.00    +0.002 A 
ATOM      4  C   UNL A   1     -24.318  -3.015  29.530  0.00  0.00    -0.002 A 
ATOM      5  C   UNL A   1     -24.024  -4.227  28.927  0.00  0.00    -0.000 A 
ATOM      6  C   UNL A   1     -24.991  -5.208  28.865  0.00  0.00    -0.000 A 
ATOM      7  C   UNL A   1     -25.873  -1.544  30.672  0.00  0.00    +0.151 C 
ATOM      8  N   UNL A   1     -24.897  -0.700  30.851  0.00  0.00    -0.270 NA
ATOM      9  C   UNL A   1     -24.260  -0.152  29.757  0.00  0.00    +0.054 C 
ATOM     10  C   UNL A   1     -23.307  -0.972  29.007  0.00  0.00    +0.014 C 
ATOM     11  C   UNL A   1     -23.319  -2.064  29.014  0.00  0.00    +0.001 C 
ATOM     12  C   UNL A   1     -23.724   1.246  29.982  0.00  0.00    +0.052 C 
ENDROOT
TORSDOF 0
ENDMDL
ENDMDL
