REMARK  Name = outputs/IAG933/test6/raw/output_1119_IAG933_linker_design_.xyz
REMARK  9 active torsions:
REMARK  status: ('A' for Active; 'I' for Inactive)
REMARK    1  A    between atoms: C_1  and  C_2
REMARK    2  A    between atoms: C_1  and  C_8
REMARK    3  A    between atoms: C_1  and  C_29
REMARK    4  A    between atoms: C_13  and  C_46
REMARK    5  A    between atoms: C_14  and  C_15
REMARK    6  A    between atoms: C_21  and  O_22
REMARK    7  A    between atoms: O_22  and  C_23
REMARK    8  A    between atoms: C_23  and  C_24
REMARK    9  A    between atoms: C_31  and  C_33
REMARK                            x       y       z     vdW  Elec       q    Type
REMARK                         _______ _______ _______ _____ _____    ______ ____
ROOT
ATOM      1  C   UNL A   1     -24.739   0.106  29.256  0.00  0.00    -0.036 C 
ATOM      2  C   UNL A   1     -21.508   1.759  26.965  0.00  0.00    +0.030 C 
ATOM      3  C   UNL A   1     -25.802   0.810  28.733  0.00  0.00    +0.037 C 
ATOM      4  C   UNL A   1     -22.071   0.462  28.968  0.00  0.00    -0.001 C 
ATOM      5  C   UNL A   1     -22.837   1.840  26.607  0.00  0.00    +0.140 C 
ATOM      6  C   UNL A   1     -23.781   1.225  27.483  0.00  0.00    +0.020 C 
ATOM      7  C   UNL A   1     -21.125   1.035  28.101  0.00  0.00    +0.002 C 
ATOM      8  F   UNL A   1     -23.194   2.449  25.497  0.00  0.00    -0.204 F 
ATOM      9  C   UNL A   1     -23.484   0.591  28.628  0.00  0.00    -0.006 C 
ATOM     10  C   UNL A   1     -25.086   1.250  27.454  0.00  0.00    -0.032 C 
ENDROOT
BRANCH   3  13
ATOM     11  C   UNL A   1     -28.783   2.303  30.519  0.00  0.00    +0.092 C 
ATOM     12  C   UNL A   1     -30.581   1.285  29.081  0.00  0.00    +0.001 C 
ATOM     13  C   UNL A   1     -27.183   1.150  29.152  0.00  0.00    +0.009 C 
ATOM     14  C   UNL A   1     -29.420   0.962  30.059  0.00  0.00    +0.018 C 
ATOM     15  C   UNL A   1     -30.246   0.646  27.712  0.00  0.00    +0.000 C 
ATOM     16  C   UNL A   1     -27.589   2.514  29.619  0.00  0.00    +0.020 C 
ATOM     17  C   UNL A   1     -28.356   0.204  29.244  0.00  0.00    +0.002 C 
ATOM     18  C   UNL A   1     -29.008  -0.212  27.907  0.00  0.00    +0.000 C 
ATOM     19  N   UNL A   1     -28.389   2.246  31.948  0.00  0.00    -0.133 NA
ENDBRANCH   3  13
BRANCH  10  20
ATOM     20  C   UNL A   1     -25.688   1.614  26.461  0.00  0.00    +0.089 C 
ATOM     21  C   UNL A   1     -26.250   2.920  26.395  0.00  0.00    +0.059 C 
ATOM     22  C   UNL A   1     -27.438   3.091  25.645  0.00  0.00    +0.102 C 
ATOM     23  N   UNL A   1     -28.075   2.089  25.003  0.00  0.00    -0.212 NA
ATOM     24  C   UNL A   1     -27.543   0.849  25.079  0.00  0.00    +0.234 C 
ATOM     25  C   UNL A   1     -26.354   0.576  25.777  0.00  0.00    +0.244 C 
ATOM     26  F   UNL A   1     -25.860  -0.681  25.795  0.00  0.00    -0.227 F 
BRANCH  21  27
ATOM     27  C   UNL A   1     -25.642   4.093  27.123  0.00  0.00    +0.263 C 
ATOM     28  N   UNL A   1     -25.614   5.252  26.449  0.00  0.00    -0.200 NA
ATOM     29  C   UNL A   1     -25.026   6.479  26.963  0.00  0.00    +0.139 C 
ATOM     30  O   UNL A   1     -25.143   3.966  28.243  0.00  0.00    -0.269 OA
ENDBRANCH  21  27
BRANCH  24  31
ATOM     31  O   UNL A   1     -28.193  -0.208  24.477  0.00  0.00    -0.459 OA
BRANCH  31  32
ATOM     32  C   UNL A   1     -29.460   0.005  23.866  0.00  0.00    +0.242 C 
BRANCH  32  33
ATOM     33  C   UNL A   1     -30.065  -1.377  23.573  0.00  0.00    +0.229 C 
ATOM     34  O   UNL A   1     -30.729  -1.878  24.721  0.00  0.00    -0.216 OA
ENDBRANCH  32  33
ENDBRANCH  31  32
ENDBRANCH  24  31
ENDBRANCH  10  20
BRANCH   1  35
ATOM     35  C   UNL A   1     -24.855  -1.012  30.143  0.00  0.00    +0.057 C 
BRANCH  35  36
ATOM     36  C   UNL A   1     -24.973  -2.505  29.788  0.00  0.00    -0.017 C 
ATOM     37  C   UNL A   1     -23.906  -3.173  29.146  0.00  0.00    -0.004 C 
ATOM     38  C   UNL A   1     -23.989  -4.549  28.853  0.00  0.00    -0.000 C 
ATOM     39  C   UNL A   1     -25.137  -5.280  29.205  0.00  0.00    -0.000 C 
ATOM     40  C   UNL A   1     -26.232  -4.611  29.784  0.00  0.00    -0.000 C 
ATOM     41  C   UNL A   1     -26.155  -3.232  30.065  0.00  0.00    -0.004 C 
ENDBRANCH  35  36
BRANCH  35  42
ATOM     42  C   UNL A   1     -25.387  -0.679  31.571  0.00  0.00    +0.081 C 
ATOM     43  C   UNL A   1     -25.189   0.773  32.028  0.00  0.00    +0.019 C 
ATOM     44  C   UNL A   1     -25.336   0.684  33.544  0.00  0.00    +0.020 C 
ATOM     45  C   UNL A   1     -24.829  -0.715  33.905  0.00  0.00    +0.089 C 
ATOM     46  N   UNL A   1     -24.758  -1.481  32.646  0.00  0.00    -0.219 NA
ENDBRANCH  35  42
ENDBRANCH   1  35
TORSDOF 9
