MODEL 1121
MODEL 1
REMARK VINA RESULT:    -6.011      0.000      0.000
REMARK INTER + INTRA:          -7.098
REMARK INTER:                  -6.714
REMARK INTRA:                  -0.384
REMARK UNBOUND:                -0.384
REMARK  Name = No_1121-gen_results/8p0m/2024-11-27-11-27-31/
REMARK  2 active torsions:
REMARK  status: ('A' for Active; 'I' for Inactive)
REMARK    1  A    between atoms: C_1  and  C_2
REMARK    2  A    between atoms: C_7  and  C_8
REMARK                            x       y       z     vdW  Elec       q    Type
REMARK                         _______ _______ _______ _____ _____    ______ ____
ROOT
ATOM      1  C   UNL A   1     -23.977  -2.472  29.366  0.00  0.00    +0.006 A 
ATOM      2  C   UNL A   1     -23.952  -1.870  30.753  0.00  0.00    +0.000 A 
ATOM      3  C   UNL A   1     -23.144  -0.757  31.186  0.00  0.00    -0.000 A 
ATOM      4  C   UNL A   1     -22.677   0.136  30.293  0.00  0.00    +0.004 A 
ATOM      5  C   UNL A   1     -22.913  -0.108  28.926  0.00  0.00    +0.071 A 
ATOM      6  C   UNL A   1     -23.559  -1.265  28.560  0.00  0.00    +0.004 A 
ENDROOT
BRANCH   1   7
ATOM      7  C   UNL A   1     -24.717  -3.204  29.204  0.00  0.00    +0.053 C 
ATOM      8  C   UNL A   1     -24.320  -4.627  28.809  0.00  0.00    +0.129 C 
ATOM      9  C   UNL A   1     -26.155  -3.335  29.790  0.00  0.00    +0.043 C 
ATOM     10  O   UNL A   1     -24.838  -5.679  29.111  0.00  0.00    -0.232 OA
ENDBRANCH   1   7
BRANCH   5  11
ATOM     11  C   UNL A   1     -22.460   0.780  27.990  0.00  0.00    +0.419 C 
ATOM     12  F   UNL A   1     -21.357   0.746  27.691  0.00  0.00    -0.166 F 
ATOM     13  F   UNL A   1     -22.742   2.051  28.456  0.00  0.00    -0.166 F 
ATOM     14  F   UNL A   1     -23.372   0.616  26.906  0.00  0.00    -0.166 F 
ENDBRANCH   5  11
TORSDOF 2
ENDMDL
ENDMDL
