REMARK  Name = No_1121-gen_results/8p0m/2024-11-27-11-27-31/
REMARK  2 active torsions:
REMARK  status: ('A' for Active; 'I' for Inactive)
REMARK    1  A    between atoms: C_1  and  C_2
REMARK    2  A    between atoms: C_7  and  C_8
REMARK                            x       y       z     vdW  Elec       q    Type
REMARK                         _______ _______ _______ _____ _____    ______ ____
ROOT
ATOM      1  C   UNL A   1     -28.016  -0.814  28.878  0.00  0.00    +0.006 A 
ATOM      2  C   UNL A   1     -26.504  -0.778  28.877  0.00  0.00    +0.000 A 
ATOM      3  C   UNL A   1     -25.654  -0.660  27.719  0.00  0.00    -0.000 A 
ATOM      4  C   UNL A   1     -26.123  -0.117  26.580  0.00  0.00    +0.004 A 
ATOM      5  C   UNL A   1     -27.487   0.232  26.524  0.00  0.00    +0.071 A 
ATOM      6  C   UNL A   1     -28.287  -0.043  27.608  0.00  0.00    +0.004 A 
ENDROOT
BRANCH   1   7
ATOM      7  C   UNL A   1     -28.469  -0.785  29.829  0.00  0.00    +0.053 C 
ATOM      8  C   UNL A   1     -29.992  -0.813  29.958  0.00  0.00    +0.129 C 
ATOM      9  C   UNL A   1     -27.938  -1.257  31.216  0.00  0.00    +0.043 C 
ATOM     10  O   UNL A   1     -30.680  -1.333  30.809  0.00  0.00    -0.232 OA
ENDBRANCH   1   7
BRANCH   5  11
ATOM     11  C   UNL A   1     -27.998   0.792  25.387  0.00  0.00    +0.419 C 
ATOM     12  F   UNL A   1     -27.700   1.864  25.122  0.00  0.00    -0.166 F 
ATOM     13  F   UNL A   1     -29.376   0.739  25.483  0.00  0.00    -0.166 F 
ATOM     14  F   UNL A   1     -27.700  -0.171  24.378  0.00  0.00    -0.166 F 
ENDBRANCH   5  11
TORSDOF 2
