MODEL 1122
MODEL 1
REMARK VINA RESULT:    -5.151      0.000      0.000
REMARK INTER + INTRA:          -5.647
REMARK INTER:                  -5.453
REMARK INTRA:                  -0.194
REMARK UNBOUND:                -0.194
REMARK  Name = No_1122-gen_results/8p0m/2024-11-27-11-27-31/
REMARK  1 active torsions:
REMARK  status: ('A' for Active; 'I' for Inactive)
REMARK    1  A    between atoms: C_3  and  C_7
REMARK                            x       y       z     vdW  Elec       q    Type
REMARK                         _______ _______ _______ _____ _____    ______ ____
ROOT
ATOM      1  C   UNL A   1     -25.827  -2.584  29.782  0.00  0.00    +0.004 A 
ATOM      2  C   UNL A   1     -26.376  -3.476  29.897  0.00  0.00    -0.000 A 
ATOM      3  C   UNL A   1     -24.540  -2.672  29.207  0.00  0.00    +0.071 A 
ATOM      4  C   UNL A   1     -23.996  -3.879  28.814  0.00  0.00    +0.004 A 
ATOM      5  C   UNL A   1     -24.788  -5.000  28.995  0.00  0.00    -0.000 A 
ATOM      6  C   UNL A   1     -26.053  -4.862  29.527  0.00  0.00    -0.000 A 
ENDROOT
BRANCH   3   7
ATOM      7  C   UNL A   1     -23.662  -1.480  28.965  0.00  0.00    +0.419 C 
ATOM      8  F   UNL A   1     -22.504  -1.804  28.902  0.00  0.00    -0.166 F 
ATOM      9  F   UNL A   1     -23.751  -0.520  29.949  0.00  0.00    -0.166 F 
ATOM     10  F   UNL A   1     -24.069  -0.787  27.839  0.00  0.00    -0.166 F 
ENDBRANCH   3   7
TORSDOF 1
ENDMDL
ENDMDL
