REMARK  Name = No_1123-gen_results/8p0m/2024-11-27-11-27-31/
REMARK  5 active torsions:
REMARK  status: ('A' for Active; 'I' for Inactive)
REMARK    1  A    between atoms: C_8  and  C_14
REMARK    2  A    between atoms: C_10  and  C_11
REMARK    3  A    between atoms: C_14  and  C_15
REMARK    4  A    between atoms: C_15  and  C_16
REMARK    5  A    between atoms: C_16  and  C_17
REMARK                            x       y       z     vdW  Elec       q    Type
REMARK                         _______ _______ _______ _____ _____    ______ ____
ROOT
ATOM      1  C   UNL A   1     -28.016  -0.814  28.878  0.00  0.00    -0.000 A 
ATOM      2  C   UNL A   1     -28.469  -0.785  29.829  0.00  0.00    -0.000 A 
ATOM      3  C   UNL A   1     -27.087   0.290  28.638  0.00  0.00    -0.000 A 
ATOM      4  C   UNL A   1     -26.832   1.249  29.587  0.00  0.00    +0.006 A 
ATOM      5  C   UNL A   1     -28.391   0.080  31.006  0.00  0.00    +0.000 A 
ATOM      6  C   UNL A   1     -27.494   1.152  30.784  0.00  0.00    +0.000 A 
ATOM      7  C   UNL A   1     -26.317   0.399  27.365  0.00  0.00    -0.004 A 
ATOM      8  C   UNL A   1     -25.432   1.487  27.280  0.00  0.00    -0.022 A 
ATOM      9  C   UNL A   1     -25.246   2.430  28.295  0.00  0.00    +0.002 A 
ATOM     10  C   UNL A   1     -25.929   2.331  29.468  0.00  0.00    +0.080 A 
ENDROOT
BRANCH  10  11
ATOM     11  C   UNL A   1     -25.670   3.367  30.489  0.00  0.00    +0.388 C 
ATOM     12  O   UNL A   1     -24.820   3.102  31.342  0.00  0.00    -0.241 OA
ATOM     13  O   UNL A   1     -26.387   4.401  30.526  0.00  0.00    -0.241 OA
ENDBRANCH  10  11
BRANCH   8  14
ATOM     14  C   UNL A   1     -24.662   1.582  26.007  0.00  0.00    +0.027 C 
BRANCH  14  15
ATOM     15  C   UNL A   1     -23.469   2.390  26.043  0.00  0.00    +0.009 C 
BRANCH  15  16
ATOM     16  C   UNL A   1     -22.399   1.946  26.683  0.00  0.00    +0.028 C 
BRANCH  16  17
ATOM     17  C   UNL A   1     -22.294   1.260  27.905  0.00  0.00    -0.003 A 
ATOM     18  C   UNL A   1     -21.189   0.650  28.393  0.00  0.00    +0.095 A 
ATOM     19  N   UNL A   1     -21.315  -0.251  29.395  0.00  0.00    -0.243 NA
ATOM     20  C   UNL A   1     -22.479  -0.903  29.662  0.00  0.00    +0.099 A 
ATOM     21  C   UNL A   1     -23.687  -0.272  29.186  0.00  0.00    +0.020 A 
ATOM     22  C   UNL A   1     -23.572   0.630  28.307  0.00  0.00    -0.001 A 
ENDBRANCH  16  17
ENDBRANCH  15  16
ENDBRANCH  14  15
ENDBRANCH   8  14
TORSDOF 5
