MODEL 1124
MODEL 1
REMARK VINA RESULT:    -7.989      0.000      0.000
REMARK INTER + INTRA:         -10.128
REMARK INTER:                  -9.390
REMARK INTRA:                  -0.738
REMARK UNBOUND:                -0.738
REMARK  Name = No_1124-gen_results/8p0m/2024-11-27-11-27-31/
REMARK  3 active torsions:
REMARK  status: ('A' for Active; 'I' for Inactive)
REMARK    1  A    between atoms: C_1  and  O_14
REMARK    2  A    between atoms: C_3  and  C_8
REMARK    3  A    between atoms: O_14  and  C_15
REMARK                            x       y       z     vdW  Elec       q    Type
REMARK                         _______ _______ _______ _____ _____    ______ ____
ROOT
ATOM      1  C   UNL A   1     -24.004  -0.653  28.220  0.00  0.00    +0.172 A 
ATOM      2  C   UNL A   1     -24.975  -0.532  27.510  0.00  0.00    +0.040 A 
ATOM      3  C   UNL A   1     -25.120   0.486  26.568  0.00  0.00    +0.003 A 
ATOM      4  C   UNL A   1     -24.088   1.498  26.458  0.00  0.00    +0.003 A 
ATOM      5  C   UNL A   1     -22.989   1.297  27.325  0.00  0.00    +0.033 A 
ATOM      6  C   UNL A   1     -22.945   0.311  28.184  0.00  0.00    +0.174 A 
ATOM      7  F   UNL A   1     -21.877   0.223  28.964  0.00  0.00    -0.201 F 
ENDROOT
BRANCH   3   8
ATOM      8  C   UNL A   1     -26.164   0.843  25.525  0.00  0.00    +0.000 A 
ATOM      9  C   UNL A   1     -26.761   0.149  24.668  0.00  0.00    +0.000 A 
ATOM     10  C   UNL A   1     -27.722   0.688  23.768  0.00  0.00    +0.000 A 
ATOM     11  C   UNL A   1     -28.303   1.909  23.936  0.00  0.00    +0.000 A 
ATOM     12  C   UNL A   1     -26.501   2.351  25.610  0.00  0.00    +0.000 A 
ATOM     13  C   UNL A   1     -27.597   2.766  24.774  0.00  0.00    +0.000 A 
ENDBRANCH   3   8
BRANCH   1  14
ATOM     14  O   UNL A   1     -23.895  -1.620  29.158  0.00  0.00    -0.451 OA
BRANCH  14  15
ATOM     15  C   UNL A   1     -24.584  -2.790  28.976  0.00  0.00    +0.145 A 
ATOM     16  C   UNL A   1     -23.879  -3.920  28.615  0.00  0.00    +0.037 A 
ATOM     17  C   UNL A   1     -24.520  -5.121  28.807  0.00  0.00    +0.003 A 
ATOM     18  C   UNL A   1     -25.543  -5.114  29.321  0.00  0.00    +0.000 A 
ATOM     19  C   UNL A   1     -25.805  -3.173  29.633  0.00  0.00    +0.037 A 
ATOM     20  C   UNL A   1     -26.407  -4.181  29.766  0.00  0.00    +0.003 A 
ENDBRANCH  14  15
ENDBRANCH   1  14
TORSDOF 3
ENDMDL
ENDMDL
