MODEL 1125
MODEL 1
REMARK VINA RESULT:    -7.542      0.000      0.000
REMARK INTER + INTRA:         -12.520
REMARK INTER:                 -11.070
REMARK INTRA:                  -1.450
REMARK UNBOUND:                -1.450
REMARK  Name = No_1125-gen_results/8p0m/2024-11-27-11-27-31/
REMARK  8 active torsions:
REMARK  status: ('A' for Active; 'I' for Inactive)
REMARK    1  A    between atoms: C_1  and  O_26
REMARK    2  A    between atoms: C_3  and  C_4
REMARK    3  A    between atoms: C_6  and  P_14
REMARK    4  A    between atoms: P_14  and  O_16
REMARK    5  A    between atoms: O_16  and  C_18
REMARK    6  A    between atoms: C_18  and  C_19
REMARK    7  A    between atoms: O_26  and  C_27
REMARK    8  A    between atoms: C_27  and  C_28
REMARK                            x       y       z     vdW  Elec       q    Type
REMARK                         _______ _______ _______ _____ _____    ______ ____
ROOT
ATOM      1  C   UNL A   1     -25.427   1.600  26.096  0.00  0.00    +0.000 A 
ATOM      2  C   UNL A   1     -25.618   1.570  27.511  0.00  0.00    +0.007 A 
ATOM      3  C   UNL A   1     -24.501   1.618  28.345  0.00  0.00    +0.082 A 
ATOM      4  C   UNL A   1     -23.243   1.849  27.773  0.00  0.00    +0.007 A 
ATOM      5  C   UNL A   1     -23.055   1.898  26.413  0.00  0.00    +0.000 A 
ATOM      6  C   UNL A   1     -24.185   1.811  25.571  0.00  0.00    +0.000 A 
ENDROOT
BRANCH   1   9
ATOM      7  C   UNL A   1     -28.181   0.590  23.884  0.00  0.00    +0.166 A 
ATOM      8  C   UNL A   1     -27.167   0.524  24.539  0.00  0.00    +0.039 A 
ATOM      9  C   UNL A   1     -26.658   1.588  25.282  0.00  0.00    +0.003 A 
ATOM     10  C   UNL A   1     -28.845   1.875  23.663  0.00  0.00    +0.174 A 
ATOM     11  C   UNL A   1     -28.513   2.984  24.424  0.00  0.00    +0.033 A 
ATOM     12  C   UNL A   1     -27.358   2.891  25.235  0.00  0.00    +0.003 A 
ATOM     13  F   UNL A   1     -29.951   1.948  22.949  0.00  0.00    -0.201 F 
BRANCH   7  14
ATOM     14  O   UNL A   1     -28.621  -0.441  23.080  0.00  0.00    -0.468 OA
BRANCH  14  15
ATOM     15  C   UNL A   1     -29.108  -1.610  23.467  0.00  0.00    +0.232 C 
BRANCH  15  16
ATOM     16  C   UNL A   1     -30.339  -1.569  24.048  0.00  0.00    +0.021 C 
ATOM     17  C   UNL A   1     -31.430  -1.278  23.402  0.00  0.00    -0.001 C 
ENDBRANCH  15  16
ENDBRANCH  14  15
ENDBRANCH   7  14
ENDBRANCH   1   9
BRANCH   3  18
ATOM     18  P   UNL A   1     -24.724   1.613  30.111  0.00  0.00    +0.392 P 
ATOM     19  O   UNL A   1     -25.800   2.251  30.399  0.00  0.00    -0.251 OA
ATOM     20  O   UNL A   1     -23.429   1.627  30.828  0.00  0.00    -0.136 OA
BRANCH  18  21
ATOM     21  O   UNL A   1     -24.953  -0.004  30.242  0.00  0.00    -0.285 OA
BRANCH  21  22
ATOM     22  C   UNL A   1     -23.937  -0.914  30.088  0.00  0.00    +0.178 C 
BRANCH  22  23
ATOM     23  C   UNL A   1     -24.454  -2.238  29.771  0.00  0.00    +0.009 A 
ATOM     24  C   UNL A   1     -25.805  -2.510  30.176  0.00  0.00    +0.010 A 
ATOM     25  C   UNL A   1     -26.324  -3.814  29.913  0.00  0.00    +0.057 A 
ATOM     26  C   UNL A   1     -25.596  -4.744  29.162  0.00  0.00    +0.011 A 
ATOM     27  C   UNL A   1     -24.302  -4.420  28.728  0.00  0.00    +0.001 A 
ATOM     28  C   UNL A   1     -23.747  -3.157  29.019  0.00  0.00    -0.002 A 
ATOM     29 CL   UNL A   1     -27.858  -4.166  30.414  0.00  0.00    -0.082 Cl
ENDBRANCH  22  23
ENDBRANCH  21  22
ENDBRANCH  18  21
ENDBRANCH   3  18
TORSDOF 8
ENDMDL
ENDMDL
