MODEL 1126
MODEL 1
REMARK VINA RESULT:    -4.289      0.000      0.000
REMARK INTER + INTRA:          -4.289
REMARK INTER:                  -4.289
REMARK INTRA:                   0.000
REMARK UNBOUND:                 0.000
REMARK  Name = No_1126-gen_results/8p0m/2024-11-27-11-27-31/
REMARK  0 active torsions:
REMARK  status: ('A' for Active; 'I' for Inactive)
REMARK                            x       y       z     vdW  Elec       q    Type
REMARK                         _______ _______ _______ _____ _____    ______ ____
ROOT
ATOM      1  C   UNL A   1     -24.969  -5.372  28.976  0.00  0.00    +0.000 A 
ATOM      2  C   UNL A   1     -24.191  -4.697  28.751  0.00  0.00    +0.000 A 
ATOM      3  C   UNL A   1     -26.135  -4.738  29.590  0.00  0.00    +0.000 A 
ATOM      4  C   UNL A   1     -26.193  -3.386  29.823  0.00  0.00    +0.000 A 
ATOM      5  C   UNL A   1     -23.980  -3.255  28.877  0.00  0.00    +0.000 A 
ATOM      6  C   UNL A   1     -25.104  -2.632  29.471  0.00  0.00    +0.000 A 
ENDROOT
TORSDOF 0
ENDMDL
ENDMDL
