MODEL 1127
MODEL 1
REMARK VINA RESULT:    -4.511      0.000      0.000
REMARK INTER + INTRA:          -4.511
REMARK INTER:                  -4.511
REMARK INTRA:                   0.000
REMARK UNBOUND:                 0.000
REMARK  Name = No_1127-gen_results/8p0m/2024-11-27-11-27-31/
REMARK  0 active torsions:
REMARK  status: ('A' for Active; 'I' for Inactive)
REMARK                            x       y       z     vdW  Elec       q    Type
REMARK                         _______ _______ _______ _____ _____    ______ ____
ROOT
ATOM      1  C   UNL A   1     -26.040  -4.691  29.523  0.00  0.00    +0.030 A 
ATOM      2  C   UNL A   1     -25.033  -5.067  28.969  0.00  0.00    +0.140 A 
ATOM      3  C   UNL A   1     -23.999  -4.252  28.639  0.00  0.00    +0.030 A 
ATOM      4  C   UNL A   1     -24.098  -2.885  28.958  0.00  0.00    +0.002 A 
ATOM      5  C   UNL A   1     -26.168  -3.325  29.965  0.00  0.00    +0.002 A 
ATOM      6  C   UNL A   1     -25.169  -2.460  29.632  0.00  0.00    +0.000 A 
ATOM      7  F   UNL A   1     -24.867  -6.371  28.628  0.00  0.00    -0.204 F 
ENDROOT
TORSDOF 0
ENDMDL
ENDMDL
