REMARK  Name = outputs/IAG933/test6/raw/output_1128_IAG933_linker_design_.xyz
REMARK  13 active torsions:
REMARK  status: ('A' for Active; 'I' for Inactive)
REMARK    1  A    between atoms: C_1  and  C_2
REMARK    2  A    between atoms: C_1  and  C_8
REMARK    3  A    between atoms: C_9  and  C_42
REMARK    4  A    between atoms: C_13  and  C_33
REMARK    5  A    between atoms: C_14  and  C_15
REMARK    6  A    between atoms: C_21  and  O_22
REMARK    7  A    between atoms: O_22  and  C_23
REMARK    8  A    between atoms: C_23  and  C_24
REMARK    9  A    between atoms: C_28  and  C_42
REMARK   10  A    between atoms: C_29  and  N_31
REMARK   11  A    between atoms: C_29  and  C_42
REMARK   12  A    between atoms: N_31  and  N_40
REMARK   13  A    between atoms: C_35  and  C_42
REMARK                            x       y       z     vdW  Elec       q    Type
REMARK                         _______ _______ _______ _____ _____    ______ ____
ROOT
ATOM      1  N   UNL A   1     -25.418   1.580  29.233  0.00  0.00    -0.130 NA
ENDROOT
BRANCH   1   6
ATOM      2  C   UNL A   1     -24.412   1.399  27.230  0.00  0.00    +0.075 C 
ATOM      3  C   UNL A   1     -23.125   1.712  26.809  0.00  0.00    +0.084 C 
ATOM      4 CL   UNL A   1     -22.772   2.302  25.197  0.00  0.00    -0.083 Cl
ATOM      5  F   UNL A   1     -20.917   1.651  27.750  0.00  0.00    -0.230 F 
ATOM      6  N   UNL A   1     -24.363   1.203  28.460  0.00  0.00    -0.233 N 
ATOM      7  C   UNL A   1     -22.291   1.470  27.811  0.00  0.00    +0.216 C 
ATOM      8  C   UNL A   1     -23.024   1.083  28.907  0.00  0.00    +0.151 C 
BRANCH   2   9
ATOM      9  C   UNL A   1     -25.688   1.614  26.461  0.00  0.00    +0.053 C 
ATOM     10  C   UNL A   1     -26.250   2.920  26.395  0.00  0.00    +0.078 C 
ATOM     11  C   UNL A   1     -27.438   3.091  25.645  0.00  0.00    +0.107 C 
ATOM     12  N   UNL A   1     -28.075   2.089  25.003  0.00  0.00    -0.208 NA
ATOM     13  C   UNL A   1     -27.543   0.849  25.079  0.00  0.00    +0.253 C 
ATOM     14  C   UNL A   1     -26.354   0.576  25.777  0.00  0.00    +0.194 C 
ATOM     15  F   UNL A   1     -25.860  -0.681  25.795  0.00  0.00    -0.199 F 
BRANCH  10  16
ATOM     16  C   UNL A   1     -25.642   4.093  27.123  0.00  0.00    +0.267 C 
ATOM     17  N   UNL A   1     -25.614   5.252  26.449  0.00  0.00    -0.200 NA
ATOM     18  C   UNL A   1     -25.026   6.479  26.963  0.00  0.00    +0.139 C 
ATOM     19  O   UNL A   1     -25.143   3.966  28.243  0.00  0.00    -0.268 OA
ENDBRANCH  10  16
BRANCH  13  20
ATOM     20  O   UNL A   1     -28.193  -0.208  24.477  0.00  0.00    -0.456 OA
BRANCH  20  21
ATOM     21  C   UNL A   1     -29.460   0.005  23.866  0.00  0.00    +0.243 C 
BRANCH  21  22
ATOM     22  C   UNL A   1     -30.065  -1.377  23.573  0.00  0.00    +0.229 C 
ATOM     23  O   UNL A   1     -30.729  -1.878  24.721  0.00  0.00    -0.216 OA
ENDBRANCH  21  22
ENDBRANCH  20  21
ENDBRANCH  13  20
ENDBRANCH   2   9
ENDBRANCH   1   6
BRANCH   1  24
ATOM     24  C   UNL A   1     -25.372   2.183  30.242  0.00  0.00    +0.114 C 
BRANCH  24  25
ATOM     25  C   UNL A   1     -26.312   1.734  31.437  0.00  0.00    +0.050 C 
BRANCH  25  29
ATOM     26  C   UNL A   1     -28.127   2.640  33.155  0.00  0.00    +0.000 C 
ATOM     27  C   UNL A   1     -28.156   3.683  34.171  0.00  0.00    +0.000 C 
ATOM     28  C   UNL A   1     -25.906   4.547  34.539  0.00  0.00    +0.000 C 
ATOM     29  C   UNL A   1     -27.232   2.953  32.397  0.00  0.00    +0.004 C 
ATOM     30  C   UNL A   1     -27.191   4.786  33.759  0.00  0.00    +0.000 C 
ATOM     31  C   UNL A   1     -27.045   4.403  32.310  0.00  0.00    +0.000 C 
ENDBRANCH  25  29
BRANCH  25  33
ATOM     32  C   UNL A   1     -25.387  -0.679  31.571  0.00  0.00    +0.077 C 
ATOM     33  C   UNL A   1     -25.189   0.773  32.028  0.00  0.00    +0.022 C 
ATOM     34  C   UNL A   1     -25.336   0.684  33.544  0.00  0.00    +0.020 C 
ATOM     35  C   UNL A   1     -24.829  -0.715  33.905  0.00  0.00    +0.089 C 
ATOM     36  N   UNL A   1     -24.758  -1.481  32.646  0.00  0.00    -0.219 NA
BRANCH  32  37
ATOM     37  C   UNL A   1     -24.855  -1.012  30.143  0.00  0.00    +0.044 C 
BRANCH  37  38
ATOM     38  C   UNL A   1     -24.973  -2.505  29.788  0.00  0.00    -0.021 C 
ATOM     39  C   UNL A   1     -23.906  -3.173  29.146  0.00  0.00    -0.004 C 
ATOM     40  C   UNL A   1     -23.989  -4.549  28.853  0.00  0.00    -0.000 C 
ATOM     41  C   UNL A   1     -25.137  -5.280  29.205  0.00  0.00    -0.000 C 
ATOM     42  C   UNL A   1     -26.232  -4.611  29.784  0.00  0.00    -0.000 C 
ATOM     43  C   UNL A   1     -26.155  -3.232  30.065  0.00  0.00    -0.004 C 
ENDBRANCH  37  38
ENDBRANCH  32  37
ENDBRANCH  25  33
BRANCH  25  44
ATOM     44  C   UNL A   1     -27.601   1.605  30.282  0.00  0.00    +0.183 C 
ATOM     45  O   UNL A   1     -28.950   2.003  30.556  0.00  0.00    -0.220 OA
ENDBRANCH  25  44
ENDBRANCH  24  25
ENDBRANCH   1  24
TORSDOF 13
