MODEL 1128
MODEL 1
REMARK VINA RESULT:    -5.683      0.000      0.000
REMARK INTER + INTRA:          -6.801
REMARK INTER:                  -6.679
REMARK INTRA:                  -0.122
REMARK UNBOUND:                -0.122
REMARK  Name = No_1128-gen_results/8p0m/2024-11-27-11-27-31/
REMARK  3 active torsions:
REMARK  status: ('A' for Active; 'I' for Inactive)
REMARK    1  A    between atoms: C_1  and  C_2
REMARK    2  A    between atoms: C_5  and  C_9
REMARK    3  A    between atoms: C_8  and  C_11
REMARK                            x       y       z     vdW  Elec       q    Type
REMARK                         _______ _______ _______ _____ _____    ______ ____
ROOT
ATOM      1  C   UNL A   1     -29.750 -14.146  12.588  0.00  0.00    -0.060 C 
ATOM      2  C   UNL A   1     -30.254 -15.404  12.013  0.00  0.00    -0.060 C 
ENDROOT
BRANCH   1   3
ATOM      3  C   UNL A   1     -30.044 -13.155  11.958  0.00  0.00    +0.042 A 
ATOM      4  C   UNL A   1     -29.210 -12.565  11.029  0.00  0.00    +0.008 A 
ATOM      5  C   UNL A   1     -29.483 -11.337  10.307  0.00  0.00    -0.002 A 
ATOM      6  C   UNL A   1     -30.703 -10.667  10.542  0.00  0.00    -0.006 A 
ATOM      7  C   UNL A   1     -31.577 -11.265  11.520  0.00  0.00    -0.002 A 
ATOM      8  C   UNL A   1     -31.280 -12.411  12.220  0.00  0.00    +0.008 A 
BRANCH   6   9
ATOM      9  C   UNL A   1     -31.067  -9.435   9.892  0.00  0.00    +0.121 C 
ATOM     10 CL   UNL A   1     -31.512  -8.337  10.622  0.00  0.00    -0.108 Cl
ENDBRANCH   6   9
ENDBRANCH   1   3
BRANCH   2  11
ATOM     11  C   UNL A   1     -30.520 -15.457  11.028  0.00  0.00    +0.042 A 
ATOM     12  C   UNL A   1     -29.473 -15.839   9.996  0.00  0.00    +0.008 A 
ATOM     13  C   UNL A   1     -29.747 -16.009   8.608  0.00  0.00    +0.001 A 
ATOM     14  C   UNL A   1     -31.080 -15.737   8.211  0.00  0.00    +0.000 A 
ATOM     15  C   UNL A   1     -32.036 -15.356   9.065  0.00  0.00    +0.001 A 
ATOM     16  C   UNL A   1     -31.787 -15.253  10.401  0.00  0.00    +0.008 A 
ENDBRANCH   2  11
TORSDOF 3
ENDMDL
ENDMDL
