MODEL 1129
MODEL 1
REMARK VINA RESULT:    -6.910      0.000      0.000
REMARK INTER + INTRA:         -11.179
REMARK INTER:                  -9.334
REMARK INTRA:                  -1.844
REMARK UNBOUND:                -1.844
REMARK  Name = No_1129-gen_results/8p0m/2024-11-27-11-27-31/
REMARK  6 active torsions:
REMARK  status: ('A' for Active; 'I' for Inactive)
REMARK    1  A    between atoms: C_1  and  C_2
REMARK    2  A    between atoms: C_5  and  C_11
REMARK    3  A    between atoms: C_10  and  C_14
REMARK    4  A    between atoms: N_16  and  C_17
REMARK    5  A    between atoms: N_16  and  C_18
REMARK    6  A    between atoms: C_17  and  C_20
REMARK                            x       y       z     vdW  Elec       q    Type
REMARK                         _______ _______ _______ _____ _____    ______ ____
ROOT
ATOM      1  C   UNL A   1     -29.506 -13.409   6.572  0.00  0.00    +0.309 C 
ATOM      2  O   UNL A   1     -29.942 -14.369   6.100  0.00  0.00    -0.265 OA
ATOM      3  N   UNL A   1     -30.024 -12.854   7.730  0.00  0.00    -0.247 N 
ENDROOT
BRANCH   3   4
ATOM      4  C   UNL A   1     -29.569 -11.644   8.317  0.00  0.00    +0.055 A 
ATOM      5  C   UNL A   1     -28.541 -11.661   9.168  0.00  0.00    +0.015 A 
ATOM      6  C   UNL A   1     -28.043 -10.586   9.707  0.00  0.00    +0.001 A 
ATOM      7  C   UNL A   1     -28.710  -9.350   9.414  0.00  0.00    +0.000 A 
ATOM      8  C   UNL A   1     -29.846  -9.290   8.568  0.00  0.00    +0.001 A 
ATOM      9  C   UNL A   1     -30.323 -10.497   7.998  0.00  0.00    +0.015 A 
ENDBRANCH   3   4
BRANCH   1  13
ATOM     10  C   UNL A   1     -26.118 -13.168   6.324  0.00  0.00    +0.272 C 
ATOM     11  N   UNL A   1     -27.378 -13.373   5.710  0.00  0.00    -0.133 NA
ATOM     12  O   UNL A   1     -26.164 -12.384   7.315  0.00  0.00    -0.268 OA
ATOM     13  C   UNL A   1     -28.596 -12.604   5.937  0.00  0.00    +0.326 C 
ATOM     14  O   UNL A   1     -28.735 -11.625   5.175  0.00  0.00    -0.263 OA
BRANCH  10  15
ATOM     15  C   UNL A   1     -25.202 -13.933   6.129  0.00  0.00    +0.056 A 
ATOM     16  C   UNL A   1     -25.411 -15.307   6.088  0.00  0.00    +0.005 A 
ATOM     17  C   UNL A   1     -24.368 -16.350   5.867  0.00  0.00    +0.007 A 
ATOM     18  C   UNL A   1     -23.072 -15.871   5.514  0.00  0.00    +0.080 A 
ATOM     19  C   UNL A   1     -22.897 -14.473   5.502  0.00  0.00    +0.007 A 
ATOM     20  C   UNL A   1     -23.865 -13.583   5.763  0.00  0.00    +0.005 A 
BRANCH  18  21
ATOM     21  C   UNL A   1     -22.055 -16.860   5.260  0.00  0.00    +0.388 C 
ATOM     22  O   UNL A   1     -20.996 -16.951   5.926  0.00  0.00    -0.241 OA
ATOM     23  O   UNL A   1     -22.251 -17.642   4.230  0.00  0.00    -0.241 OA
ENDBRANCH  18  21
ENDBRANCH  10  15
ENDBRANCH   1  13
BRANCH   3  24
ATOM     24  C   UNL A   1     -31.056 -13.610   8.556  0.00  0.00    +0.125 C 
BRANCH  24  25
ATOM     25  C   UNL A   1     -30.691 -14.127   9.349  0.00  0.00    -0.002 A 
ATOM     26  C   UNL A   1     -31.186 -13.811  10.710  0.00  0.00    -0.002 A 
ATOM     27  C   UNL A   1     -30.573 -14.223  11.774  0.00  0.00    -0.000 A 
ATOM     28  C   UNL A   1     -30.025 -15.206  11.745  0.00  0.00    -0.000 A 
ATOM     29  C   UNL A   1     -29.438 -15.903  10.582  0.00  0.00    -0.000 A 
ATOM     30  C   UNL A   1     -29.767 -15.324   9.441  0.00  0.00    -0.003 A 
ATOM     31  C   UNL A   1     -32.042 -12.598  10.783  0.00  0.00    -0.000 A 
ATOM     32  C   UNL A   1     -31.347 -11.556  11.490  0.00  0.00    -0.000 A 
ATOM     33  C   UNL A   1     -30.799 -11.918  12.757  0.00  0.00    -0.000 A 
ATOM     34  C   UNL A   1     -30.208 -13.141  12.756  0.00  0.00    -0.000 A 
ENDBRANCH  24  25
ENDBRANCH   3  24
TORSDOF 6
ENDMDL
ENDMDL
