MODEL 1130
MODEL 1
REMARK VINA RESULT:    -5.200      0.000      0.000
REMARK INTER + INTRA:          -5.648
REMARK INTER:                  -5.504
REMARK INTRA:                  -0.144
REMARK UNBOUND:                -0.144
REMARK  Name = No_1130-gen_results/8p0m/2024-11-27-11-27-31/
REMARK  1 active torsions:
REMARK  status: ('A' for Active; 'I' for Inactive)
REMARK    1  A    between atoms: C_4  and  C_5
REMARK                            x       y       z     vdW  Elec       q    Type
REMARK                         _______ _______ _______ _____ _____    ______ ____
ROOT
ATOM      1  C   UNL A   1     -26.015  -4.914  29.567  0.00  0.00    -0.000 A 
ATOM      2  C   UNL A   1     -24.940  -5.070  29.036  0.00  0.00    -0.000 A 
ATOM      3  C   UNL A   1     -24.044  -4.031  28.788  0.00  0.00    +0.004 A 
ATOM      4  C   UNL A   1     -24.426  -2.673  29.125  0.00  0.00    +0.071 A 
ATOM      5  C   UNL A   1     -26.541  -3.611  29.875  0.00  0.00    -0.000 A 
ATOM      6  C   UNL A   1     -25.709  -2.397  29.595  0.00  0.00    +0.004 A 
ENDROOT
BRANCH   4   7
ATOM      7  C   UNL A   1     -23.676  -1.545  28.913  0.00  0.00    +0.419 C 
ATOM      8  F   UNL A   1     -22.390  -1.663  28.946  0.00  0.00    -0.166 F 
ATOM      9  F   UNL A   1     -23.891  -0.578  29.986  0.00  0.00    -0.166 F 
ATOM     10  F   UNL A   1     -24.109  -0.817  27.886  0.00  0.00    -0.166 F 
ENDBRANCH   4   7
TORSDOF 1
ENDMDL
ENDMDL
