MODEL 1131
MODEL 1
REMARK VINA RESULT:    -6.570      0.000      0.000
REMARK INTER + INTRA:          -8.267
REMARK INTER:                  -8.107
REMARK INTRA:                  -0.160
REMARK UNBOUND:                -0.160
REMARK  Name = No_1131-gen_results/8p0m/2024-11-27-11-27-31/
REMARK  4 active torsions:
REMARK  status: ('A' for Active; 'I' for Inactive)
REMARK    1  A    between atoms: C_1  and  C_2
REMARK    2  A    between atoms: C_5  and  C_19
REMARK    3  A    between atoms: N_8  and  C_11
REMARK    4  A    between atoms: C_12  and  C_13
REMARK                            x       y       z     vdW  Elec       q    Type
REMARK                         _______ _______ _______ _____ _____    ______ ____
ROOT
ATOM      1  C   UNL A   1     -10.879   0.986  35.635  0.00  0.00    +0.253 C 
ATOM      2  N   UNL A   1      -9.665   1.679  35.237  0.00  0.00    -0.252 N 
ATOM      3  O   UNL A   1     -10.589   0.046  36.459  0.00  0.00    -0.270 OA
ATOM      4  C   UNL A   1      -9.723   2.888  34.459  0.00  0.00    +0.120 C 
ENDROOT
BRANCH   1   5
ATOM      5  C   UNL A   1     -11.913   1.605  35.727  0.00  0.00    +0.054 A 
ATOM      6  C   UNL A   1     -12.722   1.891  34.675  0.00  0.00    +0.005 A 
ATOM      7  C   UNL A   1     -13.992   2.645  34.771  0.00  0.00    +0.005 A 
ATOM      8  C   UNL A   1     -14.392   3.078  36.078  0.00  0.00    +0.057 A 
ATOM      9  C   UNL A   1     -13.560   2.698  37.156  0.00  0.00    +0.005 A 
ATOM     10  C   UNL A   1     -12.394   1.996  36.990  0.00  0.00    +0.005 A 
BRANCH   8  11
ATOM     11  C   UNL A   1     -15.621   3.792  36.337  0.00  0.00    +0.284 C 
ATOM     12  N   UNL A   1     -15.995   4.377  37.400  0.00  0.00    -0.084 NA
ATOM     13  O   UNL A   1     -16.492   3.733  35.366  0.00  0.00    -0.267 OA
ENDBRANCH   8  11
ENDBRANCH   1   5
BRANCH   2  14
ATOM     14  C   UNL A   1      -8.500   0.865  34.769  0.00  0.00    +0.068 C 
ATOM     15  C   UNL A   1      -7.362   0.986  35.561  0.00  0.00    +0.016 C 
BRANCH  15  16
ATOM     16  C   UNL A   1      -6.423  -0.131  35.359  0.00  0.00    +0.001 A 
ATOM     17  C   UNL A   1      -6.777  -1.224  34.791  0.00  0.00    +0.000 A 
ATOM     18  C   UNL A   1      -6.129  -2.154  34.153  0.00  0.00    +0.000 A 
ATOM     19  C   UNL A   1      -4.696  -2.113  34.370  0.00  0.00    +0.000 A 
ATOM     20  C   UNL A   1      -4.173  -1.022  35.052  0.00  0.00    +0.000 A 
ATOM     21  C   UNL A   1      -5.011  -0.002  35.415  0.00  0.00    +0.000 A 
ENDBRANCH  15  16
ENDBRANCH   2  14
TORSDOF 4
ENDMDL
ENDMDL
