MODEL 1132
MODEL 1
REMARK VINA RESULT:    -5.655      0.000      0.000
REMARK INTER + INTRA:          -7.286
REMARK INTER:                  -6.977
REMARK INTRA:                  -0.309
REMARK UNBOUND:                -0.309
REMARK  Name = No_1132-gen_results/8p0m/2024-11-27-11-27-31/
REMARK  4 active torsions:
REMARK  status: ('A' for Active; 'I' for Inactive)
REMARK    1  A    between atoms: C_2  and  O_9
REMARK    2  A    between atoms: C_3  and  C_4
REMARK    3  A    between atoms: O_9  and  C_10
REMARK    4  A    between atoms: C_11  and  C_12
REMARK                            x       y       z     vdW  Elec       q    Type
REMARK                         _______ _______ _______ _____ _____    ______ ____
ROOT
ATOM      1  C   UNL A   1     -25.060  -2.584  29.654  0.00  0.00    +0.034 A 
ATOM      2  C   UNL A   1     -24.250  -3.004  29.128  0.00  0.00    +0.145 A 
ATOM      3  C   UNL A   1     -26.240  -3.504  29.875  0.00  0.00    -0.008 A 
ATOM      4  C   UNL A   1     -23.941  -4.389  28.747  0.00  0.00    +0.037 A 
ATOM      5  C   UNL A   1     -24.960  -5.295  28.943  0.00  0.00    +0.003 A 
ATOM      6  C   UNL A   1     -26.131  -4.902  29.539  0.00  0.00    -0.003 A 
ENDROOT
BRANCH   3   7
ATOM      7  C   UNL A   1     -27.517  -3.136  30.431  0.00  0.00    +0.094 C 
ATOM      8 BR   UNL A   1     -28.621  -4.309  30.747  0.00  0.00    -0.076 Br
ENDBRANCH   3   7
BRANCH   2   9
ATOM      9  O   UNL A   1     -23.093  -2.157  28.898  0.00  0.00    -0.450 OA
BRANCH   9  10
ATOM     10  C   UNL A   1     -23.248  -0.853  28.618  0.00  0.00    +0.179 C 
ATOM     11  C   UNL A   1     -22.248  -0.149  28.586  0.00  0.00    +0.041 C 
BRANCH  11  12
ATOM     12  C   UNL A   1     -22.361   1.294  28.366  0.00  0.00    +0.003 C 
ATOM     13  C   UNL A   1     -22.362   1.911  27.118  0.00  0.00    +0.000 C 
ENDBRANCH  11  12
ENDBRANCH   9  10
ENDBRANCH   2   9
TORSDOF 4
ENDMDL
ENDMDL
