REMARK  Name = outputs/IAG933/test6/raw/output_1132_IAG933_linker_design_.xyz
REMARK  10 active torsions:
REMARK  status: ('A' for Active; 'I' for Inactive)
REMARK    1  A    between atoms: C_1  and  C_2
REMARK    2  A    between atoms: C_1  and  C_8
REMARK    3  A    between atoms: C_1  and  N_35
REMARK    4  A    between atoms: C_13  and  C_31
REMARK    5  A    between atoms: C_14  and  C_15
REMARK    6  A    between atoms: C_21  and  O_22
REMARK    7  A    between atoms: O_22  and  C_23
REMARK    8  A    between atoms: C_23  and  C_24
REMARK    9  A    between atoms: C_37  and  C_39
REMARK   10  A    between atoms: C_42  and  N_45
REMARK                            x       y       z     vdW  Elec       q    Type
REMARK                         _______ _______ _______ _____ _____    ______ ____
ROOT
ATOM      1  C   UNL A   1     -24.776   1.311  27.494  0.00  0.00    +0.018 C 
ATOM      2  C   UNL A   1     -22.845  -0.090  29.157  0.00  0.00    +0.091 C 
ATOM      3  C   UNL A   1     -22.559   0.834  28.203  0.00  0.00    +0.082 C 
ATOM      4  N   UNL A   1     -24.322  -0.116  29.227  0.00  0.00    -0.226 NA
ATOM      5  S   UNL A   1     -21.120   1.544  27.401  0.00  0.00    -0.135 S 
ATOM      6  C   UNL A   1     -21.579   1.985  25.661  0.00  0.00    +0.062 C 
ATOM      7  C   UNL A   1     -24.961   1.045  28.780  0.00  0.00    +0.286 C 
ATOM      8  C   UNL A   1     -23.101   1.924  25.693  0.00  0.00    +0.034 C 
ATOM      9  C   UNL A   1     -23.499   1.316  27.045  0.00  0.00    -0.035 C 
ENDROOT
BRANCH   1  10
ATOM     10  C   UNL A   1     -25.688   1.614  26.461  0.00  0.00    +0.093 C 
ATOM     11  C   UNL A   1     -26.250   2.920  26.395  0.00  0.00    +0.059 C 
ATOM     12  C   UNL A   1     -27.438   3.091  25.645  0.00  0.00    +0.102 C 
ATOM     13  N   UNL A   1     -28.075   2.089  25.003  0.00  0.00    -0.212 NA
ATOM     14  C   UNL A   1     -27.543   0.849  25.079  0.00  0.00    +0.234 C 
ATOM     15  C   UNL A   1     -26.354   0.576  25.777  0.00  0.00    +0.244 C 
ATOM     16  F   UNL A   1     -25.860  -0.681  25.795  0.00  0.00    -0.227 F 
BRANCH  11  17
ATOM     17  C   UNL A   1     -25.642   4.093  27.123  0.00  0.00    +0.263 C 
ATOM     18  N   UNL A   1     -25.614   5.252  26.449  0.00  0.00    -0.200 NA
ATOM     19  C   UNL A   1     -25.026   6.479  26.963  0.00  0.00    +0.139 C 
ATOM     20  O   UNL A   1     -25.143   3.966  28.243  0.00  0.00    -0.269 OA
ENDBRANCH  11  17
BRANCH  14  21
ATOM     21  O   UNL A   1     -28.193  -0.208  24.477  0.00  0.00    -0.459 OA
BRANCH  21  22
ATOM     22  C   UNL A   1     -29.460   0.005  23.866  0.00  0.00    +0.242 C 
BRANCH  22  23
ATOM     23  C   UNL A   1     -30.065  -1.377  23.573  0.00  0.00    +0.229 C 
ATOM     24  O   UNL A   1     -30.729  -1.878  24.721  0.00  0.00    -0.216 OA
ENDBRANCH  22  23
ENDBRANCH  21  22
ENDBRANCH  14  21
ENDBRANCH   1  10
BRANCH   7  27
ATOM     25  C   UNL A   1     -26.791   2.279  29.889  0.00  0.00    +0.415 C 
ATOM     26  N   UNL A   1     -26.857   3.509  30.259  0.00  0.00    +0.197 NA
ATOM     27  N   UNL A   1     -25.600   1.839  29.591  0.00  0.00    -0.010 NA
BRANCH  25  33
ATOM     28  C   UNL A   1     -28.217  -0.366  28.159  0.00  0.00    +0.004 C 
ATOM     29  C   UNL A   1     -28.509   0.586  30.737  0.00  0.00    +0.050 C 
ATOM     30  C   UNL A   1     -28.838  -0.720  30.403  0.00  0.00    +0.196 C 
ATOM     31  C   UNL A   1     -28.602  -1.230  29.136  0.00  0.00    +0.042 C 
ATOM     32  C   UNL A   1     -28.092   0.991  28.424  0.00  0.00    +0.008 C 
ATOM     33  C   UNL A   1     -27.905   1.362  29.761  0.00  0.00    +0.094 C 
ATOM     34  O   UNL A   1     -29.402  -1.553  31.266  0.00  0.00    -0.287 OA
ENDBRANCH  25  33
ENDBRANCH   7  27
BRANCH   4  35
ATOM     35  C   UNL A   1     -24.855  -1.012  30.143  0.00  0.00    +0.100 C 
BRANCH  35  36
ATOM     36  C   UNL A   1     -24.973  -2.505  29.788  0.00  0.00    -0.006 C 
ATOM     37  C   UNL A   1     -23.906  -3.173  29.146  0.00  0.00    -0.003 C 
ATOM     38  C   UNL A   1     -23.989  -4.549  28.853  0.00  0.00    -0.000 C 
ATOM     39  C   UNL A   1     -25.137  -5.280  29.205  0.00  0.00    -0.000 C 
ATOM     40  C   UNL A   1     -26.232  -4.611  29.784  0.00  0.00    -0.000 C 
ATOM     41  C   UNL A   1     -26.155  -3.232  30.065  0.00  0.00    -0.003 C 
ENDBRANCH  35  36
BRANCH  35  42
ATOM     42  C   UNL A   1     -25.387  -0.679  31.571  0.00  0.00    +0.092 C 
ATOM     43  C   UNL A   1     -25.189   0.773  32.028  0.00  0.00    +0.021 C 
ATOM     44  C   UNL A   1     -25.336   0.684  33.544  0.00  0.00    +0.020 C 
ATOM     45  C   UNL A   1     -24.829  -0.715  33.905  0.00  0.00    +0.089 C 
ATOM     46  N   UNL A   1     -24.758  -1.481  32.646  0.00  0.00    -0.218 NA
ENDBRANCH  35  42
ENDBRANCH   4  35
TORSDOF 10
