MODEL 1133
MODEL 1
REMARK VINA RESULT:    -6.719      0.000      0.000
REMARK INTER + INTRA:         -12.498
REMARK INTER:                  -9.862
REMARK INTRA:                  -2.636
REMARK UNBOUND:                -2.636
REMARK  Name = No_1133-gen_results/8p0m/2024-11-27-11-27-31/
REMARK  8 active torsions:
REMARK  status: ('A' for Active; 'I' for Inactive)
REMARK    1  A    between atoms: C_2  and  C_14
REMARK    2  A    between atoms: C_4  and  C_6
REMARK    3  A    between atoms: C_6  and  C_8
REMARK    4  A    between atoms: C_12  and  C_34
REMARK    5  A    between atoms: C_20  and  CA_22
REMARK    6  A    between atoms: CA_22  and  C_23
REMARK    7  A    between atoms: CA_22  and  N_25
REMARK    8  A    between atoms: N_25  and  C_26
REMARK                            x       y       z     vdW  Elec       q    Type
REMARK                         _______ _______ _______ _____ _____    ______ ____
ROOT
ATOM      1  C   UNL A   1     -26.255 -13.419   6.011  0.00  0.00    +0.249 C 
ATOM      2  O   UNL A   1     -25.401 -12.856   5.513  0.00  0.00    -0.270 OA
ATOM      3  N   UNL A   1     -26.580 -14.704   5.790  0.00  0.00    -0.276 N 
ATOM      4  C   UNL A   1     -25.789 -15.503   4.897  0.00  0.00    +0.094 C 
ATOM      5  C   UNL A   1     -25.918 -16.701   5.018  0.00  0.00    +0.022 C 
ATOM      6  C   UNL A   1     -26.068 -17.323   5.793  0.00  0.00    +0.006 C 
ATOM      7  C   UNL A   1     -26.880 -16.690   7.010  0.00  0.00    +0.051 C 
ATOM      8  C   UNL A   1     -26.542 -15.245   7.261  0.00  0.00    +0.096 C 
ENDROOT
BRANCH   1  10
ATOM      9  C   UNL A   1     -26.549 -11.717   7.530  0.00  0.00    +0.004 A 
ATOM     10  C   UNL A   1     -27.087 -12.488   7.054  0.00  0.00    +0.054 A 
ATOM     11  C   UNL A   1     -27.346 -10.867   8.494  0.00  0.00    -0.004 A 
ATOM     12  C   UNL A   1     -28.529 -11.065   8.618  0.00  0.00    -0.019 A 
ATOM     13  C   UNL A   1     -28.474 -12.959   7.108  0.00  0.00    +0.004 A 
ATOM     14  C   UNL A   1     -29.222 -12.133   7.989  0.00  0.00    -0.004 A 
BRANCH  12  15
ATOM     15  C   UNL A   1     -29.423 -10.268   9.539  0.00  0.00    +0.042 C 
ATOM     16  C   UNL A   1     -29.749  -8.863   9.221  0.00  0.00    +0.009 C 
BRANCH  15  17
ATOM     17  C   UNL A   1     -29.981 -10.875  10.620  0.00  0.00    -0.016 C 
ATOM     18  C   UNL A   1     -29.147 -11.576  11.524  0.00  0.00    +0.091 C 
ATOM     19  N   UNL A   1     -29.745 -12.214  12.515  0.00  0.00    -0.247 NA
ATOM     20  C   UNL A   1     -31.064 -12.446  12.399  0.00  0.00    +0.076 C 
ATOM     21  C   UNL A   1     -31.335 -11.461  10.784  0.00  0.00    +0.061 C 
BRANCH  21  22
ATOM     22  C   UNL A   1     -32.504 -11.455  10.328  0.00  0.00    +0.010 C 
ATOM     23  C   UNL A   1     -32.783 -11.838   9.069  0.00  0.00    +0.001 C 
ENDBRANCH  21  22
ENDBRANCH  15  17
ENDBRANCH  12  15
ENDBRANCH   1  10
BRANCH   7  24
ATOM     24  CA  UNL A   1     -27.568 -17.436   8.092  0.00  0.00    +0.197 C 
BRANCH  24  25
ATOM     25  C   UNL A   1     -26.943 -18.598   8.479  0.00  0.00    +0.384 C 
ATOM     26  O   UNL A   1     -27.345 -19.638   8.018  0.00  0.00    -0.244 OA
ATOM     27  OXT UNL A   1     -25.913 -18.522   9.288  0.00  0.00    -0.244 OA
ENDBRANCH  24  25
BRANCH  24  28
ATOM     28  N   UNL A   1     -27.954 -16.377   9.062  0.00  0.00    -0.228 NA
BRANCH  28  29
ATOM     29  C   UNL A   1     -29.245 -15.990   9.385  0.00  0.00    +0.066 A 
ATOM     30  C   UNL A   1     -29.585 -15.765  10.473  0.00  0.00    +0.017 A 
ATOM     31  C   UNL A   1     -30.965 -15.460  10.805  0.00  0.00    +0.013 A 
ATOM     32  C   UNL A   1     -30.117 -16.045   8.216  0.00  0.00    +0.017 A 
ATOM     33  C   UNL A   1     -31.462 -15.754   8.405  0.00  0.00    +0.013 A 
ATOM     34  C   UNL A   1     -31.893 -15.457   9.716  0.00  0.00    +0.058 A 
ATOM     35 CL   UNL A   1     -33.553 -15.085  10.031  0.00  0.00    -0.082 Cl
ENDBRANCH  28  29
ENDBRANCH  24  28
ENDBRANCH   7  24
TORSDOF 8
ENDMDL
ENDMDL
