REMARK  Name = No_1133-gen_results/8p0m/2024-11-27-11-27-31/
REMARK  8 active torsions:
REMARK  status: ('A' for Active; 'I' for Inactive)
REMARK    1  A    between atoms: C_2  and  C_14
REMARK    2  A    between atoms: C_4  and  C_6
REMARK    3  A    between atoms: C_6  and  C_8
REMARK    4  A    between atoms: C_12  and  C_34
REMARK    5  A    between atoms: C_20  and  CA_22
REMARK    6  A    between atoms: CA_22  and  C_23
REMARK    7  A    between atoms: CA_22  and  N_25
REMARK    8  A    between atoms: N_25  and  C_26
REMARK                            x       y       z     vdW  Elec       q    Type
REMARK                         _______ _______ _______ _____ _____    ______ ____
ROOT
ATOM      1  C   UNL A   1     -30.095  -0.823  29.861  0.00  0.00    +0.249 C 
ATOM      2  O   UNL A   1     -30.557  -0.411  28.906  0.00  0.00    -0.270 OA
ATOM      3  N   UNL A   1     -30.775  -1.292  30.921  0.00  0.00    -0.276 N 
ATOM      4  C   UNL A   1     -32.209  -1.352  30.887  0.00  0.00    +0.094 C 
ATOM      5  C   UNL A   1     -32.719  -2.091  31.700  0.00  0.00    +0.022 C 
ATOM      6  C   UNL A   1     -32.472  -2.978  32.103  0.00  0.00    +0.006 C 
ATOM      7  C   UNL A   1     -30.906  -3.249  32.216  0.00  0.00    +0.051 C 
ATOM      8  C   UNL A   1     -30.125  -2.714  31.045  0.00  0.00    +0.096 C 
ENDROOT
BRANCH   1  10
ATOM      9  C   UNL A   1     -28.016  -0.814  28.878  0.00  0.00    +0.004 A 
ATOM     10  C   UNL A   1     -28.469  -0.785  29.829  0.00  0.00    +0.054 A 
ATOM     11  C   UNL A   1     -26.504  -0.778  28.877  0.00  0.00    -0.004 A 
ATOM     12  C   UNL A   1     -25.915  -0.658  29.923  0.00  0.00    -0.019 A 
ATOM     13  C   UNL A   1     -27.969  -0.724  31.205  0.00  0.00    +0.004 A 
ATOM     14  C   UNL A   1     -26.550  -0.655  31.192  0.00  0.00    -0.004 A 
BRANCH  12  15
ATOM     15  C   UNL A   1     -24.409  -0.596  30.037  0.00  0.00    +0.042 C 
ATOM     16  C   UNL A   1     -23.734  -1.147  31.230  0.00  0.00    +0.009 C 
BRANCH  15  17
ATOM     17  C   UNL A   1     -23.680  -0.097  29.004  0.00  0.00    -0.016 C 
ATOM     18  C   UNL A   1     -22.269  -0.059  29.111  0.00  0.00    +0.091 C 
ATOM     19  N   UNL A   1     -21.611   0.506  28.114  0.00  0.00    -0.247 NA
ATOM     20  C   UNL A   1     -22.307   1.293  27.276  0.00  0.00    +0.076 C 
ATOM     21  C   UNL A   1     -24.037   0.945  28.009  0.00  0.00    +0.061 C 
BRANCH  21  22
ATOM     22  C   UNL A   1     -24.998   1.546  27.470  0.00  0.00    +0.010 C 
ATOM     23  C   UNL A   1     -25.354   1.324  26.192  0.00  0.00    +0.001 C 
ENDBRANCH  21  22
ENDBRANCH  15  17
ENDBRANCH  12  15
ENDBRANCH   1  10
BRANCH   7  24
ATOM     24  CA  UNL A   1     -30.246  -4.257  33.082  0.00  0.00    +0.197 C 
BRANCH  24  25
ATOM     25  C   UNL A   1     -29.752  -5.354  32.415  0.00  0.00    +0.384 C 
ATOM     26  O   UNL A   1     -30.462  -5.887  31.598  0.00  0.00    -0.244 OA
ATOM     27  OXT UNL A   1     -28.523  -5.741  32.659  0.00  0.00    -0.244 OA
ENDBRANCH  24  25
BRANCH  24  28
ATOM     28  N   UNL A   1     -29.411  -3.441  34.003  0.00  0.00    -0.228 NA
BRANCH  28  29
ATOM     29  C   UNL A   1     -29.801  -2.932  35.231  0.00  0.00    +0.066 A 
ATOM     30  C   UNL A   1     -30.846  -3.135  35.698  0.00  0.00    +0.017 A 
ATOM     31  C   UNL A   1     -31.275  -2.511  36.937  0.00  0.00    +0.013 A 
ATOM     32  C   UNL A   1     -28.795  -2.019  35.764  0.00  0.00    +0.017 A 
ATOM     33  C   UNL A   1     -29.085  -1.372  36.959  0.00  0.00    +0.013 A 
ATOM     34  C   UNL A   1     -30.340  -1.621  37.554  0.00  0.00    +0.058 A 
ATOM     35 CL   UNL A   1     -30.773  -0.853  39.043  0.00  0.00    -0.082 Cl
ENDBRANCH  28  29
ENDBRANCH  24  28
ENDBRANCH   7  24
TORSDOF 8
