MODEL 1134
MODEL 1
REMARK VINA RESULT:    -7.597      0.000      0.000
REMARK INTER + INTRA:          -8.282
REMARK INTER:                  -8.041
REMARK INTRA:                  -0.241
REMARK UNBOUND:                -0.241
REMARK  Name = No_1134-gen_results/8p0m/2024-11-27-11-27-31/
REMARK  1 active torsions:
REMARK  status: ('A' for Active; 'I' for Inactive)
REMARK    1  A    between atoms: C_13  and  C_15
REMARK                            x       y       z     vdW  Elec       q    Type
REMARK                         _______ _______ _______ _____ _____    ______ ____
ROOT
ATOM      1  N   UNL A   1     -27.701  -0.559  29.003  0.00  0.00    -0.208 NA
ATOM      2  C   UNL A   1     -26.669  -0.573  29.378  0.00  0.00    +0.164 A 
ATOM      3  C   UNL A   1     -27.869   0.052  27.794  0.00  0.00    +0.164 A 
ATOM      4  C   UNL A   1     -26.732   0.597  27.172  0.00  0.00    +0.036 A 
ATOM      5  C   UNL A   1     -25.399  -0.141  28.983  0.00  0.00    +0.039 A 
ATOM      6  C   UNL A   1     -25.497   0.512  27.751  0.00  0.00    +0.006 A 
ATOM      7  N   UNL A   1     -26.543  -1.318  30.682  0.00  0.00    -0.225 NA
ATOM      8  C   UNL A   1     -25.438  -1.474  31.330  0.00  0.00    +0.101 A 
ATOM      9  C   UNL A   1     -24.291  -0.958  30.836  0.00  0.00    +0.024 A 
ATOM     10  C   UNL A   1     -24.236  -0.306  29.652  0.00  0.00    +0.043 A 
ATOM     11  N   UNL A   1     -29.043   0.212  27.064  0.00  0.00    -0.225 NA
ATOM     12  C   UNL A   1     -29.094   0.811  25.836  0.00  0.00    +0.104 A 
ATOM     13  C   UNL A   1     -28.033   1.319  25.216  0.00  0.00    +0.091 A 
ATOM     14  C   UNL A   1     -26.853   1.243  25.817  0.00  0.00    +0.009 A 
ATOM     15  C   UNL A   1     -24.277   1.051  27.097  0.00  0.00    +0.003 A 
ATOM     16  C   UNL A   1     -24.255   1.781  26.012  0.00  0.00    +0.000 A 
ATOM     17  C   UNL A   1     -22.985   2.334  25.592  0.00  0.00    +0.000 A 
ATOM     18  C   UNL A   1     -21.837   2.041  26.238  0.00  0.00    +0.000 A 
ATOM     19  C   UNL A   1     -21.855   1.242  27.363  0.00  0.00    +0.003 A 
ATOM     20  C   UNL A   1     -23.022   0.783  27.799  0.00  0.00    +0.039 A 
ATOM     21  C   UNL A   1     -23.037   0.154  29.097  0.00  0.00    +0.196 C 
ATOM     22  O   UNL A   1     -21.928  -0.053  29.735  0.00  0.00    -0.287 OA
ENDROOT
BRANCH  13  23
ATOM     23  C   UNL A   1     -28.239   1.939  23.898  0.00  0.00    +0.420 C 
ATOM     24  F   UNL A   1     -27.881   3.027  23.761  0.00  0.00    -0.166 F 
ATOM     25  F   UNL A   1     -27.543   1.142  22.910  0.00  0.00    -0.166 F 
ATOM     26  F   UNL A   1     -29.532   1.757  23.513  0.00  0.00    -0.166 F 
ENDBRANCH  13  23
TORSDOF 1
ENDMDL
ENDMDL
