MODEL 1135
MODEL 1
REMARK VINA RESULT:    -7.118      0.000      0.000
REMARK INTER + INTRA:         -10.474
REMARK INTER:                  -9.199
REMARK INTRA:                  -1.275
REMARK UNBOUND:                -1.275
REMARK  Name = No_1135-gen_results/8p0m/2024-11-27-11-27-31/
REMARK  5 active torsions:
REMARK  status: ('A' for Active; 'I' for Inactive)
REMARK    1  A    between atoms: C_4  and  C_5
REMARK    2  A    between atoms: C_5  and  N_9
REMARK    3  A    between atoms: C_5  and  C_11
REMARK    4  A    between atoms: C_7  and  C_17
REMARK    5  A    between atoms: N_9  and  C_13
REMARK                            x       y       z     vdW  Elec       q    Type
REMARK                         _______ _______ _______ _____ _____    ______ ____
ROOT
ATOM      1  O   UNL A   1     -34.073 -10.471   8.820  0.00  0.00    -0.273 OA
ATOM      2  C   UNL A   1     -33.009 -10.538   9.446  0.00  0.00    +0.241 C 
ATOM      3  C   UNL A   1     -32.453 -11.262  10.127  0.00  0.00    +0.088 C 
ATOM      4  C   UNL A   1     -31.021 -11.265  10.612  0.00  0.00    +0.031 C 
ATOM      5  N   UNL A   1     -32.286  -9.193   9.425  0.00  0.00    -0.206 NA
ATOM      6  C   UNL A   1     -31.021  -8.969   9.842  0.00  0.00    +0.103 C 
ATOM      7  C   UNL A   1     -30.310  -9.990  10.482  0.00  0.00    +0.024 C 
ENDROOT
BRANCH   6   8
ATOM      8  C   UNL A   1     -30.369  -7.685   9.637  0.00  0.00    +0.064 C 
ATOM      9  C   UNL A   1     -30.942  -6.532  10.072  0.00  0.00    -0.017 A 
ATOM     10  C   UNL A   1     -31.633  -6.326  10.967  0.00  0.00    -0.004 A 
ATOM     11  C   UNL A   1     -32.296  -5.068  11.348  0.00  0.00    -0.000 A 
ATOM     12  C   UNL A   1     -32.030  -3.966  10.541  0.00  0.00    -0.000 A 
ATOM     13  C   UNL A   1     -31.226  -4.109   9.423  0.00  0.00    -0.000 A 
ATOM     14  C   UNL A   1     -30.664  -5.350   9.121  0.00  0.00    -0.004 A 
ATOM     15  C   UNL A   1     -29.007  -7.793   9.058  0.00  0.00    -0.020 C 
ATOM     16  C   UNL A   1     -28.282  -6.839   8.815  0.00  0.00    -0.004 C 
ATOM     17  C   UNL A   1     -28.587  -5.845   8.079  0.00  0.00    -0.000 C 
ATOM     18  C   UNL A   1     -29.535  -5.107   8.190  0.00  0.00    -0.000 C 
ENDBRANCH   6   8
BRANCH   4  19
ATOM     19  C   UNL A   1     -30.362 -12.255  11.372  0.00  0.00    +0.127 C 
BRANCH  19  20
ATOM     20  C   UNL A   1     -30.169 -12.196  12.737  0.00  0.00    +0.333 C 
ATOM     21  F   UNL A   1     -31.063 -11.583  13.460  0.00  0.00    -0.197 F 
ATOM     22  F   UNL A   1     -28.983 -11.655  13.029  0.00  0.00    -0.197 F 
ENDBRANCH  19  20
BRANCH  19  23
ATOM     23  N   UNL A   1     -30.001 -13.414  10.724  0.00  0.00    -0.247 NA
ATOM     24  C   UNL A   1     -29.277 -13.359   9.564  0.00  0.00    +0.091 C 
BRANCH  23  25
ATOM     25  C   UNL A   1     -30.444 -14.701  11.100  0.00  0.00    +0.196 C 
ATOM     26 CL   UNL A   1     -29.786 -15.735  11.894  0.00  0.00    -0.084 Cl
ATOM     27 BR   UNL A   1     -31.791 -15.311   9.900  0.00  0.00    -0.045 Br
ENDBRANCH  23  25
ENDBRANCH  19  23
ENDBRANCH   4  19
TORSDOF 5
ENDMDL
ENDMDL
