MODEL 1136
MODEL 1
REMARK VINA RESULT:    -6.777      0.000      0.000
REMARK INTER + INTRA:         -11.086
REMARK INTER:                  -9.947
REMARK INTRA:                  -1.140
REMARK UNBOUND:                -1.140
REMARK  Name = No_1136-gen_results/8p0m/2024-11-27-11-27-31/
REMARK  8 active torsions:
REMARK  status: ('A' for Active; 'I' for Inactive)
REMARK    1  A    between atoms: C_2  and  O_7
REMARK    2  A    between atoms: C_4  and  C_9
REMARK    3  A    between atoms: C_9  and  C_10
REMARK    4  A    between atoms: C_14  and  C_16
REMARK    5  A    between atoms: C_16  and  N_17
REMARK    6  A    between atoms: N_17  and  C_18
REMARK    7  A    between atoms: C_19  and  C_20
REMARK    8  A    between atoms: C_21  and  C_22
REMARK                            x       y       z     vdW  Elec       q    Type
REMARK                         _______ _______ _______ _____ _____    ______ ____
ROOT
ATOM      1  C   UNL A   1     -24.871   0.873  26.170  0.00  0.00    -0.018 A 
ATOM      2  C   UNL A   1     -23.830   1.679  25.510  0.00  0.00    -0.004 A 
ATOM      3  C   UNL A   1     -23.040   2.515  26.331  0.00  0.00    -0.001 A 
ATOM      4  C   UNL A   1     -22.382   1.787  27.289  0.00  0.00    -0.003 A 
ATOM      5  C   UNL A   1     -23.047   0.807  28.085  0.00  0.00    -0.001 A 
ATOM      6  C   UNL A   1     -24.144   0.210  27.353  0.00  0.00    -0.006 A 
ENDROOT
BRANCH   1   7
ATOM      7  C   UNL A   1     -25.534  -0.038  25.461  0.00  0.00    +0.053 C 
BRANCH   7  11
ATOM      8  C   UNL A   1     -28.581   1.809  23.961  0.00  0.00    +0.037 A 
ATOM      9  C   UNL A   1     -29.110   0.944  23.675  0.00  0.00    +0.139 A 
ATOM     10  C   UNL A   1     -27.268   1.564  24.671  0.00  0.00    -0.001 A 
ATOM     11  C   UNL A   1     -26.774   0.246  24.774  0.00  0.00    -0.018 A 
ATOM     12  C   UNL A   1     -28.812  -0.506  23.634  0.00  0.00    +0.037 A 
ATOM     13  C   UNL A   1     -27.608  -0.770  24.272  0.00  0.00    -0.001 A 
BRANCH   9  14
ATOM     14  O   UNL A   1     -30.387   1.177  22.986  0.00  0.00    -0.471 OA
ATOM     15  C   UNL A   1     -31.529   0.826  23.319  0.00  0.00    +0.253 C 
ENDBRANCH   9  14
ENDBRANCH   7  11
ENDBRANCH   1   7
BRANCH   5  16
ATOM     16  C   UNL A   1     -22.509   0.260  29.244  0.00  0.00    +0.139 C 
BRANCH  16  17
ATOM     17  N   UNL A   1     -22.733  -0.992  29.559  0.00  0.00    -0.232 NA
BRANCH  17  18
ATOM     18  C   UNL A   1     -23.365  -1.398  30.681  0.00  0.00    +0.081 C 
ATOM     19  C   UNL A   1     -24.502  -1.949  30.732  0.00  0.00    +0.017 C 
BRANCH  19  20
ATOM     20  C   UNL A   1     -25.278  -2.100  29.875  0.00  0.00    +0.001 C 
ATOM     21  C   UNL A   1     -25.424  -3.261  28.946  0.00  0.00    +0.000 C 
BRANCH  21  22
ATOM     22  C   UNL A   1     -24.514  -4.252  29.160  0.00  0.00    +0.000 C 
ATOM     23  C   UNL A   1     -24.770  -5.559  28.924  0.00  0.00    +0.000 C 
ENDBRANCH  21  22
ENDBRANCH  19  20
ENDBRANCH  17  18
ENDBRANCH  16  17
ENDBRANCH   5  16
TORSDOF 8
ENDMDL
ENDMDL
