MODEL 1137
MODEL 1
REMARK VINA RESULT:    -5.706      0.000      0.000
REMARK INTER + INTRA:         -13.159
REMARK INTER:                  -8.374
REMARK INTRA:                  -4.785
REMARK UNBOUND:                -4.785
REMARK  Name = No_1137-gen_results/8p0m/2024-11-27-11-27-31/
REMARK  8 active torsions:
REMARK  status: ('A' for Active; 'I' for Inactive)
REMARK    1  A    between atoms: C_3  and  C_4
REMARK    2  A    between atoms: C_6  and  C_7
REMARK    3  A    between atoms: C_7  and  O_15
REMARK    4  A    between atoms: O_15  and  C_16
REMARK    5  A    between atoms: C_17  and  C_18
REMARK    6  A    between atoms: C_22  and  C_24
REMARK    7  A    between atoms: C_24  and  N_25
REMARK    8  A    between atoms: C_26  and  C_28
REMARK                            x       y       z     vdW  Elec       q    Type
REMARK                         _______ _______ _______ _____ _____    ______ ____
ROOT
ATOM      1  O   UNL A   1      -7.857   0.453   9.995  0.00  0.00    -0.418 OA
ENDROOT
BRANCH   1   2
ATOM      2  C   UNL A   1      -7.609   1.185   8.861  0.00  0.00    +0.346 C 
ATOM      3  O   UNL A   1      -6.666   0.938   8.308  0.00  0.00    -0.244 OA
BRANCH   2   7
ATOM      4  C   UNL A   1     -10.522   3.209   8.875  0.00  0.00    +0.000 A 
ATOM      5  C   UNL A   1      -9.833   2.414   8.811  0.00  0.00    +0.006 A 
ATOM      6  C   UNL A   1      -9.918   4.526   8.636  0.00  0.00    +0.000 A 
ATOM      7  C   UNL A   1      -8.397   2.376   8.798  0.00  0.00    +0.076 A 
ATOM      8  C   UNL A   1      -8.571   4.667   8.499  0.00  0.00    +0.000 A 
ATOM      9  C   UNL A   1      -7.837   3.597   8.571  0.00  0.00    +0.006 A 
BRANCH   6  10
ATOM     10  C   UNL A   1     -10.759   5.729   8.488  0.00  0.00    +0.000 A 
ATOM     11  C   UNL A   1     -11.719   6.045   9.322  0.00  0.00    +0.000 A 
ATOM     12  C   UNL A   1     -12.537   7.162   9.094  0.00  0.00    +0.000 A 
ATOM     13  C   UNL A   1     -12.402   7.886   7.923  0.00  0.00    +0.000 A 
ATOM     14  C   UNL A   1     -11.402   7.567   7.029  0.00  0.00    +0.000 A 
ATOM     15  C   UNL A   1     -10.609   6.529   7.264  0.00  0.00    +0.000 A 
ENDBRANCH   6  10
ENDBRANCH   2   7
ENDBRANCH   1   2
BRANCH   1  16
ATOM     16  C   UNL A   1      -7.102   0.264  10.889  0.00  0.00    +0.183 C 
ATOM     17  C   UNL A   1      -7.306   0.755  12.090  0.00  0.00    +0.041 C 
BRANCH  17  18
ATOM     18  C   UNL A   1      -8.187   1.786  12.263  0.00  0.00    +0.003 A 
ATOM     19  C   UNL A   1      -9.630   1.588  12.400  0.00  0.00    +0.000 A 
ATOM     20  C   UNL A   1     -10.500   2.656  12.584  0.00  0.00    +0.000 A 
ATOM     21  C   UNL A   1      -9.955   3.959  12.549  0.00  0.00    +0.005 A 
ATOM     22  C   UNL A   1      -8.589   4.175  12.384  0.00  0.00    +0.055 A 
ATOM     23  C   UNL A   1      -7.768   3.148  12.283  0.00  0.00    +0.005 A 
BRANCH  22  24
ATOM     24  C   UNL A   1      -8.128   5.604  12.423  0.00  0.00    +0.269 C 
ATOM     25  O   UNL A   1      -7.311   5.925  13.243  0.00  0.00    -0.268 OA
BRANCH  24  26
ATOM     26  N   UNL A   1      -8.785   6.465  11.700  0.00  0.00    -0.174 NA
ATOM     27  C   UNL A   1      -8.164   7.380  10.879  0.00  0.00    +0.089 C 
BRANCH  27  28
ATOM     28  C   UNL A   1      -9.006   8.362  10.438  0.00  0.00    +0.013 C 
ATOM     29  C   UNL A   1      -8.901   9.077   9.274  0.00  0.00    -0.024 C 
ATOM     30  C   UNL A   1      -7.787   8.693   8.426  0.00  0.00    +0.031 C 
ENDBRANCH  27  28
ENDBRANCH  24  26
ENDBRANCH  22  24
ENDBRANCH  17  18
ENDBRANCH   1  16
TORSDOF 8
ENDMDL
ENDMDL
