REMARK  Name = outputs/IAG933/test6/raw/output_1138_IAG933_linker_design_.xyz
REMARK  10 active torsions:
REMARK  status: ('A' for Active; 'I' for Inactive)
REMARK    1  A    between atoms: C_1  and  C_2
REMARK    2  A    between atoms: C_1  and  C_8
REMARK    3  A    between atoms: C_1  and  C_32
REMARK    4  A    between atoms: C_13  and  C_42
REMARK    5  A    between atoms: C_14  and  C_15
REMARK    6  A    between atoms: C_21  and  O_22
REMARK    7  A    between atoms: O_22  and  C_23
REMARK    8  A    between atoms: C_23  and  C_24
REMARK    9  A    between atoms: C_32  and  N_35
REMARK   10  A    between atoms: C_32  and  N_39
REMARK                            x       y       z     vdW  Elec       q    Type
REMARK                         _______ _______ _______ _____ _____    ______ ____
ROOT
ATOM      1  C   UNL A   1     -25.247  -0.058  29.088  0.00  0.00    +0.197 C 
ENDROOT
BRANCH   1   8
ATOM      2  C   UNL A   1     -30.486   2.139  28.066  0.00  0.00    +0.023 C 
ATOM      3  O   UNL A   1     -27.909  -1.103  28.882  0.00  0.00    -0.251 OA
ATOM      4  N   UNL A   1     -28.491   1.034  28.700  0.00  0.00    -0.263 N 
ATOM      5  C   UNL A   1     -29.796   2.926  29.195  0.00  0.00    +0.023 C 
ATOM      6  C   UNL A   1     -28.335   2.466  29.133  0.00  0.00    +0.095 C 
ATOM      7  C   UNL A   1     -27.608   0.083  28.938  0.00  0.00    +0.325 C 
ATOM      8  N   UNL A   1     -26.431   0.591  29.222  0.00  0.00    -0.168 NA
ATOM      9  C   UNL A   1     -29.624   0.897  27.798  0.00  0.00    +0.095 C 
ENDBRANCH   1   8
BRANCH   1  12
ATOM     10  C   UNL A   1     -20.831   1.447  27.587  0.00  0.00    +0.054 C 
ATOM     11  N   UNL A   1     -22.918   0.334  28.483  0.00  0.00    -0.181 NA
ATOM     12  N   UNL A   1     -24.271   0.491  28.253  0.00  0.00    -0.193 N 
ATOM     13  C   UNL A   1     -22.300   1.123  27.554  0.00  0.00    +0.078 C 
ATOM     14  C   UNL A   1     -23.197   1.788  26.593  0.00  0.00    +0.033 C 
ATOM     15  C   UNL A   1     -24.412   1.284  27.147  0.00  0.00    +0.075 C 
BRANCH  15  16
ATOM     16  C   UNL A   1     -25.688   1.614  26.461  0.00  0.00    +0.053 C 
ATOM     17  C   UNL A   1     -26.250   2.920  26.395  0.00  0.00    +0.078 C 
ATOM     18  C   UNL A   1     -27.438   3.091  25.645  0.00  0.00    +0.107 C 
ATOM     19  N   UNL A   1     -28.075   2.089  25.003  0.00  0.00    -0.208 NA
ATOM     20  C   UNL A   1     -27.543   0.849  25.079  0.00  0.00    +0.253 C 
ATOM     21  C   UNL A   1     -26.354   0.576  25.777  0.00  0.00    +0.194 C 
ATOM     22  F   UNL A   1     -25.860  -0.681  25.795  0.00  0.00    -0.199 F 
BRANCH  17  23
ATOM     23  C   UNL A   1     -25.642   4.093  27.123  0.00  0.00    +0.267 C 
ATOM     24  N   UNL A   1     -25.614   5.252  26.449  0.00  0.00    -0.200 NA
ATOM     25  C   UNL A   1     -25.026   6.479  26.963  0.00  0.00    +0.139 C 
ATOM     26  O   UNL A   1     -25.143   3.966  28.243  0.00  0.00    -0.268 OA
ENDBRANCH  17  23
BRANCH  20  27
ATOM     27  O   UNL A   1     -28.193  -0.208  24.477  0.00  0.00    -0.456 OA
BRANCH  27  28
ATOM     28  C   UNL A   1     -29.460   0.005  23.866  0.00  0.00    +0.243 C 
BRANCH  28  29
ATOM     29  C   UNL A   1     -30.065  -1.377  23.573  0.00  0.00    +0.229 C 
ATOM     30  O   UNL A   1     -30.729  -1.878  24.721  0.00  0.00    -0.216 OA
ENDBRANCH  28  29
ENDBRANCH  27  28
ENDBRANCH  20  27
ENDBRANCH  15  16
ENDBRANCH   1  12
BRANCH   1  31
ATOM     31  C   UNL A   1     -24.855  -1.012  30.143  0.00  0.00    +0.079 C 
BRANCH  31  32
ATOM     32  C   UNL A   1     -24.973  -2.505  29.788  0.00  0.00    -0.018 C 
ATOM     33  C   UNL A   1     -23.906  -3.173  29.146  0.00  0.00    -0.004 C 
ATOM     34  C   UNL A   1     -23.989  -4.549  28.853  0.00  0.00    -0.000 C 
ATOM     35  C   UNL A   1     -25.137  -5.280  29.205  0.00  0.00    -0.000 C 
ATOM     36  C   UNL A   1     -26.232  -4.611  29.784  0.00  0.00    -0.000 C 
ATOM     37  C   UNL A   1     -26.155  -3.232  30.065  0.00  0.00    -0.004 C 
ENDBRANCH  31  32
BRANCH  31  38
ATOM     38  C   UNL A   1     -25.387  -0.679  31.571  0.00  0.00    +0.080 C 
ATOM     39  C   UNL A   1     -25.189   0.773  32.028  0.00  0.00    +0.019 C 
ATOM     40  C   UNL A   1     -25.336   0.684  33.544  0.00  0.00    +0.020 C 
ATOM     41  C   UNL A   1     -24.829  -0.715  33.905  0.00  0.00    +0.089 C 
ATOM     42  N   UNL A   1     -24.758  -1.481  32.646  0.00  0.00    -0.219 NA
ENDBRANCH  31  38
ENDBRANCH   1  31
TORSDOF 10
