MODEL 113
MODEL 1
REMARK VINA RESULT:    -5.380      0.000      0.000
REMARK INTER + INTRA:          -5.925
REMARK INTER:                  -5.695
REMARK INTRA:                  -0.230
REMARK UNBOUND:                -0.230
REMARK  Name = No_113-gen_results/8p0m/2024-11-27-11-27-31/
REMARK  1 active torsions:
REMARK  status: ('A' for Active; 'I' for Inactive)
REMARK    1  A    between atoms: C_3  and  C_4
REMARK                            x       y       z     vdW  Elec       q    Type
REMARK                         _______ _______ _______ _____ _____    ______ ____
ROOT
ATOM      1  C   UNL A   1     -26.477  -3.533  30.010  0.00  0.00    -0.000 A 
ATOM      2  C   UNL A   1     -25.733  -2.650  29.650  0.00  0.00    -0.000 A 
ATOM      3  C   UNL A   1     -24.598  -2.766  29.023  0.00  0.00    -0.004 A 
ATOM      4  C   UNL A   1     -26.083  -4.917  29.680  0.00  0.00    -0.000 A 
ATOM      5  C   UNL A   1     -24.930  -5.175  29.078  0.00  0.00    -0.000 A 
ATOM      6  C   UNL A   1     -24.131  -4.097  28.696  0.00  0.00    -0.000 A 
ENDROOT
BRANCH   3   7
ATOM      7  C   UNL A   1     -23.715  -1.654  28.593  0.00  0.00    -0.026 C 
ATOM      8  C   UNL A   1     -22.786  -1.175  29.559  0.00  0.00    -0.030 C 
ATOM      9  C   UNL A   1     -21.930  -0.093  29.266  0.00  0.00    +0.030 C 
ATOM     10  C   UNL A   1     -24.316  -0.339  28.194  0.00  0.00    +0.031 C 
ENDBRANCH   3   7
TORSDOF 1
ENDMDL
ENDMDL
