MODEL 1141
MODEL 1
REMARK VINA RESULT:    -4.355      0.000      0.000
REMARK INTER + INTRA:          -4.355
REMARK INTER:                  -4.355
REMARK INTRA:                   0.000
REMARK UNBOUND:                 0.000
REMARK  Name = No_1141-gen_results/8p0m/2024-11-27-11-27-31/
REMARK  0 active torsions:
REMARK  status: ('A' for Active; 'I' for Inactive)
REMARK                            x       y       z     vdW  Elec       q    Type
REMARK                         _______ _______ _______ _____ _____    ______ ____
ROOT
ATOM      1  C   UNL A   1     -24.159  -4.922  28.602  0.00  0.00    +0.000 A 
ATOM      2  C   UNL A   1     -25.016  -5.318  29.071  0.00  0.00    +0.000 A 
ATOM      3  C   UNL A   1     -24.036  -3.466  28.742  0.00  0.00    +0.000 A 
ATOM      4  C   UNL A   1     -25.011  -2.710  29.250  0.00  0.00    +0.000 A 
ATOM      5  C   UNL A   1     -26.191  -4.715  29.651  0.00  0.00    +0.000 A 
ATOM      6  C   UNL A   1     -26.069  -3.361  29.749  0.00  0.00    +0.000 A 
ENDROOT
TORSDOF 0
ENDMDL
ENDMDL
