MODEL 1142
MODEL 1
REMARK VINA RESULT:    -6.851      0.000      0.000
REMARK INTER + INTRA:          -7.445
REMARK INTER:                  -7.252
REMARK INTRA:                  -0.194
REMARK UNBOUND:                -0.194
REMARK  Name = No_1142-gen_results/8p0m/2024-11-27-11-27-31/
REMARK  1 active torsions:
REMARK  status: ('A' for Active; 'I' for Inactive)
REMARK    1  A    between atoms: C_3  and  C_5
REMARK                            x       y       z     vdW  Elec       q    Type
REMARK                         _______ _______ _______ _____ _____    ______ ____
ROOT
ATOM      1  O   UNL A   1     -25.493  -0.423  27.191  0.00  0.00    -0.273 OA
ATOM      2  C   UNL A   1     -24.557  -0.494  27.860  0.00  0.00    +0.247 C 
ATOM      3  C   UNL A   1     -24.100  -1.132  28.609  0.00  0.00    +0.101 C 
ATOM      4  N   UNL A   1     -23.571   0.645  27.503  0.00  0.00    -0.172 NA
ATOM      5  C   UNL A   1     -22.318   0.751  28.056  0.00  0.00    +0.256 C 
ATOM      6  C   UNL A   1     -21.956  -0.181  28.998  0.00  0.00    +0.059 C 
ATOM      7  C   UNL A   1     -22.713  -1.150  29.287  0.00  0.00    +0.018 C 
ATOM      8  F   UNL A   1     -21.566   1.765  27.715  0.00  0.00    -0.213 F 
ENDROOT
BRANCH   3   9
ATOM      9  C   UNL A   1     -24.677  -2.338  29.128  0.00  0.00    -0.014 A 
ATOM     10  C   UNL A   1     -25.797  -2.496  29.535  0.00  0.00    -0.004 A 
ATOM     11  C   UNL A   1     -26.422  -3.802  29.855  0.00  0.00    -0.000 A 
ATOM     12  C   UNL A   1     -25.732  -4.943  29.464  0.00  0.00    -0.000 A 
ATOM     13  C   UNL A   1     -24.518  -4.832  28.839  0.00  0.00    -0.000 A 
ATOM     14  C   UNL A   1     -23.911  -3.576  28.631  0.00  0.00    -0.004 A 
ENDBRANCH   3   9
TORSDOF 1
ENDMDL
ENDMDL
