REMARK  Name = No_1142-gen_results/8p0m/2024-11-27-11-27-31/
REMARK  1 active torsions:
REMARK  status: ('A' for Active; 'I' for Inactive)
REMARK    1  A    between atoms: C_3  and  C_5
REMARK                            x       y       z     vdW  Elec       q    Type
REMARK                         _______ _______ _______ _____ _____    ______ ____
ROOT
ATOM      1  O   UNL A   1     -28.123  -1.335  28.487  0.00  0.00    -0.273 OA
ATOM      2  C   UNL A   1     -27.481  -0.404  28.709  0.00  0.00    +0.247 C 
ATOM      3  C   UNL A   1     -27.190   0.246  29.527  0.00  0.00    +0.101 C 
ATOM      4  N   UNL A   1     -26.687  -0.000  27.442  0.00  0.00    -0.172 NA
ATOM      5  C   UNL A   1     -25.751   1.005  27.434  0.00  0.00    +0.256 C 
ATOM      6  C   UNL A   1     -25.554   1.702  28.601  0.00  0.00    +0.059 C 
ATOM      7  C   UNL A   1     -26.149   1.378  29.667  0.00  0.00    +0.018 C 
ATOM      8  F   UNL A   1     -25.152   1.295  26.308  0.00  0.00    -0.213 F 
ENDROOT
BRANCH   3   9
ATOM      9  C   UNL A   1     -27.651   0.126  30.880  0.00  0.00    -0.014 A 
ATOM     10  C   UNL A   1     -28.609   0.656  31.375  0.00  0.00    -0.004 A 
ATOM     11  C   UNL A   1     -29.180   0.337  32.706  0.00  0.00    -0.000 A 
ATOM     12  C   UNL A   1     -28.694  -0.798  33.343  0.00  0.00    -0.000 A 
ATOM     13  C   UNL A   1     -27.712  -1.550  32.755  0.00  0.00    -0.000 A 
ATOM     14  C   UNL A   1     -27.128  -1.167  31.529  0.00  0.00    -0.004 A 
ENDBRANCH   3   9
TORSDOF 1
