REMARK  Name = No_1143-gen_results/8p0m/2024-11-27-11-27-31/
REMARK  1 active torsions:
REMARK  status: ('A' for Active; 'I' for Inactive)
REMARK    1  A    between atoms: C_2  and  C_7
REMARK                            x       y       z     vdW  Elec       q    Type
REMARK                         _______ _______ _______ _____ _____    ______ ____
ROOT
ATOM      1  C   UNL A   1     -27.106   1.102  27.759  0.00  0.00    +0.081 A 
ATOM      2  N   UNL A   1     -26.855   2.126  28.008  0.00  0.00    -0.244 NA
ATOM      3  C   UNL A   1     -27.514   0.810  26.348  0.00  0.00    +0.018 A 
ATOM      4  C   UNL A   1     -27.871  -0.380  25.837  0.00  0.00    +0.002 A 
ATOM      5  C   UNL A   1     -28.214  -0.446  24.506  0.00  0.00    +0.000 A 
ATOM      6  C   UNL A   1     -28.327   0.715  23.751  0.00  0.00    +0.000 A 
ATOM      7  C   UNL A   1     -27.618   1.840  25.374  0.00  0.00    +0.003 A 
ATOM      8  C   UNL A   1     -27.933   1.854  24.205  0.00  0.00    +0.000 A 
ATOM      9  C   UNL A   1     -27.122   3.239  26.070  0.00  0.00    +0.021 A 
ATOM     10  C   UNL A   1     -26.788   3.321  27.343  0.00  0.00    +0.099 A 
ENDROOT
BRANCH   1  12
ATOM     11  C   UNL A   1     -28.016  -0.814  28.878  0.00  0.00    +0.002 A 
ATOM     12  C   UNL A   1     -27.064  -0.119  28.608  0.00  0.00    +0.018 A 
ATOM     13  C   UNL A   1     -25.792  -0.430  29.076  0.00  0.00    +0.002 A 
ATOM     14  C   UNL A   1     -25.576  -1.565  29.936  0.00  0.00    +0.000 A 
ATOM     15  C   UNL A   1     -26.735  -2.300  30.217  0.00  0.00    +0.000 A 
ATOM     16  C   UNL A   1     -27.918  -1.954  29.763  0.00  0.00    +0.000 A 
ENDBRANCH   1  12
TORSDOF 1
