MODEL 1143
MODEL 1
REMARK VINA RESULT:    -7.653      0.000      0.000
REMARK INTER + INTRA:          -8.336
REMARK INTER:                  -8.101
REMARK INTRA:                  -0.235
REMARK UNBOUND:                -0.235
REMARK  Name = No_1143-gen_results/8p0m/2024-11-27-11-27-31/
REMARK  1 active torsions:
REMARK  status: ('A' for Active; 'I' for Inactive)
REMARK    1  A    between atoms: C_2  and  C_7
REMARK                            x       y       z     vdW  Elec       q    Type
REMARK                         _______ _______ _______ _____ _____    ______ ____
ROOT
ATOM      1  C   UNL A   1     -23.714  -1.401  28.979  0.00  0.00    +0.081 A 
ATOM      2  N   UNL A   1     -22.794  -1.124  29.479  0.00  0.00    -0.244 NA
ATOM      3  C   UNL A   1     -24.184  -0.529  27.856  0.00  0.00    +0.018 A 
ATOM      4  C   UNL A   1     -25.295  -0.688  27.116  0.00  0.00    +0.002 A 
ATOM      5  C   UNL A   1     -25.556   0.225  26.121  0.00  0.00    +0.000 A 
ATOM      6  C   UNL A   1     -24.766   1.361  25.984  0.00  0.00    +0.000 A 
ATOM      7  C   UNL A   1     -23.482   0.649  27.483  0.00  0.00    +0.003 A 
ATOM      8  C   UNL A   1     -23.668   1.500  26.641  0.00  0.00    +0.000 A 
ATOM      9  C   UNL A   1     -22.127   0.736  28.401  0.00  0.00    +0.021 A 
ATOM     10  C   UNL A   1     -21.859  -0.131  29.358  0.00  0.00    +0.099 A 
ENDROOT
BRANCH   1  12
ATOM     11  C   UNL A   1     -25.700  -2.540  29.694  0.00  0.00    +0.002 A 
ATOM     12  C   UNL A   1     -24.597  -2.578  29.199  0.00  0.00    +0.018 A 
ATOM     13  C   UNL A   1     -24.048  -3.778  28.760  0.00  0.00    +0.002 A 
ATOM     14  C   UNL A   1     -24.758  -5.020  28.923  0.00  0.00    +0.000 A 
ATOM     15  C   UNL A   1     -26.015  -4.888  29.526  0.00  0.00    +0.000 A 
ATOM     16  C   UNL A   1     -26.482  -3.732  29.939  0.00  0.00    +0.000 A 
ENDBRANCH   1  12
TORSDOF 1
ENDMDL
ENDMDL
