REMARK  Name = No_1144-gen_results/8p0m/2024-11-27-11-27-31/
REMARK  8 active torsions:
REMARK  status: ('A' for Active; 'I' for Inactive)
REMARK    1  A    between atoms: C_2  and  C_21
REMARK    2  A    between atoms: C_3  and  C_4
REMARK    3  A    between atoms: C_5  and  C_6
REMARK    4  A    between atoms: C_7  and  C_9
REMARK    5  A    between atoms: C_10  and  C_17
REMARK    6  A    between atoms: C_12  and  C_24
REMARK    7  A    between atoms: C_14  and  C_25
REMARK    8  A    between atoms: C_25  and  C_26
REMARK                            x       y       z     vdW  Elec       q    Type
REMARK                         _______ _______ _______ _____ _____    ______ ____
ROOT
ATOM      1  C   UNL A   1     -27.450   0.643  26.850  0.00  0.00    -0.000 A 
ATOM      2  C   UNL A   1     -26.453   0.994  26.668  0.00  0.00    +0.001 A 
ATOM      3  C   UNL A   1     -28.365   0.210  25.707  0.00  0.00    -0.004 A 
ATOM      4  C   UNL A   1     -28.459   1.104  24.713  0.00  0.00    -0.018 A 
ATOM      5  C   UNL A   1     -26.503   2.553  26.221  0.00  0.00    -0.000 A 
ATOM      6  C   UNL A   1     -27.477   2.291  24.837  0.00  0.00    -0.004 A 
ENDROOT
BRANCH   1   9
ATOM      7  C   UNL A   1     -28.016  -0.814  28.878  0.00  0.00    +0.007 A 
ATOM      8  C   UNL A   1     -28.469  -0.785  29.829  0.00  0.00    +0.080 A 
ATOM      9  C   UNL A   1     -28.182   0.428  28.113  0.00  0.00    +0.000 A 
ATOM     10  C   UNL A   1     -29.437   0.078  30.444  0.00  0.00    +0.010 A 
ATOM     11  C   UNL A   1     -29.677   1.188  29.734  0.00  0.00    +0.072 A 
ATOM     12  C   UNL A   1     -29.058   1.397  28.551  0.00  0.00    +0.004 A 
BRANCH  11  13
ATOM     13  C   UNL A   1     -30.612   2.259  30.279  0.00  0.00    +0.419 C 
ATOM     14  F   UNL A   1     -30.875   2.281  31.394  0.00  0.00    -0.166 F 
ATOM     15  F   UNL A   1     -30.031   3.466  29.907  0.00  0.00    -0.166 F 
ATOM     16  F   UNL A   1     -31.724   2.183  29.439  0.00  0.00    -0.166 F 
ENDBRANCH  11  13
BRANCH   8  17
ATOM     17  C   UNL A   1     -28.274  -2.096  30.805  0.00  0.00    +0.388 C 
ATOM     18  O   UNL A   1     -27.593  -2.983  30.423  0.00  0.00    -0.241 OA
ATOM     19  O   UNL A   1     -29.044  -2.236  31.898  0.00  0.00    -0.241 OA
ENDBRANCH   8  17
ENDBRANCH   1   9
BRANCH   2  20
ATOM     20  C   UNL A   1     -25.181   0.862  26.817  0.00  0.00    +0.009 C 
ATOM     21  C   UNL A   1     -24.204   1.046  27.487  0.00  0.00    +0.049 C 
BRANCH  21  22
ATOM     22  C   UNL A   1     -23.207   1.172  27.898  0.00  0.00    -0.062 C 
ATOM     23  C   UNL A   1     -21.951   1.073  28.527  0.00  0.00    -0.065 C 
BRANCH  23  24
ATOM     24  C   UNL A   1     -20.944   0.846  29.321  0.00  0.00    +0.185 C 
ATOM     25  N   UNL A   1     -20.169  -0.184  29.378  0.00  0.00    -0.116 NA
ENDBRANCH  23  24
ENDBRANCH  21  22
ENDBRANCH   2  20
BRANCH   4  26
ATOM     26  C   UNL A   1     -29.321   1.113  23.673  0.00  0.00    +0.053 C 
BRANCH  26  27
ATOM     27  C   UNL A   1     -30.652   1.458  24.028  0.00  0.00    -0.018 A 
ATOM     28  C   UNL A   1     -31.076   2.188  24.626  0.00  0.00    -0.004 A 
ATOM     29  C   UNL A   1     -32.537   2.536  24.886  0.00  0.00    -0.000 A 
ATOM     30  C   UNL A   1     -33.398   1.834  24.163  0.00  0.00    -0.000 A 
ATOM     31  C   UNL A   1     -32.961   0.907  23.241  0.00  0.00    -0.000 A 
ATOM     32  C   UNL A   1     -31.600   0.682  23.083  0.00  0.00    -0.004 A 
ENDBRANCH  26  27
ENDBRANCH   4  26
TORSDOF 8
