MODEL 1144
MODEL 1
REMARK VINA RESULT:    -8.329      0.000      0.000
REMARK INTER + INTRA:         -14.519
REMARK INTER:                 -12.225
REMARK INTRA:                  -2.295
REMARK UNBOUND:                -2.295
REMARK  Name = No_1144-gen_results/8p0m/2024-11-27-11-27-31/
REMARK  8 active torsions:
REMARK  status: ('A' for Active; 'I' for Inactive)
REMARK    1  A    between atoms: C_2  and  C_21
REMARK    2  A    between atoms: C_3  and  C_4
REMARK    3  A    between atoms: C_5  and  C_6
REMARK    4  A    between atoms: C_7  and  C_9
REMARK    5  A    between atoms: C_10  and  C_17
REMARK    6  A    between atoms: C_12  and  C_24
REMARK    7  A    between atoms: C_14  and  C_25
REMARK    8  A    between atoms: C_25  and  C_26
REMARK                            x       y       z     vdW  Elec       q    Type
REMARK                         _______ _______ _______ _____ _____    ______ ____
ROOT
ATOM      1  C   UNL A   1      -9.995   0.390  36.183  0.00  0.00    -0.000 A 
ATOM      2  C   UNL A   1      -9.195   0.523  35.481  0.00  0.00    +0.001 A 
ATOM      3  C   UNL A   1     -11.452   0.610  35.785  0.00  0.00    -0.004 A 
ATOM      4  C   UNL A   1     -11.682   1.781  35.176  0.00  0.00    -0.018 A 
ATOM      5  C   UNL A   1      -8.843   2.102  35.359  0.00  0.00    -0.000 A 
ATOM      6  C   UNL A   1     -10.401   2.574  34.830  0.00  0.00    -0.004 A 
ENDROOT
BRANCH   1   9
ATOM      7  C   UNL A   1      -8.920   0.389  38.507  0.00  0.00    +0.007 A 
ATOM      8  C   UNL A   1      -9.102   0.133  39.513  0.00  0.00    +0.080 A 
ATOM      9  C   UNL A   1      -9.979  -0.052  37.591  0.00  0.00    +0.000 A 
ATOM     10  C   UNL A   1     -10.002  -0.779  40.161  0.00  0.00    +0.010 A 
ATOM     11  C   UNL A   1     -10.937  -1.268  39.336  0.00  0.00    +0.072 A 
ATOM     12  C   UNL A   1     -10.955  -0.920  38.030  0.00  0.00    +0.004 A 
BRANCH  11  13
ATOM     13  C   UNL A   1     -12.029  -2.183  39.873  0.00  0.00    +0.419 C 
ATOM     14  F   UNL A   1     -12.544  -2.934  39.178  0.00  0.00    -0.166 F 
ATOM     15  F   UNL A   1     -11.444  -2.852  40.942  0.00  0.00    -0.166 F 
ATOM     16  F   UNL A   1     -12.910  -1.305  40.506  0.00  0.00    -0.166 F 
ENDBRANCH  11  13
BRANCH   8  17
ATOM     17  C   UNL A   1      -8.018   0.651  40.638  0.00  0.00    +0.388 C 
ATOM     18  O   UNL A   1      -7.376  -0.157  41.213  0.00  0.00    -0.241 OA
ATOM     19  O   UNL A   1      -8.030   1.935  41.036  0.00  0.00    -0.241 OA
ENDBRANCH   8  17
ENDBRANCH   1   9
BRANCH   2  20
ATOM     20  C   UNL A   1      -8.209   0.039  34.810  0.00  0.00    +0.009 C 
ATOM     21  C   UNL A   1      -7.366  -0.805  34.695  0.00  0.00    +0.049 C 
BRANCH  21  22
ATOM     22  C   UNL A   1      -6.506  -1.420  34.446  0.00  0.00    -0.062 C 
ATOM     23  C   UNL A   1      -5.245  -2.017  34.258  0.00  0.00    -0.065 C 
BRANCH  23  24
ATOM     24  C   UNL A   1      -3.991  -2.292  34.036  0.00  0.00    +0.185 C 
ATOM     25  N   UNL A   1      -2.981  -2.185  34.831  0.00  0.00    -0.116 NA
ENDBRANCH  23  24
ENDBRANCH  21  22
ENDBRANCH   2  20
BRANCH   4  26
ATOM     26  C   UNL A   1     -12.870   2.354  34.883  0.00  0.00    +0.053 C 
BRANCH  26  27
ATOM     27  C   UNL A   1     -13.664   2.654  36.022  0.00  0.00    -0.018 A 
ATOM     28  C   UNL A   1     -13.483   2.696  37.040  0.00  0.00    -0.004 A 
ATOM     29  C   UNL A   1     -14.388   3.112  38.194  0.00  0.00    -0.000 A 
ATOM     30  C   UNL A   1     -15.574   3.567  37.815  0.00  0.00    -0.000 A 
ATOM     31  C   UNL A   1     -15.901   3.672  36.480  0.00  0.00    -0.000 A 
ATOM     32  C   UNL A   1     -14.988   3.272  35.514  0.00  0.00    -0.004 A 
ENDBRANCH  26  27
ENDBRANCH   4  26
TORSDOF 8
ENDMDL
ENDMDL
