MODEL 1145
MODEL 1
REMARK VINA RESULT:    -5.811      0.000      0.000
REMARK INTER + INTRA:          -6.264
REMARK INTER:                  -6.151
REMARK INTRA:                  -0.113
REMARK UNBOUND:                -0.113
REMARK  Name = No_1145-gen_results/8p0m/2024-11-27-11-27-31/
REMARK  1 active torsions:
REMARK  status: ('A' for Active; 'I' for Inactive)
REMARK    1  A    between atoms: C_11  and  C_12
REMARK                            x       y       z     vdW  Elec       q    Type
REMARK                         _______ _______ _______ _____ _____    ______ ____
ROOT
ATOM      1  O   UNL A   1     -23.193   2.705  25.407  0.00  0.00    -0.268 OA
ATOM      2  C   UNL A   1     -23.530   1.832  26.215  0.00  0.00    +0.265 C 
ATOM      3  C   UNL A   1     -23.150   1.278  27.008  0.00  0.00    +0.051 A 
ATOM      4  N   UNL A   1     -24.995   1.441  25.936  0.00  0.00    -0.201 NA
ATOM      5  C   UNL A   1     -23.591   0.085  27.809  0.00  0.00    -0.010 A 
ATOM      6  C   UNL A   1     -24.987  -0.180  27.504  0.00  0.00    +0.050 C 
ATOM      7  C   UNL A   1     -25.605   0.471  26.542  0.00  0.00    +0.120 C 
ATOM      8  C   UNL A   1     -21.642   1.504  27.437  0.00  0.00    +0.004 A 
ATOM      9  C   UNL A   1     -20.924   0.723  28.191  0.00  0.00    +0.000 A 
ATOM     10  C   UNL A   1     -21.573  -0.337  28.966  0.00  0.00    +0.006 A 
ATOM     11  C   UNL A   1     -22.876  -0.708  28.703  0.00  0.00    +0.076 A 
ENDROOT
BRANCH  11  12
ATOM     12  C   UNL A   1     -23.448  -1.852  29.378  0.00  0.00    +0.387 C 
ATOM     13  O   UNL A   1     -23.808  -1.670  30.621  0.00  0.00    -0.241 OA
ATOM     14  O   UNL A   1     -23.430  -3.037  28.830  0.00  0.00    -0.241 OA
ENDBRANCH  11  12
TORSDOF 1
ENDMDL
ENDMDL
