MODEL 1146
MODEL 1
REMARK VINA RESULT:    -6.515      0.000      0.000
REMARK INTER + INTRA:          -7.215
REMARK INTER:                  -6.896
REMARK INTRA:                  -0.319
REMARK UNBOUND:                -0.319
REMARK  Name = No_1146-gen_results/8p0m/2024-11-27-11-27-31/
REMARK  1 active torsions:
REMARK  status: ('A' for Active; 'I' for Inactive)
REMARK    1  A    between atoms: C_3  and  C_7
REMARK                            x       y       z     vdW  Elec       q    Type
REMARK                         _______ _______ _______ _____ _____    ______ ____
ROOT
ATOM      1  C   UNL A   1     -26.479  -3.624  29.908  0.00  0.00    +0.000 A 
ATOM      2  C   UNL A   1     -25.840  -2.629  29.659  0.00  0.00    +0.000 A 
ATOM      3  C   UNL A   1     -24.607  -2.647  29.008  0.00  0.00    +0.000 A 
ATOM      4  C   UNL A   1     -24.014  -3.922  28.654  0.00  0.00    +0.000 A 
ATOM      5  C   UNL A   1     -24.814  -5.040  28.983  0.00  0.00    +0.000 A 
ATOM      6  C   UNL A   1     -25.961  -4.924  29.602  0.00  0.00    +0.000 A 
ENDROOT
BRANCH   3   7
ATOM      7  C   UNL A   1     -23.773  -1.466  28.661  0.00  0.00    +0.000 A 
ATOM      8  C   UNL A   1     -22.598  -1.269  29.202  0.00  0.00    +0.000 A 
ATOM      9  C   UNL A   1     -21.839  -0.089  28.904  0.00  0.00    +0.000 A 
ATOM     10  C   UNL A   1     -22.335   0.947  28.180  0.00  0.00    +0.000 A 
ATOM     11  C   UNL A   1     -24.332  -0.377  27.884  0.00  0.00    +0.000 A 
ATOM     12  C   UNL A   1     -23.592   0.814  27.658  0.00  0.00    +0.000 A 
ENDBRANCH   3   7
TORSDOF 1
ENDMDL
ENDMDL
