MODEL 1147
MODEL 1
REMARK VINA RESULT:    -6.532      0.000      0.000
REMARK INTER + INTRA:          -7.429
REMARK INTER:                  -7.295
REMARK INTRA:                  -0.133
REMARK UNBOUND:                -0.133
REMARK  Name = No_1147-gen_results/8p0m/2024-11-27-11-27-31/
REMARK  2 active torsions:
REMARK  status: ('A' for Active; 'I' for Inactive)
REMARK    1  A    between atoms: C_2  and  C_14
REMARK    2  A    between atoms: C_9  and  C_11
REMARK                            x       y       z     vdW  Elec       q    Type
REMARK                         _______ _______ _______ _____ _____    ______ ____
ROOT
ATOM      1  C   UNL A   1     -27.963 -11.900  31.512  0.00  0.00    +0.007 A 
ATOM      2  C   UNL A   1     -28.225 -11.465  32.435  0.00  0.00    +0.080 A 
ATOM      3  C   UNL A   1     -28.776 -11.441  30.323  0.00  0.00    +0.000 A 
ATOM      4  C   UNL A   1     -28.718 -11.984  28.989  0.00  0.00    +0.000 A 
ATOM      5  C   UNL A   1     -29.089 -10.325  32.771  0.00  0.00    +0.007 A 
ATOM      6  C   UNL A   1     -29.845  -9.832  31.729  0.00  0.00    +0.000 A 
ATOM      7  C   UNL A   1     -29.699 -10.343  30.465  0.00  0.00    +0.000 A 
ATOM      8  C   UNL A   1     -29.734 -11.722  28.066  0.00  0.00    +0.007 A 
ATOM      9  C   UNL A   1     -30.587 -10.616  28.264  0.00  0.00    +0.080 A 
ATOM     10  C   UNL A   1     -30.636  -9.999  29.436  0.00  0.00    +0.007 A 
ENDROOT
BRANCH   9  11
ATOM     11  C   UNL A   1     -31.531 -10.286  27.159  0.00  0.00    +0.388 C 
ATOM     12  O   UNL A   1     -32.147 -10.954  26.653  0.00  0.00    -0.241 OA
ATOM     13  O   UNL A   1     -31.507  -8.926  26.977  0.00  0.00    -0.241 OA
ENDBRANCH   9  11
BRANCH   2  14
ATOM     14  C   UNL A   1     -27.342 -11.872  33.711  0.00  0.00    +0.388 C 
ATOM     15  O   UNL A   1     -27.029 -10.900  34.575  0.00  0.00    -0.241 OA
ATOM     16  O   UNL A   1     -26.767 -12.947  33.779  0.00  0.00    -0.241 OA
ENDBRANCH   2  14
TORSDOF 2
ENDMDL
ENDMDL
