MODEL 1149
MODEL 1
REMARK VINA RESULT:    -5.178      0.000      0.000
REMARK INTER + INTRA:          -5.566
REMARK INTER:                  -5.481
REMARK INTRA:                  -0.085
REMARK UNBOUND:                -0.085
REMARK  Name = No_1149-gen_results/8p0m/2024-11-27-11-27-31/
REMARK  1 active torsions:
REMARK  status: ('A' for Active; 'I' for Inactive)
REMARK    1  A    between atoms: C_2  and  C_3
REMARK                            x       y       z     vdW  Elec       q    Type
REMARK                         _______ _______ _______ _____ _____    ______ ____
ROOT
ATOM      1  C   UNL A   1      -8.058 -10.102  19.890  0.00  0.00    +0.044 A 
ATOM      2  C   UNL A   1      -9.266  -9.231  19.789  0.00  0.00    +0.001 A 
ATOM      3  C   UNL A   1     -10.292  -9.406  18.951  0.00  0.00    -0.000 A 
ATOM      4  C   UNL A   1     -10.292  -9.808  17.960  0.00  0.00    -0.000 A 
ATOM      5  C   UNL A   1      -9.201 -10.882  17.691  0.00  0.00    -0.000 A 
ATOM      6  C   UNL A   1      -8.153 -10.860  18.586  0.00  0.00    +0.001 A 
ENDROOT
BRANCH   1   8
ATOM      7  F   UNL A   1      -6.982 -10.051  21.671  0.00  0.00    -0.193 F 
ATOM      8  C   UNL A   1      -6.960  -9.762  20.630  0.00  0.00    +0.341 C 
ATOM      9  F   UNL A   1      -6.460  -8.473  20.474  0.00  0.00    -0.193 F 
ENDBRANCH   1   8
TORSDOF 1
ENDMDL
ENDMDL
