REMARK  Name = outputs/IAG933/test6/raw/output_1149_IAG933_linker_design_.xyz
REMARK  12 active torsions:
REMARK  status: ('A' for Active; 'I' for Inactive)
REMARK    1  A    between atoms: C_1  and  C_2
REMARK    2  A    between atoms: C_1  and  C_8
REMARK    3  A    between atoms: C_1  and  C_44
REMARK    4  A    between atoms: C_13  and  N_31
REMARK    5  A    between atoms: C_14  and  C_15
REMARK    6  A    between atoms: C_21  and  O_22
REMARK    7  A    between atoms: O_22  and  C_23
REMARK    8  A    between atoms: C_23  and  C_24
REMARK    9  A    between atoms: N_34  and  C_41
REMARK   10  A    between atoms: C_35  and  C_44
REMARK   11  A    between atoms: C_37  and  C_44
REMARK   12  A    between atoms: C_39  and  C_41
REMARK                            x       y       z     vdW  Elec       q    Type
REMARK                         _______ _______ _______ _____ _____    ______ ____
ROOT
ATOM      1  C   UNL A   1     -25.235   0.102  29.197  0.00  0.00    +0.042 C 
ENDROOT
BRANCH   1   4
ATOM      2  C   UNL A   1     -27.523  -0.657  28.642  0.00  0.00    +0.107 C 
ATOM      3  N   UNL A   1     -29.387   0.350  29.763  0.00  0.00    -0.270 N 
ATOM      4  C   UNL A   1     -26.710   0.457  29.081  0.00  0.00    -0.036 C 
ATOM      5  C   UNL A   1     -27.226   1.640  29.722  0.00  0.00    -0.013 C 
ATOM      6  O   UNL A   1     -29.766  -0.558  27.828  0.00  0.00    -0.275 OA
ATOM      7  C   UNL A   1     -28.789   1.701  29.853  0.00  0.00    +0.120 C 
ATOM      8  C   UNL A   1     -29.003  -0.346  28.691  0.00  0.00    +0.230 C 
BRANCH   3  10
ATOM      9  C   UNL A   1     -30.892   0.324  31.640  0.00  0.00    +0.030 C 
ATOM     10  C   UNL A   1     -30.142  -0.326  30.614  0.00  0.00    +0.133 C 
BRANCH  10  12
ATOM     11  C   UNL A   1     -31.289  -1.969  31.858  0.00  0.00    +0.074 C 
ATOM     12  C   UNL A   1     -30.232  -1.770  30.871  0.00  0.00    +0.169 C 
ATOM     13  O   UNL A   1     -29.596  -2.731  30.419  0.00  0.00    -0.294 OA
ENDBRANCH  10  12
ENDBRANCH   3  10
ENDBRANCH   1   4
BRANCH   1  18
ATOM     14  C   UNL A   1     -23.346   1.187  26.177  0.00  0.00    +0.126 C 
ATOM     15  C   UNL A   1     -22.791   0.769  28.389  0.00  0.00    +0.057 C 
ATOM     16  N   UNL A   1     -24.486   1.272  27.058  0.00  0.00    -0.304 N 
ATOM     17  C   UNL A   1     -22.379   1.053  26.949  0.00  0.00    +0.182 C 
ATOM     18  C   UNL A   1     -24.252   0.746  28.353  0.00  0.00    +0.080 C 
ATOM     19  F   UNL A   1     -21.432   2.034  26.848  0.00  0.00    -0.235 F 
BRANCH  16  20
ATOM     20  C   UNL A   1     -25.688   1.614  26.461  0.00  0.00    +0.086 C 
ATOM     21  C   UNL A   1     -26.250   2.920  26.395  0.00  0.00    +0.090 C 
ATOM     22  C   UNL A   1     -27.438   3.091  25.645  0.00  0.00    +0.108 C 
ATOM     23  N   UNL A   1     -28.075   2.089  25.003  0.00  0.00    -0.208 NA
ATOM     24  C   UNL A   1     -27.543   0.849  25.079  0.00  0.00    +0.255 C 
ATOM     25  C   UNL A   1     -26.354   0.576  25.777  0.00  0.00    +0.206 C 
ATOM     26  F   UNL A   1     -25.860  -0.681  25.795  0.00  0.00    -0.198 F 
BRANCH  21  27
ATOM     27  C   UNL A   1     -25.642   4.093  27.123  0.00  0.00    +0.268 C 
ATOM     28  N   UNL A   1     -25.614   5.252  26.449  0.00  0.00    -0.200 NA
ATOM     29  C   UNL A   1     -25.026   6.479  26.963  0.00  0.00    +0.139 C 
ATOM     30  O   UNL A   1     -25.143   3.966  28.243  0.00  0.00    -0.268 OA
ENDBRANCH  21  27
BRANCH  24  31
ATOM     31  O   UNL A   1     -28.193  -0.208  24.477  0.00  0.00    -0.456 OA
BRANCH  31  32
ATOM     32  C   UNL A   1     -29.460   0.005  23.866  0.00  0.00    +0.243 C 
BRANCH  32  33
ATOM     33  C   UNL A   1     -30.065  -1.377  23.573  0.00  0.00    +0.229 C 
ATOM     34  O   UNL A   1     -30.729  -1.878  24.721  0.00  0.00    -0.216 OA
ENDBRANCH  32  33
ENDBRANCH  31  32
ENDBRANCH  24  31
ENDBRANCH  16  20
ENDBRANCH   1  18
BRANCH   1  35
ATOM     35  C   UNL A   1     -24.855  -1.012  30.143  0.00  0.00    +0.044 C 
BRANCH  35  36
ATOM     36  C   UNL A   1     -24.973  -2.505  29.788  0.00  0.00    -0.021 C 
ATOM     37  C   UNL A   1     -23.906  -3.173  29.146  0.00  0.00    -0.004 C 
ATOM     38  C   UNL A   1     -23.989  -4.549  28.853  0.00  0.00    -0.000 C 
ATOM     39  C   UNL A   1     -25.137  -5.280  29.205  0.00  0.00    -0.000 C 
ATOM     40  C   UNL A   1     -26.232  -4.611  29.784  0.00  0.00    -0.000 C 
ATOM     41  C   UNL A   1     -26.155  -3.232  30.065  0.00  0.00    -0.004 C 
ENDBRANCH  35  36
BRANCH  35  42
ATOM     42  C   UNL A   1     -25.387  -0.679  31.571  0.00  0.00    +0.077 C 
ATOM     43  C   UNL A   1     -25.189   0.773  32.028  0.00  0.00    +0.019 C 
ATOM     44  C   UNL A   1     -25.336   0.684  33.544  0.00  0.00    +0.020 C 
ATOM     45  C   UNL A   1     -24.829  -0.715  33.905  0.00  0.00    +0.089 C 
ATOM     46  N   UNL A   1     -24.758  -1.481  32.646  0.00  0.00    -0.219 NA
ENDBRANCH  35  42
ENDBRANCH   1  35
TORSDOF 12
