MODEL 114
MODEL 1
REMARK VINA RESULT:    -5.225      0.000      0.000
REMARK INTER + INTRA:          -5.580
REMARK INTER:                  -5.531
REMARK INTRA:                  -0.049
REMARK UNBOUND:                -0.049
REMARK  Name = No_114-gen_results/8p0m/2024-11-27-11-27-31/
REMARK  1 active torsions:
REMARK  status: ('A' for Active; 'I' for Inactive)
REMARK    1  A    between atoms: C_6  and  C_8
REMARK                            x       y       z     vdW  Elec       q    Type
REMARK                         _______ _______ _______ _____ _____    ______ ____
ROOT
ATOM      1  C   UNL A   1     -28.307 -11.804  30.857  0.00  0.00    +0.018 A 
ATOM      2  C   UNL A   1     -29.122 -11.204  30.195  0.00  0.00    +0.058 A 
ATOM      3  C   UNL A   1     -29.898 -10.194  30.753  0.00  0.00    +0.011 A 
ATOM      4  C   UNL A   1     -29.788  -9.862  32.150  0.00  0.00    +0.001 A 
ATOM      5  C   UNL A   1     -28.840 -10.622  32.847  0.00  0.00    +0.007 A 
ATOM      6  C   UNL A   1     -28.143 -11.578  32.276  0.00  0.00    +0.081 A 
ATOM      7 CL   UNL A   1     -29.418 -11.499  28.534  0.00  0.00    -0.082 Cl
ENDROOT
BRANCH   6   8
ATOM      8  C   UNL A   1     -27.213 -12.339  33.141  0.00  0.00    +0.388 C 
ATOM      9  O   UNL A   1     -26.411 -12.959  32.684  0.00  0.00    -0.241 OA
ATOM     10  O   UNL A   1     -27.422 -12.279  34.444  0.00  0.00    -0.241 OA
ENDBRANCH   6   8
TORSDOF 1
ENDMDL
ENDMDL
