REMARK  Name = No_1150-gen_results/8p0m/2024-11-27-11-27-31/
REMARK  2 active torsions:
REMARK  status: ('A' for Active; 'I' for Inactive)
REMARK    1  A    between atoms: C_3  and  C_7
REMARK    2  A    between atoms: C_7  and  C_8
REMARK                            x       y       z     vdW  Elec       q    Type
REMARK                         _______ _______ _______ _____ _____    ______ ____
ROOT
ATOM      1  C   UNL A   1     -26.399   0.295  27.228  0.00  0.00    +0.053 C 
ENDROOT
BRANCH   1   4
ATOM      2  C   UNL A   1     -28.016  -0.814  28.878  0.00  0.00    -0.004 A 
ATOM      3  C   UNL A   1     -28.469  -0.785  29.829  0.00  0.00    -0.000 A 
ATOM      4  C   UNL A   1     -27.136   0.236  28.535  0.00  0.00    -0.018 A 
ATOM      5  C   UNL A   1     -26.875   1.282  29.398  0.00  0.00    -0.004 A 
ATOM      6  C   UNL A   1     -28.361   0.199  30.924  0.00  0.00    -0.000 A 
ATOM      7  C   UNL A   1     -27.528   1.223  30.636  0.00  0.00    -0.000 A 
ENDBRANCH   1   4
BRANCH   1   8
ATOM      8  C   UNL A   1     -26.902   0.728  26.213  0.00  0.00    -0.018 A 
ATOM      9  C   UNL A   1     -28.229   1.259  26.197  0.00  0.00    -0.004 A 
ATOM     10  C   UNL A   1     -28.798   1.577  24.883  0.00  0.00    -0.000 A 
ATOM     11  C   UNL A   1     -28.062   1.206  23.769  0.00  0.00    -0.000 A 
ATOM     12  C   UNL A   1     -26.352   0.391  24.937  0.00  0.00    -0.004 A 
ATOM     13  C   UNL A   1     -26.885   0.659  23.773  0.00  0.00    -0.000 A 
ENDBRANCH   1   8
TORSDOF 2
