MODEL 1150
MODEL 1
REMARK VINA RESULT:    -6.580      0.000      0.000
REMARK INTER + INTRA:          -7.835
REMARK INTER:                  -7.349
REMARK INTRA:                  -0.487
REMARK UNBOUND:                -0.487
REMARK  Name = No_1150-gen_results/8p0m/2024-11-27-11-27-31/
REMARK  2 active torsions:
REMARK  status: ('A' for Active; 'I' for Inactive)
REMARK    1  A    between atoms: C_3  and  C_7
REMARK    2  A    between atoms: C_7  and  C_8
REMARK                            x       y       z     vdW  Elec       q    Type
REMARK                         _______ _______ _______ _____ _____    ______ ____
ROOT
ATOM      1  C   UNL A   1     -23.481  -1.629  29.436  0.00  0.00    +0.053 C 
ENDROOT
BRANCH   1   4
ATOM      2  C   UNL A   1     -24.409  -0.176  27.540  0.00  0.00    -0.004 A 
ATOM      3  C   UNL A   1     -24.277   0.672  26.928  0.00  0.00    -0.000 A 
ATOM      4  C   UNL A   1     -23.399  -0.473  28.481  0.00  0.00    -0.018 A 
ATOM      5  C   UNL A   1     -22.262   0.302  28.603  0.00  0.00    -0.004 A 
ATOM      6  C   UNL A   1     -23.177   1.655  26.858  0.00  0.00    -0.000 A 
ATOM      7  C   UNL A   1     -22.187   1.406  27.743  0.00  0.00    -0.000 A 
ENDBRANCH   1   4
BRANCH   1   8
ATOM      8  C   UNL A   1     -24.300  -2.516  29.319  0.00  0.00    -0.018 A 
ATOM      9  C   UNL A   1     -25.569  -2.461  29.975  0.00  0.00    -0.004 A 
ATOM     10  C   UNL A   1     -26.397  -3.669  29.915  0.00  0.00    -0.000 A 
ATOM     11  C   UNL A   1     -25.826  -4.800  29.354  0.00  0.00    -0.000 A 
ATOM     12  C   UNL A   1     -23.904  -3.803  28.840  0.00  0.00    -0.004 A 
ATOM     13  C   UNL A   1     -24.647  -4.879  28.817  0.00  0.00    -0.000 A 
ENDBRANCH   1   8
TORSDOF 2
ENDMDL
ENDMDL
