MODEL 1151
MODEL 1
REMARK VINA RESULT:    -4.486      0.000      0.000
REMARK INTER + INTRA:          -5.198
REMARK INTER:                  -5.010
REMARK INTRA:                  -0.188
REMARK UNBOUND:                -0.188
REMARK  Name = No_1151-gen_results/8p0m/2024-11-27-11-27-31/
REMARK  2 active torsions:
REMARK  status: ('A' for Active; 'I' for Inactive)
REMARK    1  A    between atoms: C_3  and  C_4
REMARK    2  A    between atoms: C_5  and  C_6
REMARK                            x       y       z     vdW  Elec       q    Type
REMARK                         _______ _______ _______ _____ _____    ______ ____
ROOT
ATOM      1  C   UNL A   1     -24.541  -3.220  28.707  0.00  0.00    +0.002 C 
ATOM      2  C   UNL A   1     -23.598  -2.435  29.002  0.00  0.00    -0.000 C 
ENDROOT
BRANCH   1   5
ATOM      3  F   UNL A   1     -25.835  -5.239  29.583  0.00  0.00    -0.202 F 
ATOM      4  C   UNL A   1     -24.875  -5.392  29.110  0.00  0.00    +0.167 C 
ATOM      5  C   UNL A   1     -24.232  -4.737  28.711  0.00  0.00    +0.032 C 
ENDBRANCH   1   5
BRANCH   2   6
ATOM      6  C   UNL A   1     -23.883  -0.990  28.845  0.00  0.00    -0.005 C 
ATOM      7  C   UNL A   1     -22.860  -0.100  28.778  0.00  0.00    -0.026 C 
ATOM      8  C   UNL A   1     -21.577  -0.430  29.020  0.00  0.00    +0.031 C 
ENDBRANCH   2   6
TORSDOF 2
ENDMDL
ENDMDL
