MODEL 1152
MODEL 1
REMARK VINA RESULT:    -6.415      0.000      0.000
REMARK INTER + INTRA:          -7.684
REMARK INTER:                  -7.166
REMARK INTRA:                  -0.518
REMARK UNBOUND:                -0.518
REMARK  Name = No_1152-gen_results/8p0m/2024-11-27-11-27-31/
REMARK  2 active torsions:
REMARK  status: ('A' for Active; 'I' for Inactive)
REMARK    1  A    between atoms: C_3  and  C_7
REMARK    2  A    between atoms: C_7  and  C_8
REMARK                            x       y       z     vdW  Elec       q    Type
REMARK                         _______ _______ _______ _____ _____    ______ ____
ROOT
ATOM      1  C   UNL A   1     -24.682  -1.212  29.604  0.00  0.00    +0.053 C 
ENDROOT
BRANCH   1   4
ATOM      2  C   UNL A   1     -26.033  -3.341  29.879  0.00  0.00    -0.004 A 
ATOM      3  C   UNL A   1     -26.159  -4.362  29.648  0.00  0.00    -0.000 A 
ATOM      4  C   UNL A   1     -24.841  -2.721  29.376  0.00  0.00    -0.018 A 
ATOM      5  C   UNL A   1     -23.853  -3.405  28.792  0.00  0.00    -0.004 A 
ATOM      6  C   UNL A   1     -25.220  -5.299  29.049  0.00  0.00    -0.000 A 
ATOM      7  C   UNL A   1     -24.103  -4.745  28.599  0.00  0.00    -0.000 A 
ENDBRANCH   1   4
BRANCH   1   8
ATOM      8  C   UNL A   1     -24.211  -0.456  28.475  0.00  0.00    -0.018 A 
ATOM      9  C   UNL A   1     -23.000   0.265  28.623  0.00  0.00    -0.004 A 
ATOM     10  C   UNL A   1     -22.718   1.226  27.619  0.00  0.00    -0.000 A 
ATOM     11  C   UNL A   1     -23.585   1.331  26.483  0.00  0.00    -0.000 A 
ATOM     12  C   UNL A   1     -24.699   0.589  26.350  0.00  0.00    -0.000 A 
ATOM     13  C   UNL A   1     -25.080  -0.276  27.375  0.00  0.00    -0.004 A 
ENDBRANCH   1   8
TORSDOF 2
ENDMDL
ENDMDL
