REMARK  Name = outputs/IAG933/test6/raw/output_1153_IAG933_linker_design_.xyz
REMARK  12 active torsions:
REMARK  status: ('A' for Active; 'I' for Inactive)
REMARK    1  A    between atoms: C_1  and  C_2
REMARK    2  A    between atoms: C_1  and  C_8
REMARK    3  A    between atoms: C_1  and  C_41
REMARK    4  A    between atoms: C_13  and  C_39
REMARK    5  A    between atoms: C_14  and  C_15
REMARK    6  A    between atoms: C_21  and  O_22
REMARK    7  A    between atoms: O_22  and  C_23
REMARK    8  A    between atoms: C_23  and  C_24
REMARK    9  A    between atoms: C_29  and  N_40
REMARK   10  A    between atoms: C_30  and  C_41
REMARK   11  A    between atoms: C_32  and  C_37
REMARK   12  A    between atoms: C_37  and  N_40
REMARK                            x       y       z     vdW  Elec       q    Type
REMARK                         _______ _______ _______ _____ _____    ______ ____
ROOT
ATOM      1  F   UNL A   1     -20.669   1.250  28.158  0.00  0.00    -0.184 F 
ATOM      2  C   UNL A   1     -24.366   0.645  28.133  0.00  0.00    +0.037 C 
ATOM      3  C   UNL A   1     -23.065   0.998  28.497  0.00  0.00    +0.050 C 
ATOM      4  O   UNL A   1     -22.120   1.790  26.485  0.00  0.00    -0.451 OA
ATOM      5  C   UNL A   1     -21.932   1.335  27.737  0.00  0.00    +0.348 C 
ATOM      6  C   UNL A   1     -23.483   2.180  24.576  0.00  0.00    +0.072 C 
ATOM      7  C   UNL A   1     -23.371   1.740  26.026  0.00  0.00    +0.120 C 
ATOM      8  C   UNL A   1     -24.407   1.337  26.899  0.00  0.00    +0.035 C 
ENDROOT
BRANCH   8   9
ATOM      9  C   UNL A   1     -25.688   1.614  26.461  0.00  0.00    +0.041 C 
ATOM     10  C   UNL A   1     -26.250   2.920  26.395  0.00  0.00    +0.077 C 
ATOM     11  C   UNL A   1     -27.438   3.091  25.645  0.00  0.00    +0.107 C 
ATOM     12  N   UNL A   1     -28.075   2.089  25.003  0.00  0.00    -0.208 NA
ATOM     13  C   UNL A   1     -27.543   0.849  25.079  0.00  0.00    +0.253 C 
ATOM     14  C   UNL A   1     -26.354   0.576  25.777  0.00  0.00    +0.193 C 
ATOM     15  F   UNL A   1     -25.860  -0.681  25.795  0.00  0.00    -0.199 F 
BRANCH  10  16
ATOM     16  C   UNL A   1     -25.642   4.093  27.123  0.00  0.00    +0.266 C 
ATOM     17  N   UNL A   1     -25.614   5.252  26.449  0.00  0.00    -0.200 NA
ATOM     18  C   UNL A   1     -25.026   6.479  26.963  0.00  0.00    +0.139 C 
ATOM     19  O   UNL A   1     -25.143   3.966  28.243  0.00  0.00    -0.268 OA
ENDBRANCH  10  16
BRANCH  13  20
ATOM     20  O   UNL A   1     -28.193  -0.208  24.477  0.00  0.00    -0.456 OA
BRANCH  20  21
ATOM     21  C   UNL A   1     -29.460   0.005  23.866  0.00  0.00    +0.243 C 
BRANCH  21  22
ATOM     22  C   UNL A   1     -30.065  -1.377  23.573  0.00  0.00    +0.229 C 
ATOM     23  O   UNL A   1     -30.729  -1.878  24.721  0.00  0.00    -0.216 OA
ENDBRANCH  21  22
ENDBRANCH  20  21
ENDBRANCH  13  20
ENDBRANCH   8   9
BRANCH   2  25
ATOM     24  O   UNL A   1     -26.506  -0.424  28.576  0.00  0.00    -0.291 OA
ATOM     25  C   UNL A   1     -25.407  -0.273  28.917  0.00  0.00    +0.178 C 
BRANCH  25  26
ATOM     26  C   UNL A   1     -24.855  -1.012  30.143  0.00  0.00    +0.100 C 
BRANCH  26  27
ATOM     27  C   UNL A   1     -24.973  -2.505  29.788  0.00  0.00    -0.014 C 
ATOM     28  C   UNL A   1     -23.906  -3.173  29.146  0.00  0.00    -0.004 C 
ATOM     29  C   UNL A   1     -23.989  -4.549  28.853  0.00  0.00    -0.000 C 
ATOM     30  C   UNL A   1     -25.137  -5.280  29.205  0.00  0.00    -0.000 C 
ATOM     31  C   UNL A   1     -26.232  -4.611  29.784  0.00  0.00    -0.000 C 
ATOM     32  C   UNL A   1     -26.155  -3.232  30.065  0.00  0.00    -0.004 C 
ENDBRANCH  26  27
BRANCH  26  33
ATOM     33  C   UNL A   1     -25.387  -0.679  31.571  0.00  0.00    +0.084 C 
ATOM     34  C   UNL A   1     -25.189   0.773  32.028  0.00  0.00    +0.020 C 
ATOM     35  C   UNL A   1     -25.336   0.684  33.544  0.00  0.00    +0.020 C 
ATOM     36  C   UNL A   1     -24.829  -0.715  33.905  0.00  0.00    +0.089 C 
ATOM     37  N   UNL A   1     -24.758  -1.481  32.646  0.00  0.00    -0.219 NA
ENDBRANCH  26  33
ENDBRANCH  25  26
ENDBRANCH   2  25
BRANCH   3  38
ATOM     38  C   UNL A   1     -23.093   1.081  29.837  0.00  0.00    +0.117 C 
BRANCH  38  39
ATOM     39  N   UNL A   1     -23.829   2.411  30.027  0.00  0.00    -0.213 NA
BRANCH  39  40
ATOM     40  C   UNL A   1     -23.296   3.771  30.377  0.00  0.00    +0.089 C 
ATOM     41  C   UNL A   1     -23.833   4.172  31.762  0.00  0.00    +0.020 C 
ENDBRANCH  39  40
ENDBRANCH  38  39
ENDBRANCH   3  38
TORSDOF 12
