MODEL 1153
MODEL 1
REMARK VINA RESULT:    -6.707      0.000      0.000
REMARK INTER + INTRA:          -7.958
REMARK INTER:                  -8.275
REMARK INTRA:                   0.317
REMARK UNBOUND:                 0.317
REMARK  Name = No_1153-gen_results/8p0m/2024-11-27-11-27-31/
REMARK  4 active torsions:
REMARK  status: ('A' for Active; 'I' for Inactive)
REMARK    1  A    between atoms: C_2  and  O_8
REMARK    2  A    between atoms: O_8  and  C_9
REMARK    3  A    between atoms: C_24  and  O_25
REMARK    4  A    between atoms: O_25  and  C_26
REMARK                            x       y       z     vdW  Elec       q    Type
REMARK                         _______ _______ _______ _____ _____    ______ ____
ROOT
ATOM      1  C   UNL A   1     -26.073   0.223  29.706  0.00  0.00    +0.226 C 
ATOM      2  C   UNL A   1     -27.330  -0.263  29.195  0.00  0.00    +0.049 C 
ATOM      3  C   UNL A   1     -27.750   0.234  27.948  0.00  0.00    +0.004 C 
ATOM      4  C   UNL A   1     -27.706   1.684  27.871  0.00  0.00    +0.002 C 
ATOM      5  C   UNL A   1     -26.641   2.120  26.914  0.00  0.00    +0.020 C 
ATOM      6  C   UNL A   1     -25.517   2.627  27.576  0.00  0.00    +0.076 C 
ATOM      7  C   UNL A   1     -24.442   2.925  26.549  0.00  0.00    +0.025 C 
ATOM      8  C   UNL A   1     -23.263   2.573  26.353  0.00  0.00    +0.029 C 
ATOM      9  C   UNL A   1     -22.672   1.611  27.304  0.00  0.00    -0.009 A 
ATOM     10  C   UNL A   1     -21.414   1.222  27.205  0.00  0.00    -0.003 A 
ATOM     11  C   UNL A   1     -20.795   0.511  28.213  0.00  0.00    -0.000 A 
ATOM     12  C   UNL A   1     -21.622   0.084  29.318  0.00  0.00    +0.001 A 
ATOM     13  C   UNL A   1     -22.952   0.366  29.307  0.00  0.00    +0.014 A 
ATOM     14  C   UNL A   1     -23.480   1.106  28.271  0.00  0.00    +0.046 A 
ATOM     15  N   UNL A   1     -24.837   1.512  28.390  0.00  0.00    -0.275 N 
ATOM     16  C   UNL A   1     -25.657   0.570  29.191  0.00  0.00    +0.285 C 
ENDROOT
BRANCH   1  17
ATOM     17  O   UNL A   1     -26.214   0.884  30.873  0.00  0.00    -0.474 OA
BRANCH  17  19
ATOM     18  C   UNL A   1     -24.856  -0.289  32.338  0.00  0.00    +0.038 A 
ATOM     19  C   UNL A   1     -25.876   0.338  32.170  0.00  0.00    +0.139 A 
ATOM     20  C   UNL A   1     -26.858   0.474  33.131  0.00  0.00    +0.038 A 
ATOM     21  C   UNL A   1     -26.635  -0.127  34.402  0.00  0.00    +0.015 A 
ATOM     22  C   UNL A   1     -25.410  -0.669  34.597  0.00  0.00    +0.058 A 
ATOM     23  C   UNL A   1     -24.515  -0.719  33.630  0.00  0.00    +0.015 A 
ATOM     24 CL   UNL A   1     -25.122  -1.348  36.131  0.00  0.00    -0.082 Cl
ENDBRANCH  17  19
ENDBRANCH   1  17
BRANCH  16  25
ATOM     25  O   UNL A   1     -24.962  -0.512  28.694  0.00  0.00    -0.454 OA
BRANCH  25  26
ATOM     26  C   UNL A   1     -25.096  -1.817  29.079  0.00  0.00    +0.170 C 
ATOM     27  C   UNL A   1     -24.488  -2.876  28.921  0.00  0.00    +0.014 C 
ATOM     28  C   UNL A   1     -24.850  -3.944  29.023  0.00  0.00    +0.034 C 
ENDBRANCH  25  26
ENDBRANCH  16  25
TORSDOF 4
ENDMDL
ENDMDL
