REMARK  Name = outputs/IAG933/test6/raw/output_1154_IAG933_linker_design_.xyz
REMARK  11 active torsions:
REMARK  status: ('A' for Active; 'I' for Inactive)
REMARK    1  A    between atoms: C_1  and  C_2
REMARK    2  A    between atoms: C_1  and  C_8
REMARK    3  A    between atoms: C_1  and  C_36
REMARK    4  A    between atoms: C_13  and  C_29
REMARK    5  A    between atoms: C_14  and  C_15
REMARK    6  A    between atoms: C_21  and  O_22
REMARK    7  A    between atoms: O_22  and  C_23
REMARK    8  A    between atoms: C_23  and  C_24
REMARK    9  A    between atoms: C_28  and  C_41
REMARK   10  A    between atoms: C_32  and  C_41
REMARK   11  A    between atoms: C_36  and  C_44
REMARK                            x       y       z     vdW  Elec       q    Type
REMARK                         _______ _______ _______ _____ _____    ______ ____
ROOT
ATOM      1  C   UNL A   1     -26.516  -0.289  28.462  0.00  0.00    -0.027 C 
ATOM      2  C   UNL A   1     -25.183  -0.168  28.850  0.00  0.00    +0.012 C 
ENDROOT
BRANCH   2   8
ATOM      3  C   UNL A   1     -24.431   1.376  26.787  0.00  0.00    +0.018 C 
ATOM      4  C   UNL A   1     -21.905   1.310  27.696  0.00  0.00    +0.232 C 
ATOM      5  O   UNL A   1     -22.899   0.790  28.438  0.00  0.00    -0.471 OA
ATOM      6  C   UNL A   1     -23.429   1.876  25.973  0.00  0.00    -0.002 C 
ATOM      7  C   UNL A   1     -22.114   1.862  26.458  0.00  0.00    +0.021 C 
ATOM      8  C   UNL A   1     -24.176   0.701  28.003  0.00  0.00    +0.131 C 
BRANCH   3   9
ATOM      9  C   UNL A   1     -25.688   1.614  26.461  0.00  0.00    +0.095 C 
ATOM     10  C   UNL A   1     -26.250   2.920  26.395  0.00  0.00    +0.059 C 
ATOM     11  C   UNL A   1     -27.438   3.091  25.645  0.00  0.00    +0.102 C 
ATOM     12  N   UNL A   1     -28.075   2.089  25.003  0.00  0.00    -0.212 NA
ATOM     13  C   UNL A   1     -27.543   0.849  25.079  0.00  0.00    +0.234 C 
ATOM     14  C   UNL A   1     -26.354   0.576  25.777  0.00  0.00    +0.244 C 
ATOM     15  F   UNL A   1     -25.860  -0.681  25.795  0.00  0.00    -0.227 F 
BRANCH  10  16
ATOM     16  C   UNL A   1     -25.642   4.093  27.123  0.00  0.00    +0.263 C 
ATOM     17  N   UNL A   1     -25.614   5.252  26.449  0.00  0.00    -0.200 NA
ATOM     18  C   UNL A   1     -25.026   6.479  26.963  0.00  0.00    +0.139 C 
ATOM     19  O   UNL A   1     -25.143   3.966  28.243  0.00  0.00    -0.269 OA
ENDBRANCH  10  16
BRANCH  13  20
ATOM     20  O   UNL A   1     -28.193  -0.208  24.477  0.00  0.00    -0.459 OA
BRANCH  20  21
ATOM     21  C   UNL A   1     -29.460   0.005  23.866  0.00  0.00    +0.242 C 
BRANCH  21  22
ATOM     22  C   UNL A   1     -30.065  -1.377  23.573  0.00  0.00    +0.229 C 
ATOM     23  O   UNL A   1     -30.729  -1.878  24.721  0.00  0.00    -0.216 OA
ENDBRANCH  21  22
ENDBRANCH  20  21
ENDBRANCH  13  20
ENDBRANCH   3   9
ENDBRANCH   2   8
BRANCH   2  24
ATOM     24  C   UNL A   1     -24.855  -1.012  30.143  0.00  0.00    +0.063 C 
BRANCH  24  25
ATOM     25  C   UNL A   1     -24.973  -2.505  29.788  0.00  0.00    -0.017 C 
ATOM     26  C   UNL A   1     -23.906  -3.173  29.146  0.00  0.00    -0.004 C 
ATOM     27  C   UNL A   1     -23.989  -4.549  28.853  0.00  0.00    -0.000 C 
ATOM     28  C   UNL A   1     -25.137  -5.280  29.205  0.00  0.00    -0.000 C 
ATOM     29  C   UNL A   1     -26.232  -4.611  29.784  0.00  0.00    -0.000 C 
ATOM     30  C   UNL A   1     -26.155  -3.232  30.065  0.00  0.00    -0.004 C 
ENDBRANCH  24  25
BRANCH  24  31
ATOM     31  C   UNL A   1     -25.387  -0.679  31.571  0.00  0.00    +0.081 C 
ATOM     32  C   UNL A   1     -25.189   0.773  32.028  0.00  0.00    +0.019 C 
ATOM     33  C   UNL A   1     -25.336   0.684  33.544  0.00  0.00    +0.020 C 
ATOM     34  C   UNL A   1     -24.829  -0.715  33.905  0.00  0.00    +0.089 C 
ATOM     35  N   UNL A   1     -24.758  -1.481  32.646  0.00  0.00    -0.219 NA
ENDBRANCH  24  31
ENDBRANCH   2  24
BRANCH   1  36
ATOM     36  C   UNL A   1     -27.773  -0.969  28.565  0.00  0.00    +0.027 C 
BRANCH  36  37
ATOM     37  C   UNL A   1     -29.011  -0.400  28.909  0.00  0.00    +0.021 C 
ATOM     38  N   UNL A   1     -31.245   0.185  28.808  0.00  0.00    -0.247 NA
ATOM     39  O   UNL A   1     -30.838  -1.964  29.648  0.00  0.00    -0.205 OA
ATOM     40  C   UNL A   1     -29.944   0.318  28.085  0.00  0.00    +0.075 C 
ATOM     41  C   UNL A   1     -31.791   1.508  28.860  0.00  0.00    +0.092 C 
ATOM     42  C   UNL A   1     -30.509   0.230  30.749  0.00  0.00    +0.050 C 
ATOM     43  C   UNL A   1     -29.209   0.100  30.321  0.00  0.00    +0.006 C 
ATOM     44  C   UNL A   1     -31.335  -0.642  29.829  0.00  0.00    +0.213 C 
ENDBRANCH  36  37
ENDBRANCH   1  36
TORSDOF 11
