MODEL 1154
MODEL 1
REMARK VINA RESULT:    -5.842      0.000      0.000
REMARK INTER + INTRA:          -8.310
REMARK INTER:                  -7.549
REMARK INTRA:                  -0.761
REMARK UNBOUND:                -0.761
REMARK  Name = No_1154-gen_results/8p0m/2024-11-27-11-27-31/
REMARK  5 active torsions:
REMARK  status: ('A' for Active; 'I' for Inactive)
REMARK    1  A    between atoms: C_2  and  C_7
REMARK    2  A    between atoms: C_7  and  C_12
REMARK    3  A    between atoms: C_8  and  C_9
REMARK    4  A    between atoms: C_10  and  C_11
REMARK    5  A    between atoms: C_11  and  N_15
REMARK                            x       y       z     vdW  Elec       q    Type
REMARK                         _______ _______ _______ _____ _____    ______ ____
ROOT
ATOM      1  C   UNL A   1     -24.127  -1.152  29.438  0.00  0.00    -0.000 C 
ATOM      2  C   UNL A   1     -24.258  -0.265  28.719  0.00  0.00    -0.000 C 
ENDROOT
BRANCH   1   4
ATOM      3  C   UNL A   1     -25.813  -2.968  29.831  0.00  0.00    -0.000 A 
ATOM      4  C   UNL A   1     -24.748  -2.547  29.443  0.00  0.00    -0.000 A 
ATOM      5  C   UNL A   1     -23.852  -3.372  28.773  0.00  0.00    -0.000 A 
ATOM      6  C   UNL A   1     -24.144  -4.766  28.560  0.00  0.00    -0.000 A 
ATOM      7  C   UNL A   1     -25.387  -5.174  29.063  0.00  0.00    +0.000 A 
ATOM      8  C   UNL A   1     -26.191  -4.358  29.704  0.00  0.00    -0.000 A 
ENDBRANCH   1   4
BRANCH   1   9
ATOM      9  C   UNL A   1     -22.985  -1.098  30.430  0.00  0.00    -0.005 C 
ATOM     10  C   UNL A   1     -23.116  -0.803  31.574  0.00  0.00    -0.026 C 
ATOM     11  C   UNL A   1     -24.434  -0.287  32.007  0.00  0.00    +0.031 C 
ENDBRANCH   1   9
BRANCH   2  12
ATOM     12  C   UNL A   1     -25.364  -0.371  27.656  0.00  0.00    -0.003 C 
ATOM     13  C   UNL A   1     -25.237  -0.324  26.435  0.00  0.00    -0.007 C 
BRANCH  13  14
ATOM     14  C   UNL A   1     -25.316   0.975  25.803  0.00  0.00    +0.115 C 
BRANCH  14  15
ATOM     15  N   UNL A   1     -24.739   2.002  25.903  0.00  0.00    -0.212 NA
ATOM     16  C   UNL A   1     -23.404   2.234  25.817  0.00  0.00    +0.108 C 
ENDBRANCH  14  15
ENDBRANCH  13  14
ENDBRANCH   2  12
TORSDOF 5
ENDMDL
ENDMDL
