MODEL 1155
MODEL 1
REMARK VINA RESULT:    -4.487      0.000      0.000
REMARK INTER + INTRA:          -4.487
REMARK INTER:                  -4.487
REMARK INTRA:                   0.000
REMARK UNBOUND:                 0.000
REMARK  Name = No_1155-gen_results/8p0m/2024-11-27-11-27-31/
REMARK  0 active torsions:
REMARK  status: ('A' for Active; 'I' for Inactive)
REMARK                            x       y       z     vdW  Elec       q    Type
REMARK                         _______ _______ _______ _____ _____    ______ ____
ROOT
ATOM      1  C   UNL A   1      -9.238  -9.222  20.051  0.00  0.00    +0.011 A 
ATOM      2  C   UNL A   1      -8.245  -9.900  19.927  0.00  0.00    +0.058 A 
ATOM      3  C   UNL A   1      -8.054 -10.697  18.803  0.00  0.00    +0.011 A 
ATOM      4  C   UNL A   1      -9.056 -10.774  17.771  0.00  0.00    +0.001 A 
ATOM      5  C   UNL A   1     -10.183  -9.976  18.006  0.00  0.00    +0.000 A 
ATOM      6  C   UNL A   1     -10.322  -9.253  19.094  0.00  0.00    +0.001 A 
ATOM      7 CL   UNL A   1      -6.977  -9.968  21.076  0.00  0.00    -0.082 Cl
ENDROOT
TORSDOF 0
ENDMDL
ENDMDL
