MODEL 1156
MODEL 1
REMARK VINA RESULT:    -6.424      0.000      0.000
REMARK INTER + INTRA:          -8.011
REMARK INTER:                  -7.551
REMARK INTRA:                  -0.460
REMARK UNBOUND:                -0.460
REMARK  Name = No_1156-gen_results/8p0m/2024-11-27-11-27-31/
REMARK  3 active torsions:
REMARK  status: ('A' for Active; 'I' for Inactive)
REMARK    1  A    between atoms: C_3  and  C_4
REMARK    2  A    between atoms: C_6  and  C_13
REMARK    3  A    between atoms: C_12  and  O_16
REMARK                            x       y       z     vdW  Elec       q    Type
REMARK                         _______ _______ _______ _____ _____    ______ ____
ROOT
ATOM      1  C   UNL A   1     -29.026 -10.389  32.798  0.00  0.00    +0.007 A 
ATOM      2  C   UNL A   1     -29.649 -10.035  31.824  0.00  0.00    +0.000 A 
ATOM      3  C   UNL A   1     -29.543 -10.716  30.616  0.00  0.00    +0.000 A 
ATOM      4  C   UNL A   1     -27.997 -11.434  32.676  0.00  0.00    +0.080 A 
ATOM      5  C   UNL A   1     -27.880 -12.200  31.542  0.00  0.00    +0.007 A 
ATOM      6  C   UNL A   1     -28.628 -11.852  30.405  0.00  0.00    +0.000 A 
ENDROOT
BRANCH   3   7
ATOM      7  C   UNL A   1     -30.248 -10.374  29.348  0.00  0.00    +0.003 A 
ATOM      8  C   UNL A   1     -31.037  -9.193  29.125  0.00  0.00    +0.000 A 
ATOM      9  C   UNL A   1     -31.569  -8.972  27.873  0.00  0.00    +0.003 A 
ATOM     10  C   UNL A   1     -31.299  -9.642  26.725  0.00  0.00    +0.037 A 
ATOM     11  C   UNL A   1     -29.956 -11.111  28.128  0.00  0.00    +0.037 A 
ATOM     12  C   UNL A   1     -30.494 -10.738  26.884  0.00  0.00    +0.139 A 
BRANCH  12  13
ATOM     13  O   UNL A   1     -30.163 -11.510  25.820  0.00  0.00    -0.471 OA
ATOM     14  C   UNL A   1     -29.807 -12.839  26.119  0.00  0.00    +0.253 C 
ENDBRANCH  12  13
ENDBRANCH   3   7
BRANCH   4  15
ATOM     15  C   UNL A   1     -27.149 -11.663  33.872  0.00  0.00    +0.388 C 
ATOM     16  O   UNL A   1     -26.786 -12.769  34.096  0.00  0.00    -0.241 OA
ATOM     17  O   UNL A   1     -26.938 -10.646  34.630  0.00  0.00    -0.241 OA
ENDBRANCH   4  15
TORSDOF 3
ENDMDL
ENDMDL
