MODEL 1157
MODEL 1
REMARK VINA RESULT:    -5.446      0.000      0.000
REMARK INTER + INTRA:          -6.580
REMARK INTER:                  -6.401
REMARK INTRA:                  -0.178
REMARK UNBOUND:                -0.178
REMARK  Name = No_1157-gen_results/8p0m/2024-11-27-11-27-31/
REMARK  3 active torsions:
REMARK  status: ('A' for Active; 'I' for Inactive)
REMARK    1  A    between atoms: C_3  and  C_7
REMARK    2  A    between atoms: C_7  and  C_9
REMARK    3  A    between atoms: C_9  and  C_11
REMARK                            x       y       z     vdW  Elec       q    Type
REMARK                         _______ _______ _______ _____ _____    ______ ____
ROOT
ATOM      1  C   UNL A   1     -23.753  -0.840  29.523  0.00  0.00    +0.059 C 
ATOM      2  N   UNL A   1     -23.260  -0.259  30.314  0.00  0.00    -0.272 NA
ATOM      3  C   UNL A   1     -23.153  -1.089  31.610  0.00  0.00    +0.151 C 
ENDROOT
BRANCH   1   6
ATOM      4  C   UNL A   1     -24.226  -4.354  28.741  0.00  0.00    +0.000 A 
ATOM      5  C   UNL A   1     -23.774  -3.243  28.894  0.00  0.00    +0.001 A 
ATOM      6  C   UNL A   1     -24.356  -2.211  29.435  0.00  0.00    +0.013 A 
ATOM      7  C   UNL A   1     -25.696  -2.366  29.905  0.00  0.00    +0.001 A 
ATOM      8  C   UNL A   1     -26.206  -3.618  29.825  0.00  0.00    +0.000 A 
ATOM      9  C   UNL A   1     -25.491  -4.654  29.281  0.00  0.00    +0.000 A 
ENDBRANCH   1   6
BRANCH   1  10
ATOM     10  C   UNL A   1     -23.878  -0.015  28.254  0.00  0.00    +0.083 C 
ATOM     11  C   UNL A   1     -24.683  -0.119  27.219  0.00  0.00    +0.013 C 
BRANCH  10  12
ATOM     12  C   UNL A   1     -22.759   0.980  28.200  0.00  0.00    +0.101 C 
ATOM     13  N   UNL A   1     -22.893   2.184  27.861  0.00  0.00    -0.151 NA
ENDBRANCH  10  12
ENDBRANCH   1  10
TORSDOF 3
ENDMDL
ENDMDL
