REMARK  Name = outputs/IAG933/test6/raw/output_1157_IAG933_linker_design_.xyz
REMARK  16 active torsions:
REMARK  status: ('A' for Active; 'I' for Inactive)
REMARK    1  A    between atoms: C_1  and  C_2
REMARK    2  A    between atoms: C_1  and  C_8
REMARK    3  A    between atoms: C_1  and  C_30
REMARK    4  A    between atoms: C_13  and  C_38
REMARK    5  A    between atoms: C_14  and  C_15
REMARK    6  A    between atoms: C_21  and  O_22
REMARK    7  A    between atoms: O_22  and  C_23
REMARK    8  A    between atoms: C_23  and  C_24
REMARK    9  A    between atoms: C_28  and  C_36
REMARK   10  A    between atoms: C_28  and  C_42
REMARK   11  A    between atoms: C_30  and  N_31
REMARK   12  A    between atoms: C_30  and  C_36
REMARK   13  A    between atoms: N_31  and  C_38
REMARK   14  A    between atoms: C_32  and  C_37
REMARK   15  A    between atoms: C_32  and  C_38
REMARK   16  A    between atoms: O_33  and  C_40
REMARK                            x       y       z     vdW  Elec       q    Type
REMARK                         _______ _______ _______ _____ _____    ______ ____
ROOT
ATOM      1  C   UNL A   1     -24.587   1.299  27.416  0.00  0.00    +0.132 C 
ENDROOT
BRANCH   1   2
ATOM      2  C   UNL A   1     -25.688   1.614  26.461  0.00  0.00    +0.036 C 
ATOM      3  C   UNL A   1     -26.250   2.920  26.395  0.00  0.00    +0.074 C 
ATOM      4  C   UNL A   1     -27.438   3.091  25.645  0.00  0.00    +0.106 C 
ATOM      5  N   UNL A   1     -28.075   2.089  25.003  0.00  0.00    -0.208 NA
ATOM      6  C   UNL A   1     -27.543   0.849  25.079  0.00  0.00    +0.253 C 
ATOM      7  C   UNL A   1     -26.354   0.576  25.777  0.00  0.00    +0.191 C 
ATOM      8  F   UNL A   1     -25.860  -0.681  25.795  0.00  0.00    -0.200 F 
BRANCH   3   9
ATOM      9  C   UNL A   1     -25.642   4.093  27.123  0.00  0.00    +0.266 C 
ATOM     10  N   UNL A   1     -25.614   5.252  26.449  0.00  0.00    -0.200 NA
ATOM     11  C   UNL A   1     -25.026   6.479  26.963  0.00  0.00    +0.139 C 
ATOM     12  O   UNL A   1     -25.143   3.966  28.243  0.00  0.00    -0.268 OA
ENDBRANCH   3   9
BRANCH   6  13
ATOM     13  O   UNL A   1     -28.193  -0.208  24.477  0.00  0.00    -0.456 OA
BRANCH  13  14
ATOM     14  C   UNL A   1     -29.460   0.005  23.866  0.00  0.00    +0.243 C 
BRANCH  14  15
ATOM     15  C   UNL A   1     -30.065  -1.377  23.573  0.00  0.00    +0.229 C 
ATOM     16  O   UNL A   1     -30.729  -1.878  24.721  0.00  0.00    -0.216 OA
ENDBRANCH  14  15
ENDBRANCH  13  14
ENDBRANCH   6  13
ENDBRANCH   1   2
BRANCH   1  17
ATOM     17  C   UNL A   1     -23.148   1.222  27.783  0.00  0.00    +0.107 C 
ATOM     18  C   UNL A   1     -22.040   1.421  26.997  0.00  0.00    +0.231 C 
BRANCH  17  19
ATOM     19  C   UNL A   1     -22.857   0.691  28.957  0.00  0.00    +0.101 C 
ATOM     20  N   UNL A   1     -22.595   0.157  29.898  0.00  0.00    -0.191 NA
ENDBRANCH  17  19
BRANCH  18  21
ATOM     21  O   UNL A   1     -21.805   1.722  25.770  0.00  0.00    -0.299 OA
ATOM     22  O   UNL A   1     -22.925   2.462  25.285  0.00  0.00    +0.029 OA
ENDBRANCH  18  21
ENDBRANCH   1  17
BRANCH   1  23
ATOM     23  N   UNL A   1     -25.049   0.485  28.242  0.00  0.00    -0.211 NA
BRANCH  23  24
ATOM     24  C   UNL A   1     -25.811  -0.199  29.208  0.00  0.00    +0.079 C 
BRANCH  24  25
ATOM     25  C   UNL A   1     -24.855  -1.012  30.143  0.00  0.00    +0.054 C 
BRANCH  25  26
ATOM     26  C   UNL A   1     -24.973  -2.505  29.788  0.00  0.00    -0.020 C 
ATOM     27  C   UNL A   1     -23.906  -3.173  29.146  0.00  0.00    -0.004 C 
ATOM     28  C   UNL A   1     -23.989  -4.549  28.853  0.00  0.00    -0.000 C 
ATOM     29  C   UNL A   1     -25.137  -5.280  29.205  0.00  0.00    -0.000 C 
ATOM     30  C   UNL A   1     -26.232  -4.611  29.784  0.00  0.00    -0.000 C 
ATOM     31  C   UNL A   1     -26.155  -3.232  30.065  0.00  0.00    -0.004 C 
ENDBRANCH  25  26
BRANCH  25  32
ATOM     32  C   UNL A   1     -25.387  -0.679  31.571  0.00  0.00    +0.078 C 
ATOM     33  C   UNL A   1     -25.189   0.773  32.028  0.00  0.00    +0.019 C 
ATOM     34  C   UNL A   1     -25.336   0.684  33.544  0.00  0.00    +0.020 C 
ATOM     35  C   UNL A   1     -24.829  -0.715  33.905  0.00  0.00    +0.089 C 
ATOM     36  N   UNL A   1     -24.758  -1.481  32.646  0.00  0.00    -0.219 NA
ENDBRANCH  25  32
ENDBRANCH  24  25
BRANCH  24  37
ATOM     37  C   UNL A   1     -27.282  -0.718  28.830  0.00  0.00    +0.018 C 
BRANCH  37  38
ATOM     38  C   UNL A   1     -28.477  -0.782  29.662  0.00  0.00    +0.001 C 
BRANCH  38  42
ATOM     39  C   UNL A   1     -30.498  -1.839  29.664  0.00  0.00    +0.000 C 
ATOM     40  C   UNL A   1     -29.762  -0.426  27.629  0.00  0.00    +0.000 C 
ATOM     41  C   UNL A   1     -30.252   0.735  29.780  0.00  0.00    +0.000 C 
ATOM     42  C   UNL A   1     -29.712  -0.578  29.151  0.00  0.00    +0.000 C 
ENDBRANCH  38  42
ENDBRANCH  37  38
ENDBRANCH  24  37
ENDBRANCH  23  24
ENDBRANCH   1  23
TORSDOF 16
