MODEL 1158
MODEL 1
REMARK VINA RESULT:    -6.908      0.000      0.000
REMARK INTER + INTRA:          -6.908
REMARK INTER:                  -6.908
REMARK INTRA:                   0.000
REMARK UNBOUND:                 0.000
REMARK  Name = No_1158-gen_results/8p0m/2024-11-27-11-27-31/
REMARK  0 active torsions:
REMARK  status: ('A' for Active; 'I' for Inactive)
REMARK                            x       y       z     vdW  Elec       q    Type
REMARK                         _______ _______ _______ _____ _____    ______ ____
ROOT
ATOM      1  O   UNL A   1     -22.944   1.693  27.116  0.00  0.00    -0.270 OA
ATOM      2  C   UNL A   1     -23.605   0.778  27.353  0.00  0.00    +0.252 C 
ATOM      3  C   UNL A   1     -24.836   0.604  26.754  0.00  0.00    +0.050 A 
ATOM      4  N   UNL A   1     -23.287  -0.204  28.406  0.00  0.00    -0.254 N 
ATOM      5  C   UNL A   1     -25.921   0.968  27.441  0.00  0.00    -0.018 A 
ATOM      6  C   UNL A   1     -24.946   0.044  25.435  0.00  0.00    +0.004 A 
ATOM      7  C   UNL A   1     -26.043   1.536  28.716  0.00  0.00    +0.031 C 
ATOM      8  C   UNL A   1     -24.004  -1.321  28.775  0.00  0.00    +0.050 A 
ATOM      9  C   UNL A   1     -23.502  -2.354  28.898  0.00  0.00    +0.015 A 
ATOM     10  C   UNL A   1     -24.240  -3.536  29.281  0.00  0.00    +0.001 A 
ATOM     11  C   UNL A   1     -25.643  -3.410  29.519  0.00  0.00    -0.000 A 
ATOM     12  C   UNL A   1     -26.202  -2.140  29.396  0.00  0.00    -0.003 A 
ATOM     13  C   UNL A   1     -25.407  -1.067  29.041  0.00  0.00    -0.009 A 
ATOM     14  C   UNL A   1     -26.114   0.235  29.640  0.00  0.00    +0.024 C 
ATOM     15  C   UNL A   1     -26.133   0.034  24.751  0.00  0.00    +0.000 A 
ATOM     16  C   UNL A   1     -27.333   0.421  25.473  0.00  0.00    -0.000 A 
ATOM     17  C   UNL A   1     -27.235   0.823  26.715  0.00  0.00    -0.004 A 
ATOM     18  C   UNL A   1     -21.920  -0.054  28.944  0.00  0.00    +0.120 C 
ATOM     19  C   UNL A   1     -25.769   0.501  31.111  0.00  0.00    +0.005 C 
ATOM     20  C   UNL A   1     -27.694  -0.106  29.722  0.00  0.00    +0.005 C 
ENDROOT
TORSDOF 0
ENDMDL
ENDMDL
