MODEL 1159
MODEL 1
REMARK VINA RESULT:    -4.901      0.000      0.000
REMARK INTER + INTRA:          -5.708
REMARK INTER:                  -5.474
REMARK INTRA:                  -0.234
REMARK UNBOUND:                -0.234
REMARK  Name = No_1159-gen_results/8p0m/2024-11-27-11-27-31/
REMARK  2 active torsions:
REMARK  status: ('A' for Active; 'I' for Inactive)
REMARK    1  A    between atoms: C_2  and  C_7
REMARK    2  A    between atoms: C_7  and  C_8
REMARK                            x       y       z     vdW  Elec       q    Type
REMARK                         _______ _______ _______ _____ _____    ______ ____
ROOT
ATOM      1  C   UNL A   1     -25.784  -2.808  29.586  0.00  0.00    -0.004 A 
ATOM      2  C   UNL A   1     -24.728  -2.663  29.013  0.00  0.00    -0.018 A 
ATOM      3  C   UNL A   1     -23.956  -3.690  28.576  0.00  0.00    -0.004 A 
ATOM      4  C   UNL A   1     -24.404  -5.006  28.799  0.00  0.00    -0.000 A 
ATOM      5  C   UNL A   1     -26.349  -4.121  29.762  0.00  0.00    -0.000 A 
ATOM      6  C   UNL A   1     -25.599  -5.188  29.367  0.00  0.00    -0.000 A 
ENDROOT
BRANCH   2   7
ATOM      7  C   UNL A   1     -24.147  -1.293  28.708  0.00  0.00    +0.052 C 
BRANCH   7   8
ATOM      8  C   UNL A   1     -22.767  -1.067  29.092  0.00  0.00    -0.021 C 
ATOM      9  C   UNL A   1     -22.563  -0.485  30.349  0.00  0.00    -0.005 C 
ENDBRANCH   7   8
ENDBRANCH   2   7
TORSDOF 2
ENDMDL
ENDMDL
