REMARK  Name = outputs/IAG933/test6/raw/output_1159_IAG933_linker_design_.xyz
REMARK  11 active torsions:
REMARK  status: ('A' for Active; 'I' for Inactive)
REMARK    1  A    between atoms: C_1  and  C_2
REMARK    2  A    between atoms: C_1  and  C_8
REMARK    3  A    between atoms: C_1  and  C_29
REMARK    4  A    between atoms: C_21  and  O_22
REMARK    5  A    between atoms: O_22  and  C_23
REMARK    6  A    between atoms: C_23  and  C_24
REMARK    7  A    between atoms: C_28  and  C_43
REMARK    8  A    between atoms: C_29  and  C_32
REMARK    9  A    between atoms: N_30  and  C_33
REMARK   10  A    between atoms: C_35  and  N_42
REMARK   11  A    between atoms: C_43  and  N_44
REMARK                            x       y       z     vdW  Elec       q    Type
REMARK                         _______ _______ _______ _____ _____    ______ ____
ROOT
ATOM      1  C   UNL A   1     -25.688   1.614  26.461  0.00  0.00    +0.086 C 
ATOM      2  C   UNL A   1     -26.250   2.920  26.395  0.00  0.00    +0.054 C 
ATOM      3  C   UNL A   1     -25.642   4.093  27.123  0.00  0.00    +0.226 C 
ATOM      4  N   UNL A   1     -25.614   5.252  26.449  0.00  0.00    -0.235 NA
ATOM      5  C   UNL A   1     -25.026   6.479  26.963  0.00  0.00    +0.155 C 
ATOM      6  O   UNL A   1     -25.143   3.966  28.243  0.00  0.00    -0.407 OA
ATOM      7  C   UNL A   1     -27.438   3.091  25.645  0.00  0.00    +0.102 C 
ATOM      8  N   UNL A   1     -28.075   2.089  25.003  0.00  0.00    -0.212 NA
ATOM      9  C   UNL A   1     -27.543   0.849  25.079  0.00  0.00    +0.234 C 
ATOM     10  C   UNL A   1     -26.354   0.576  25.777  0.00  0.00    +0.241 C 
ATOM     11  F   UNL A   1     -25.860  -0.681  25.795  0.00  0.00    -0.227 F 
ATOM     12  C   UNL A   1     -24.145   1.492  26.629  0.00  0.00    +0.083 C 
ATOM     13  C   UNL A   1     -25.246   1.167  28.650  0.00  0.00    +0.226 C 
ATOM     14  C   UNL A   1     -25.635   3.410  29.233  0.00  0.00    +0.307 C 
ATOM     15  N   UNL A   1     -25.733   4.290  30.241  0.00  0.00    -0.187 NA
ATOM     16  N   UNL A   1     -23.958   1.360  27.993  0.00  0.00    -0.234 NA
ATOM     17  N   UNL A   1     -25.997   2.180  29.126  0.00  0.00    -0.200 NA
ENDROOT
BRANCH  15  19
ATOM     18  C   UNL A   1     -26.736   4.316  32.794  0.00  0.00    +0.145 C 
ATOM     19  C   UNL A   1     -25.564   4.574  31.647  0.00  0.00    +0.133 C 
ATOM     20  C   UNL A   1     -24.544   5.144  32.418  0.00  0.00    +0.096 C 
ATOM     21  N   UNL A   1     -25.036   5.413  33.710  0.00  0.00    -0.269 NA
ATOM     22  C   UNL A   1     -26.373   5.049  33.789  0.00  0.00    +0.095 C 
ATOM     23  C   UNL A   1     -24.221   6.126  34.815  0.00  0.00    +0.090 C 
BRANCH  18  24
ATOM     24  N   UNL A   1     -27.589   3.475  32.224  0.00  0.00    -0.035 NA
ATOM     25  F   UNL A   1     -28.162   3.665  33.311  0.00  0.00    -0.113 F 
ENDBRANCH  18  24
ENDBRANCH  15  19
BRANCH  13  26
ATOM     26  C   UNL A   1     -25.686  -0.145  29.290  0.00  0.00    +0.193 C 
ATOM     27  O   UNL A   1     -26.893  -0.425  29.159  0.00  0.00    -0.292 OA
BRANCH  26  28
ATOM     28  C   UNL A   1     -24.855  -1.012  30.143  0.00  0.00    +0.099 C 
BRANCH  28  29
ATOM     29  C   UNL A   1     -24.973  -2.505  29.788  0.00  0.00    -0.014 C 
ATOM     30  C   UNL A   1     -23.906  -3.173  29.146  0.00  0.00    -0.004 C 
ATOM     31  C   UNL A   1     -23.989  -4.549  28.853  0.00  0.00    -0.000 C 
ATOM     32  C   UNL A   1     -25.137  -5.280  29.205  0.00  0.00    -0.000 C 
ATOM     33  C   UNL A   1     -26.232  -4.611  29.784  0.00  0.00    -0.000 C 
ATOM     34  C   UNL A   1     -26.155  -3.232  30.065  0.00  0.00    -0.004 C 
ENDBRANCH  28  29
BRANCH  28  35
ATOM     35  C   UNL A   1     -25.387  -0.679  31.571  0.00  0.00    +0.084 C 
ATOM     36  C   UNL A   1     -25.189   0.773  32.028  0.00  0.00    +0.020 C 
ATOM     37  C   UNL A   1     -25.336   0.684  33.544  0.00  0.00    +0.020 C 
ATOM     38  C   UNL A   1     -24.829  -0.715  33.905  0.00  0.00    +0.089 C 
ATOM     39  N   UNL A   1     -24.758  -1.481  32.646  0.00  0.00    -0.219 NA
ENDBRANCH  28  35
ENDBRANCH  26  28
ENDBRANCH  13  26
BRANCH  16  40
ATOM     40  C   UNL A   1     -22.767   0.895  28.412  0.00  0.00    +0.153 C 
ATOM     41  N   UNL A   1     -22.426   0.204  29.514  0.00  0.00    -0.115 NA
BRANCH  40  42
ATOM     42  C   UNL A   1     -21.522   1.077  27.525  0.00  0.00    +0.036 C 
ATOM     43  C   UNL A   1     -21.307   2.533  27.176  0.00  0.00    +0.003 C 
ENDBRANCH  40  42
ENDBRANCH  16  40
BRANCH   9  44
ATOM     44  O   UNL A   1     -28.193  -0.208  24.477  0.00  0.00    -0.459 OA
BRANCH  44  45
ATOM     45  C   UNL A   1     -29.460   0.005  23.866  0.00  0.00    +0.242 C 
BRANCH  45  46
ATOM     46  C   UNL A   1     -30.065  -1.377  23.573  0.00  0.00    +0.229 C 
ATOM     47  O   UNL A   1     -30.729  -1.878  24.721  0.00  0.00    -0.216 OA
ENDBRANCH  45  46
ENDBRANCH  44  45
ENDBRANCH   9  44
TORSDOF 11
