MODEL 115
MODEL 1
REMARK VINA RESULT:    -6.504      0.000      0.000
REMARK INTER + INTRA:          -7.086
REMARK INTER:                  -6.884
REMARK INTRA:                  -0.203
REMARK UNBOUND:                -0.203
REMARK  Name = No_115-gen_results/8p0m/2024-11-27-11-27-31/
REMARK  1 active torsions:
REMARK  status: ('A' for Active; 'I' for Inactive)
REMARK    1  A    between atoms: C_9  and  C_11
REMARK                            x       y       z     vdW  Elec       q    Type
REMARK                         _______ _______ _______ _____ _____    ______ ____
ROOT
ATOM      1  C   UNL A   1     -26.570  -3.552  30.021  0.00  0.00    -0.000 A 
ATOM      2  C   UNL A   1     -26.440  -4.544  29.689  0.00  0.00    -0.000 A 
ATOM      3  C   UNL A   1     -25.470  -2.673  29.919  0.00  0.00    -0.000 A 
ATOM      4  C   UNL A   1     -25.517  -1.222  30.239  0.00  0.00    -0.000 A 
ATOM      5  C   UNL A   1     -25.268  -5.232  29.119  0.00  0.00    -0.000 A 
ATOM      6  C   UNL A   1     -24.139  -4.423  28.990  0.00  0.00    -0.000 A 
ATOM      7  C   UNL A   1     -24.220  -3.114  29.340  0.00  0.00    -0.000 A 
ATOM      8  C   UNL A   1     -24.943  -0.302  29.912  0.00  0.00    +0.004 A 
ATOM      9  C   UNL A   1     -23.696  -0.654  29.081  0.00  0.00    +0.071 A 
ATOM     10  C   UNL A   1     -23.371  -2.008  28.834  0.00  0.00    +0.004 A 
ENDROOT
BRANCH   9  11
ATOM     11  C   UNL A   1     -22.743   0.464  28.706  0.00  0.00    +0.419 C 
ATOM     12  F   UNL A   1     -22.600   0.719  27.491  0.00  0.00    -0.166 F 
ATOM     13  F   UNL A   1     -21.421  -0.063  29.014  0.00  0.00    -0.166 F 
ATOM     14  F   UNL A   1     -22.890   1.549  29.392  0.00  0.00    -0.166 F 
ENDBRANCH   9  11
TORSDOF 1
ENDMDL
ENDMDL
