MODEL 1160
MODEL 1
REMARK VINA RESULT:    -5.286      0.000      0.000
REMARK INTER + INTRA:          -6.169
REMARK INTER:                  -5.904
REMARK INTRA:                  -0.265
REMARK UNBOUND:                -0.265
REMARK  Name = No_1160-gen_results/8p0m/2024-11-27-11-27-31/
REMARK  2 active torsions:
REMARK  status: ('A' for Active; 'I' for Inactive)
REMARK    1  A    between atoms: C_3  and  C_7
REMARK    2  A    between atoms: C_8  and  C_10
REMARK                            x       y       z     vdW  Elec       q    Type
REMARK                         _______ _______ _______ _____ _____    ______ ____
ROOT
ATOM      1  C   UNL A   1     -26.333  -4.139  29.812  0.00  0.00    -0.000 A 
ATOM      2  C   UNL A   1     -25.980  -2.987  29.700  0.00  0.00    -0.000 A 
ATOM      3  C   UNL A   1     -24.797  -2.601  29.071  0.00  0.00    -0.001 A 
ATOM      4  C   UNL A   1     -23.899  -3.622  28.568  0.00  0.00    -0.000 A 
ATOM      5  C   UNL A   1     -24.335  -4.936  28.736  0.00  0.00    -0.000 A 
ATOM      6  C   UNL A   1     -25.466  -5.213  29.355  0.00  0.00    -0.000 A 
ENDROOT
BRANCH   3   7
ATOM      7  C   UNL A   1     -24.291  -1.203  28.886  0.00  0.00    -0.007 C 
ATOM      8  C   UNL A   1     -23.667  -0.570  29.839  0.00  0.00    -0.025 C 
ATOM      9  C   UNL A   1     -23.277  -1.084  31.073  0.00  0.00    +0.028 C 
BRANCH   8  10
ATOM     10  C   UNL A   1     -23.303   0.880  29.560  0.00  0.00    +0.131 C 
ATOM     11  N   UNL A   1     -23.544   1.791  30.498  0.00  0.00    -0.127 NA
ENDBRANCH   8  10
ENDBRANCH   3   7
TORSDOF 2
ENDMDL
ENDMDL
