MODEL 1161
MODEL 1
REMARK VINA RESULT:    -6.031      0.000      0.000
REMARK INTER + INTRA:          -8.151
REMARK INTER:                  -7.441
REMARK INTRA:                  -0.710
REMARK UNBOUND:                -0.710
REMARK  Name = No_1161-gen_results/8p0m/2024-11-27-11-27-31/
REMARK  4 active torsions:
REMARK  status: ('A' for Active; 'I' for Inactive)
REMARK    1  A    between atoms: C_3  and  C_4
REMARK    2  A    between atoms: C_4  and  C_5
REMARK    3  A    between atoms: C_4  and  C_9
REMARK    4  A    between atoms: C_5  and  C_11
REMARK                            x       y       z     vdW  Elec       q    Type
REMARK                         _______ _______ _______ _____ _____    ______ ____
ROOT
ATOM      1  C   UNL A   1     -23.647  -0.726  29.122  0.00  0.00    +0.049 C 
ENDROOT
BRANCH   1   4
ATOM      2  C   UNL A   1     -22.347   1.199  28.108  0.00  0.00    -0.004 A 
ATOM      3  C   UNL A   1     -22.196   1.788  27.248  0.00  0.00    -0.000 A 
ATOM      4  C   UNL A   1     -23.459   0.292  28.068  0.00  0.00    -0.018 A 
ATOM      5  C   UNL A   1     -23.095   2.057  26.134  0.00  0.00    -0.000 A 
ATOM      6  C   UNL A   1     -24.179   1.256  26.095  0.00  0.00    -0.000 A 
ATOM      7  C   UNL A   1     -24.391   0.293  27.075  0.00  0.00    -0.004 A 
ENDBRANCH   1   4
BRANCH   1   8
ATOM      8  C   UNL A   1     -24.051  -0.357  30.460  0.00  0.00    -0.022 C 
ATOM      9  C   UNL A   1     -23.218  -0.478  31.531  0.00  0.00    -0.005 C 
ENDBRANCH   1   8
BRANCH   1  10
ATOM     10  C   UNL A   1     -23.294  -2.017  28.961  0.00  0.00    +0.034 C 
BRANCH  10  11
ATOM     11  C   UNL A   1     -24.314  -3.024  29.039  0.00  0.00    -0.030 C 
ATOM     12  C   UNL A   1     -24.162  -4.009  28.715  0.00  0.00    -0.030 C 
ATOM     13  C   UNL A   1     -24.937  -5.323  29.027  0.00  0.00    +0.030 C 
ENDBRANCH  10  11
ENDBRANCH   1  10
TORSDOF 4
ENDMDL
ENDMDL
