MODEL 1162
MODEL 1
REMARK VINA RESULT:    -7.900      0.000      0.000
REMARK INTER + INTRA:         -13.330
REMARK INTER:                 -12.057
REMARK INTRA:                  -1.273
REMARK UNBOUND:                -1.273
REMARK  Name = No_1162-gen_results/8p0m/2024-11-27-11-27-31/
REMARK  9 active torsions:
REMARK  status: ('A' for Active; 'I' for Inactive)
REMARK    1  A    between atoms: C_1  and  O_19
REMARK    2  A    between atoms: C_3  and  C_8
REMARK    3  A    between atoms: C_6  and  O_7
REMARK    4  A    between atoms: O_7  and  C_14
REMARK    5  A    between atoms: C_14  and  C_15
REMARK    6  A    between atoms: C_15  and  C_16
REMARK    7  A    between atoms: O_19  and  C_20
REMARK    8  A    between atoms: C_25  and  C_26
REMARK    9  A    between atoms: N_28  and  C_29
REMARK                            x       y       z     vdW  Elec       q    Type
REMARK                         _______ _______ _______ _____ _____    ______ ____
ROOT
ATOM      1  C   UNL A   1      -9.576   0.606  35.472  0.00  0.00    +0.179 A 
ATOM      2  C   UNL A   1      -9.653  -0.185  36.383  0.00  0.00    +0.041 A 
ATOM      3  C   UNL A   1     -10.513   0.033  37.454  0.00  0.00    +0.003 A 
ATOM      4  C   UNL A   1     -11.306   1.232  37.534  0.00  0.00    +0.003 A 
ATOM      5  C   UNL A   1     -11.138   2.104  36.451  0.00  0.00    +0.040 A 
ATOM      6  C   UNL A   1     -10.299   1.859  35.471  0.00  0.00    +0.173 A 
ENDROOT
BRANCH   3   7
ATOM      7  C   UNL A   1     -10.705  -0.881  38.640  0.00  0.00    +0.000 A 
ATOM      8  C   UNL A   1     -11.804  -1.606  38.753  0.00  0.00    +0.000 A 
ATOM      9  C   UNL A   1     -12.015  -2.420  39.926  0.00  0.00    +0.000 A 
ATOM     10  C   UNL A   1     -11.131  -2.380  41.019  0.00  0.00    +0.000 A 
ATOM     11  C   UNL A   1      -9.820  -0.818  39.760  0.00  0.00    +0.000 A 
ATOM     12  C   UNL A   1     -10.051  -1.618  40.927  0.00  0.00    +0.000 A 
ENDBRANCH   3   7
BRANCH   6  13
ATOM     13  O   UNL A   1     -10.167   2.777  34.474  0.00  0.00    -0.469 OA
BRANCH  13  14
ATOM     14  C   UNL A   1      -9.405   3.896  34.614  0.00  0.00    +0.246 C 
BRANCH  14  15
ATOM     15  C   UNL A   1      -8.466   4.128  33.542  0.00  0.00    +0.259 C 
ATOM     16  O   UNL A   1      -8.773   3.113  32.537  0.00  0.00    -0.211 OA
BRANCH  15  17
ATOM     17  C   UNL A   1      -8.507   5.317  33.056  0.00  0.00    +0.244 C 
ATOM     18  O   UNL A   1      -9.496   5.698  32.427  0.00  0.00    -0.285 OA
ENDBRANCH  15  17
ENDBRANCH  14  15
ENDBRANCH  13  14
ENDBRANCH   6  13
BRANCH   1  19
ATOM     19  O   UNL A   1      -8.740   0.442  34.432  0.00  0.00    -0.450 OA
BRANCH  19  20
ATOM     20  C   UNL A   1      -7.471  -0.041  34.581  0.00  0.00    +0.145 A 
ATOM     21  C   UNL A   1      -6.534   0.702  35.051  0.00  0.00    +0.038 A 
ATOM     22  C   UNL A   1      -5.212   0.282  35.013  0.00  0.00    +0.008 A 
ATOM     23  C   UNL A   1      -7.277  -1.436  34.311  0.00  0.00    +0.038 A 
ATOM     24  C   UNL A   1      -6.002  -1.937  34.350  0.00  0.00    +0.008 A 
ATOM     25  C   UNL A   1      -4.941  -1.098  34.770  0.00  0.00    +0.056 A 
BRANCH  25  26
ATOM     26  C   UNL A   1      -3.575  -1.657  34.837  0.00  0.00    +0.269 C 
ATOM     27  O   UNL A   1      -3.210  -2.440  35.638  0.00  0.00    -0.268 OA
ATOM     28  N   UNL A   1      -2.830  -1.438  33.705  0.00  0.00    -0.175 NA
BRANCH  28  29
ATOM     29  C   UNL A   1      -1.505  -1.957  33.627  0.00  0.00    +0.074 A 
ATOM     30  C   UNL A   1      -1.298  -2.812  32.700  0.00  0.00    +0.016 A 
ATOM     31  C   UNL A   1      -0.011  -3.432  32.524  0.00  0.00    -0.003 A 
ATOM     32  C   UNL A   1       1.033  -3.065  33.453  0.00  0.00    -0.022 A 
ATOM     33  C   UNL A   1       0.707  -2.143  34.433  0.00  0.00    -0.003 A 
ATOM     34  C   UNL A   1      -0.521  -1.580  34.548  0.00  0.00    +0.016 A 
ATOM     35  C   UNL A   1       2.324  -3.692  33.287  0.00  0.00    +0.031 C 
ENDBRANCH  28  29
ENDBRANCH  25  26
ENDBRANCH  19  20
ENDBRANCH   1  19
TORSDOF 9
ENDMDL
ENDMDL
