REMARK  Name = outputs/IAG933/test6/raw/output_1162_IAG933_linker_design_.xyz
REMARK  13 active torsions:
REMARK  status: ('A' for Active; 'I' for Inactive)
REMARK    1  A    between atoms: C_1  and  C_2
REMARK    2  A    between atoms: C_1  and  C_8
REMARK    3  A    between atoms: C_1  and  C_39
REMARK    4  A    between atoms: C_13  and  C_28
REMARK    5  A    between atoms: C_14  and  C_15
REMARK    6  A    between atoms: C_21  and  O_22
REMARK    7  A    between atoms: O_22  and  C_23
REMARK    8  A    between atoms: C_23  and  C_24
REMARK    9  A    between atoms: C_28  and  C_32
REMARK   10  A    between atoms: C_28  and  C_36
REMARK   11  A    between atoms: C_32  and  C_39
REMARK   12  A    between atoms: C_32  and  N_41
REMARK   13  A    between atoms: O_35  and  C_36
REMARK                            x       y       z     vdW  Elec       q    Type
REMARK                         _______ _______ _______ _____ _____    ______ ____
ROOT
ATOM      1  C   UNL A   1     -25.412   1.285  29.028  0.00  0.00    +0.119 C 
ENDROOT
BRANCH   1   7
ATOM      2  C   UNL A   1     -25.988   3.233  30.685  0.00  0.00    +0.072 C 
ATOM      3  C   UNL A   1     -27.305   4.089  31.053  0.00  0.00    +0.017 C 
ATOM      4  C   UNL A   1     -27.852   2.044  29.568  0.00  0.00    +0.072 C 
ATOM      5  C   UNL A   1     -28.424   3.418  31.656  0.00  0.00    +0.003 C 
ATOM      6  C   UNL A   1     -28.637   2.115  30.901  0.00  0.00    +0.017 C 
ATOM      7  N   UNL A   1     -26.413   2.214  29.719  0.00  0.00    -0.268 NA
ENDBRANCH   1   7
BRANCH   1   9
ATOM      8  O   UNL A   1     -26.811  -0.664  28.851  0.00  0.00    -0.294 OA
ATOM      9  C   UNL A   1     -25.800  -0.168  29.236  0.00  0.00    +0.170 C 
BRANCH   9  10
ATOM     10  C   UNL A   1     -24.855  -1.012  30.143  0.00  0.00    +0.097 C 
BRANCH  10  11
ATOM     11  C   UNL A   1     -24.973  -2.505  29.788  0.00  0.00    -0.014 C 
ATOM     12  C   UNL A   1     -23.906  -3.173  29.146  0.00  0.00    -0.004 C 
ATOM     13  C   UNL A   1     -23.989  -4.549  28.853  0.00  0.00    -0.000 C 
ATOM     14  C   UNL A   1     -25.137  -5.280  29.205  0.00  0.00    -0.000 C 
ATOM     15  C   UNL A   1     -26.232  -4.611  29.784  0.00  0.00    -0.000 C 
ATOM     16  C   UNL A   1     -26.155  -3.232  30.065  0.00  0.00    -0.004 C 
ENDBRANCH  10  11
BRANCH  10  17
ATOM     17  C   UNL A   1     -25.387  -0.679  31.571  0.00  0.00    +0.084 C 
ATOM     18  C   UNL A   1     -25.189   0.773  32.028  0.00  0.00    +0.020 C 
ATOM     19  C   UNL A   1     -25.336   0.684  33.544  0.00  0.00    +0.020 C 
ATOM     20  C   UNL A   1     -24.829  -0.715  33.905  0.00  0.00    +0.089 C 
ATOM     21  N   UNL A   1     -24.758  -1.481  32.646  0.00  0.00    -0.219 NA
ENDBRANCH  10  17
ENDBRANCH   9  10
ENDBRANCH   1   9
BRANCH   1  22
ATOM     22  C   UNL A   1     -24.801   1.310  27.532  0.00  0.00    +0.056 C 
BRANCH  22  23
ATOM     23  C   UNL A   1     -25.688   1.614  26.461  0.00  0.00    +0.074 C 
ATOM     24  C   UNL A   1     -26.250   2.920  26.395  0.00  0.00    +0.055 C 
ATOM     25  C   UNL A   1     -27.438   3.091  25.645  0.00  0.00    +0.102 C 
ATOM     26  N   UNL A   1     -28.075   2.089  25.003  0.00  0.00    -0.212 NA
ATOM     27  C   UNL A   1     -27.543   0.849  25.079  0.00  0.00    +0.234 C 
ATOM     28  C   UNL A   1     -26.354   0.576  25.777  0.00  0.00    +0.240 C 
ATOM     29  F   UNL A   1     -25.860  -0.681  25.795  0.00  0.00    -0.227 F 
BRANCH  24  30
ATOM     30  C   UNL A   1     -25.642   4.093  27.123  0.00  0.00    +0.262 C 
ATOM     31  N   UNL A   1     -25.614   5.252  26.449  0.00  0.00    -0.200 NA
ATOM     32  C   UNL A   1     -25.026   6.479  26.963  0.00  0.00    +0.139 C 
ATOM     33  O   UNL A   1     -25.143   3.966  28.243  0.00  0.00    -0.269 OA
ENDBRANCH  24  30
BRANCH  27  34
ATOM     34  O   UNL A   1     -28.193  -0.208  24.477  0.00  0.00    -0.459 OA
BRANCH  34  35
ATOM     35  C   UNL A   1     -29.460   0.005  23.866  0.00  0.00    +0.242 C 
BRANCH  35  36
ATOM     36  C   UNL A   1     -30.065  -1.377  23.573  0.00  0.00    +0.229 C 
ATOM     37  O   UNL A   1     -30.729  -1.878  24.721  0.00  0.00    -0.216 OA
ENDBRANCH  35  36
ENDBRANCH  34  35
ENDBRANCH  27  34
ENDBRANCH  22  23
BRANCH  22  39
ATOM     38  C   UNL A   1     -22.388   0.620  28.356  0.00  0.00    +0.032 C 
ATOM     39  C   UNL A   1     -23.331   1.397  27.434  0.00  0.00    +0.117 C 
BRANCH  39  41
ATOM     40  C   UNL A   1     -22.912   2.551  25.301  0.00  0.00    +0.174 C 
ATOM     41  O   UNL A   1     -22.675   2.428  26.757  0.00  0.00    -0.353 OA
ENDBRANCH  39  41
ENDBRANCH  22  39
ENDBRANCH   1  22
TORSDOF 13
