MODEL 1163
MODEL 1
REMARK VINA RESULT:    -8.289      0.000      0.000
REMARK INTER + INTRA:         -14.980
REMARK INTER:                 -12.165
REMARK INTRA:                  -2.814
REMARK UNBOUND:                -2.814
REMARK  Name = No_1163-gen_results/8p0m/2024-11-27-11-27-31/
REMARK  8 active torsions:
REMARK  status: ('A' for Active; 'I' for Inactive)
REMARK    1  A    between atoms: C_2  and  C_7
REMARK    2  A    between atoms: C_4  and  C_10
REMARK    3  A    between atoms: C_10  and  C_11
REMARK    4  A    between atoms: C_13  and  C_17
REMARK    5  A    between atoms: C_15  and  C_22
REMARK    6  A    between atoms: C_22  and  C_23
REMARK    7  A    between atoms: C_28  and  C_29
REMARK    8  A    between atoms: C_29  and  C_30
REMARK                            x       y       z     vdW  Elec       q    Type
REMARK                         _______ _______ _______ _____ _____    ______ ____
ROOT
ATOM      1  C   UNL A   1     -27.141   1.586  25.452  0.00  0.00    +0.131 C 
ATOM      2  C   UNL A   1     -28.127   1.483  26.429  0.00  0.00    +0.040 C 
ATOM      3  C   UNL A   1     -28.038   0.656  27.573  0.00  0.00    +0.082 C 
ATOM      4  C   UNL A   1     -26.888  -0.009  27.838  0.00  0.00    +0.010 C 
ATOM      5  C   UNL A   1     -25.688   0.461  27.198  0.00  0.00    +0.007 C 
ATOM      6  C   UNL A   1     -25.813   0.733  25.929  0.00  0.00    +0.031 C 
ATOM      7  O   UNL A   1     -26.668   2.956  25.361  0.00  0.00    -0.225 OA
ENDROOT
BRANCH   3   8
ATOM      8  C   UNL A   1     -29.260   0.501  28.398  0.00  0.00    +0.260 C 
ATOM      9  N   UNL A   1     -30.052  -0.457  28.104  0.00  0.00    -0.088 NA
ATOM     10  O   UNL A   1     -29.250   1.047  29.576  0.00  0.00    -0.272 OA
ENDBRANCH   3   8
BRANCH   1  11
ATOM     11  C   UNL A   1     -27.390   1.052  24.100  0.00  0.00    +0.056 C 
BRANCH  11  15
ATOM     12  C   UNL A   1     -30.963   0.061  23.022  0.00  0.00    +0.002 A 
ATOM     13  C   UNL A   1     -31.277   1.031  22.756  0.00  0.00    +0.079 A 
ATOM     14  C   UNL A   1     -29.529  -0.053  23.489  0.00  0.00    -0.025 A 
ATOM     15  C   UNL A   1     -28.768   1.120  23.675  0.00  0.00    -0.024 A 
ATOM     16  C   UNL A   1     -30.711   2.392  22.885  0.00  0.00    +0.006 A 
ATOM     17  C   UNL A   1     -29.394   2.329  23.318  0.00  0.00    -0.004 A 
ATOM     18  C   UNL A   1     -28.929  -1.361  23.797  0.00  0.00    +0.031 C 
BRANCH  13  19
ATOM     19  C   UNL A   1     -32.800   1.183  22.269  0.00  0.00    +0.388 C 
ATOM     20  O   UNL A   1     -33.686   1.476  23.151  0.00  0.00    -0.241 OA
ATOM     21  O   UNL A   1     -32.925   1.489  21.098  0.00  0.00    -0.241 OA
ENDBRANCH  13  19
ENDBRANCH  11  15
ENDBRANCH   1  11
BRANCH   5  22
ATOM     22  C   UNL A   1     -24.934   1.272  28.095  0.00  0.00    +0.026 C 
BRANCH  22  23
ATOM     23  C   UNL A   1     -23.458   1.002  28.124  0.00  0.00    -0.026 A 
ATOM     24  C   UNL A   1     -22.704   1.496  27.458  0.00  0.00    -0.005 A 
ATOM     25  C   UNL A   1     -21.313   1.156  27.434  0.00  0.00    -0.000 A 
ATOM     26  C   UNL A   1     -20.857   0.257  28.418  0.00  0.00    -0.000 A 
ATOM     27  C   UNL A   1     -21.736  -0.290  29.346  0.00  0.00    -0.004 A 
ATOM     28  C   UNL A   1     -23.101   0.050  29.262  0.00  0.00    -0.022 A 
BRANCH  28  29
ATOM     29  C   UNL A   1     -24.006  -0.467  30.262  0.00  0.00    +0.052 C 
BRANCH  29  30
ATOM     30  C   UNL A   1     -24.409  -1.852  30.103  0.00  0.00    -0.018 A 
ATOM     31  C   UNL A   1     -25.614  -2.270  30.553  0.00  0.00    -0.004 A 
ATOM     32  C   UNL A   1     -26.195  -3.132  29.953  0.00  0.00    -0.000 A 
ATOM     33  C   UNL A   1     -25.613  -4.141  29.126  0.00  0.00    -0.000 A 
ATOM     34  C   UNL A   1     -24.322  -3.843  28.698  0.00  0.00    -0.000 A 
ATOM     35  C   UNL A   1     -23.678  -2.651  29.163  0.00  0.00    -0.004 A 
ENDBRANCH  29  30
ENDBRANCH  28  29
ENDBRANCH  22  23
ENDBRANCH   5  22
TORSDOF 8
ENDMDL
ENDMDL
