MODEL 1164
MODEL 1
REMARK VINA RESULT:    -5.433      0.000      0.000
REMARK INTER + INTRA:          -6.275
REMARK INTER:                  -6.068
REMARK INTRA:                  -0.207
REMARK UNBOUND:                -0.207
REMARK  Name = No_1164-gen_results/8p0m/2024-11-27-11-27-31/
REMARK  2 active torsions:
REMARK  status: ('A' for Active; 'I' for Inactive)
REMARK    1  A    between atoms: C_3  and  C_7
REMARK    2  A    between atoms: C_8  and  C_10
REMARK                            x       y       z     vdW  Elec       q    Type
REMARK                         _______ _______ _______ _____ _____    ______ ____
ROOT
ATOM      1  C   UNL A   1     -26.426  -3.525  30.039  0.00  0.00    -0.000 A 
ATOM      2  C   UNL A   1     -25.640  -2.606  30.025  0.00  0.00    -0.000 A 
ATOM      3  C   UNL A   1     -24.378  -2.679  29.437  0.00  0.00    -0.001 A 
ATOM      4  C   UNL A   1     -23.942  -3.934  28.856  0.00  0.00    -0.000 A 
ATOM      5  C   UNL A   1     -24.871  -4.972  28.912  0.00  0.00    -0.000 A 
ATOM      6  C   UNL A   1     -26.042  -4.818  29.499  0.00  0.00    -0.000 A 
ENDROOT
BRANCH   3   7
ATOM      7  C   UNL A   1     -23.361  -1.590  29.374  0.00  0.00    -0.007 C 
ATOM      8  C   UNL A   1     -23.467  -0.594  28.546  0.00  0.00    -0.025 C 
ATOM      9  C   UNL A   1     -24.563  -0.327  27.705  0.00  0.00    +0.028 C 
BRANCH   8  10
ATOM     10  C   UNL A   1     -22.530   0.549  28.636  0.00  0.00    +0.131 C 
ATOM     11  N   UNL A   1     -23.100   1.768  28.568  0.00  0.00    -0.127 NA
ENDBRANCH   8  10
ENDBRANCH   3   7
TORSDOF 2
ENDMDL
ENDMDL
