REMARK  Name = outputs/IAG933/test6/raw/output_1164_IAG933_linker_design_.xyz
REMARK  12 active torsions:
REMARK  status: ('A' for Active; 'I' for Inactive)
REMARK    1  A    between atoms: C_1  and  C_2
REMARK    2  A    between atoms: C_1  and  C_8
REMARK    3  A    between atoms: C_1  and  C_38
REMARK    4  A    between atoms: C_13  and  C_43
REMARK    5  A    between atoms: C_14  and  C_15
REMARK    6  A    between atoms: C_21  and  O_22
REMARK    7  A    between atoms: O_22  and  C_23
REMARK    8  A    between atoms: C_23  and  C_24
REMARK    9  A    between atoms: N_28  and  C_36
REMARK   10  A    between atoms: N_28  and  C_38
REMARK   11  A    between atoms: C_34  and  C_38
REMARK   12  A    between atoms: C_36  and  C_42
REMARK                            x       y       z     vdW  Elec       q    Type
REMARK                         _______ _______ _______ _____ _____    ______ ____
ROOT
ATOM      1  C   UNL A   1     -21.954   1.127  27.930  0.00  0.00    +0.169 C 
ATOM      2  F   UNL A   1     -21.165   1.972  25.905  0.00  0.00    -0.199 F 
ATOM      3  C   UNL A   1     -22.945   0.524  28.768  0.00  0.00    +0.032 C 
ATOM      4  F   UNL A   1     -20.753   1.484  28.355  0.00  0.00    -0.202 F 
ATOM      5  C   UNL A   1     -24.285   0.558  28.278  0.00  0.00    +0.025 C 
ATOM      6  C   UNL A   1     -23.429   1.499  26.165  0.00  0.00    +0.170 C 
ATOM      7  C   UNL A   1     -22.110   1.529  26.599  0.00  0.00    +0.195 C 
ATOM      8  F   UNL A   1     -23.577   1.877  24.796  0.00  0.00    -0.202 F 
ATOM      9  C   UNL A   1     -24.505   1.232  26.997  0.00  0.00    +0.032 C 
ENDROOT
BRANCH   9  10
ATOM     10  C   UNL A   1     -25.688   1.614  26.461  0.00  0.00    +0.040 C 
ATOM     11  C   UNL A   1     -26.250   2.920  26.395  0.00  0.00    +0.077 C 
ATOM     12  C   UNL A   1     -27.438   3.091  25.645  0.00  0.00    +0.107 C 
ATOM     13  N   UNL A   1     -28.075   2.089  25.003  0.00  0.00    -0.208 NA
ATOM     14  C   UNL A   1     -27.543   0.849  25.079  0.00  0.00    +0.253 C 
ATOM     15  C   UNL A   1     -26.354   0.576  25.777  0.00  0.00    +0.193 C 
ATOM     16  F   UNL A   1     -25.860  -0.681  25.795  0.00  0.00    -0.199 F 
BRANCH  11  17
ATOM     17  C   UNL A   1     -25.642   4.093  27.123  0.00  0.00    +0.266 C 
ATOM     18  N   UNL A   1     -25.614   5.252  26.449  0.00  0.00    -0.200 NA
ATOM     19  C   UNL A   1     -25.026   6.479  26.963  0.00  0.00    +0.139 C 
ATOM     20  O   UNL A   1     -25.143   3.966  28.243  0.00  0.00    -0.268 OA
ENDBRANCH  11  17
BRANCH  14  21
ATOM     21  O   UNL A   1     -28.193  -0.208  24.477  0.00  0.00    -0.456 OA
BRANCH  21  22
ATOM     22  C   UNL A   1     -29.460   0.005  23.866  0.00  0.00    +0.243 C 
BRANCH  22  23
ATOM     23  C   UNL A   1     -30.065  -1.377  23.573  0.00  0.00    +0.229 C 
ATOM     24  O   UNL A   1     -30.729  -1.878  24.721  0.00  0.00    -0.216 OA
ENDBRANCH  22  23
ENDBRANCH  21  22
ENDBRANCH  14  21
ENDBRANCH   9  10
BRANCH   5  25
ATOM     25  C   UNL A   1     -25.416   0.035  29.115  0.00  0.00    +0.210 C 
ATOM     26  O   UNL A   1     -26.392  -0.717  28.399  0.00  0.00    -0.203 OA
BRANCH  25  27
ATOM     27  C   UNL A   1     -24.855  -1.012  30.143  0.00  0.00    +0.086 C 
BRANCH  27  28
ATOM     28  C   UNL A   1     -24.973  -2.505  29.788  0.00  0.00    -0.017 C 
ATOM     29  C   UNL A   1     -23.906  -3.173  29.146  0.00  0.00    -0.004 C 
ATOM     30  C   UNL A   1     -23.989  -4.549  28.853  0.00  0.00    -0.000 C 
ATOM     31  C   UNL A   1     -25.137  -5.280  29.205  0.00  0.00    -0.000 C 
ATOM     32  C   UNL A   1     -26.232  -4.611  29.784  0.00  0.00    -0.000 C 
ATOM     33  C   UNL A   1     -26.155  -3.232  30.065  0.00  0.00    -0.004 C 
ENDBRANCH  27  28
BRANCH  27  34
ATOM     34  C   UNL A   1     -25.387  -0.679  31.571  0.00  0.00    +0.081 C 
ATOM     35  C   UNL A   1     -25.189   0.773  32.028  0.00  0.00    +0.019 C 
ATOM     36  C   UNL A   1     -25.336   0.684  33.544  0.00  0.00    +0.020 C 
ATOM     37  C   UNL A   1     -24.829  -0.715  33.905  0.00  0.00    +0.089 C 
ATOM     38  N   UNL A   1     -24.758  -1.481  32.646  0.00  0.00    -0.219 NA
ENDBRANCH  27  34
ENDBRANCH  25  27
BRANCH  25  39
ATOM     39  N   UNL A   1     -26.119   1.276  29.423  0.00  0.00    -0.189 NA
BRANCH  39  40
ATOM     40  C   UNL A   1     -27.497   1.578  29.364  0.00  0.00    +0.091 C 
BRANCH  40  43
ATOM     41  C   UNL A   1     -28.562   2.715  31.214  0.00  0.00    +0.002 C 
ATOM     42  C   UNL A   1     -26.273   3.432  30.702  0.00  0.00    +0.002 C 
ATOM     43  C   UNL A   1     -27.588   3.023  30.047  0.00  0.00    +0.018 C 
ENDBRANCH  40  43
ENDBRANCH  39  40
ENDBRANCH  25  39
ENDBRANCH   5  25
TORSDOF 12
