MODEL 1165
MODEL 1
REMARK VINA RESULT:    -7.867      0.000      0.000
REMARK INTER + INTRA:          -9.359
REMARK INTER:                  -9.246
REMARK INTRA:                  -0.113
REMARK UNBOUND:                -0.113
REMARK  Name = No_1165-gen_results/8p0m/2024-11-27-11-27-31/
REMARK  3 active torsions:
REMARK  status: ('A' for Active; 'I' for Inactive)
REMARK    1  A    between atoms: C_2  and  N_7
REMARK    2  A    between atoms: N_7  and  C_8
REMARK    3  A    between atoms: C_18  and  C_20
REMARK                            x       y       z     vdW  Elec       q    Type
REMARK                         _______ _______ _______ _____ _____    ______ ____
ROOT
ATOM      1  N   UNL A   1     -25.359   0.220  29.446  0.00  0.00    -0.234 N 
ATOM      2  C   UNL A   1     -24.554   0.836  30.485  0.00  0.00    +0.257 C 
ATOM      3  O   UNL A   1     -23.915   1.837  30.316  0.00  0.00    -0.269 OA
ENDROOT
BRANCH   1   4
ATOM      4  C   UNL A   1     -25.419   0.921  28.185  0.00  0.00    +0.061 A 
ATOM      5  C   UNL A   1     -24.549   1.197  27.357  0.00  0.00    +0.032 A 
ATOM      6  C   UNL A   1     -26.821   1.245  27.772  0.00  0.00    +0.036 A 
ATOM      7  C   UNL A   1     -23.079   0.958  27.523  0.00  0.00    +0.003 A 
ATOM      8  C   UNL A   1     -22.137   1.496  26.641  0.00  0.00    +0.000 A 
ATOM      9  C   UNL A   1     -26.991   2.012  26.678  0.00  0.00    +0.100 A 
ATOM     10  C   UNL A   1     -22.687   2.486  25.768  0.00  0.00    +0.002 A 
ATOM     11  C   UNL A   1     -23.949   2.782  25.627  0.00  0.00    +0.019 A 
ATOM     12  C   UNL A   1     -24.830   2.200  26.391  0.00  0.00    +0.083 A 
ATOM     13  N   UNL A   1     -26.055   2.477  25.966  0.00  0.00    -0.244 NA
ENDBRANCH   1   4
BRANCH   1  15
ATOM     14  C   UNL A   1     -26.558  -1.472  30.134  0.00  0.00    +0.027 A 
ATOM     15  C   UNL A   1     -25.537  -1.199  29.546  0.00  0.00    +0.060 A 
ATOM     16  C   UNL A   1     -24.681  -2.018  29.007  0.00  0.00    +0.027 A 
ATOM     17  C   UNL A   1     -24.936  -3.419  29.110  0.00  0.00    +0.060 A 
ATOM     18  C   UNL A   1     -26.943  -2.871  30.179  0.00  0.00    +0.060 A 
ATOM     19  C   UNL A   1     -26.113  -3.778  29.666  0.00  0.00    +0.023 A 
ATOM     20 CL   UNL A   1     -28.336  -3.435  31.038  0.00  0.00    -0.082 Cl
ATOM     21 CL   UNL A   1     -23.853  -4.570  28.380  0.00  0.00    -0.082 Cl
ENDBRANCH   1  15
BRANCH   2  22
ATOM     22  C   UNL A   1     -24.338   0.083  31.665  0.00  0.00    +0.054 A 
ATOM     23  C   UNL A   1     -23.248  -0.733  31.832  0.00  0.00    +0.004 A 
ATOM     24  C   UNL A   1     -23.034  -1.473  33.008  0.00  0.00    +0.000 A 
ATOM     25  C   UNL A   1     -23.952  -1.288  34.131  0.00  0.00    +0.000 A 
ATOM     26  C   UNL A   1     -25.057  -0.388  33.995  0.00  0.00    +0.000 A 
ATOM     27  C   UNL A   1     -25.283   0.203  32.830  0.00  0.00    +0.004 A 
ENDBRANCH   2  22
TORSDOF 3
ENDMDL
ENDMDL
