REMARK  Name = outputs/IAG933/test6/raw/output_1166_IAG933_linker_design_.xyz
REMARK  15 active torsions:
REMARK  status: ('A' for Active; 'I' for Inactive)
REMARK    1  A    between atoms: C_1  and  C_2
REMARK    2  A    between atoms: C_1  and  C_8
REMARK    3  A    between atoms: C_1  and  N_34
REMARK    4  A    between atoms: C_13  and  C_32
REMARK    5  A    between atoms: C_14  and  C_15
REMARK    6  A    between atoms: C_21  and  O_22
REMARK    7  A    between atoms: O_22  and  C_23
REMARK    8  A    between atoms: C_23  and  C_24
REMARK    9  A    between atoms: C_31  and  N_37
REMARK   10  A    between atoms: C_32  and  C_36
REMARK   11  A    between atoms: C_32  and  N_37
REMARK   12  A    between atoms: N_34  and  C_36
REMARK   13  A    between atoms: N_34  and  C_41
REMARK   14  A    between atoms: C_36  and  C_39
REMARK   15  A    between atoms: N_37  and  C_38
REMARK                            x       y       z     vdW  Elec       q    Type
REMARK                         _______ _______ _______ _____ _____    ______ ____
ROOT
ATOM      1  C   UNL A   1     -24.539   1.287  27.363  0.00  0.00    +0.116 C 
ENDROOT
BRANCH   1   2
ATOM      2  C   UNL A   1     -25.688   1.614  26.461  0.00  0.00    +0.033 C 
ATOM      3  C   UNL A   1     -26.250   2.920  26.395  0.00  0.00    +0.074 C 
ATOM      4  C   UNL A   1     -27.438   3.091  25.645  0.00  0.00    +0.106 C 
ATOM      5  N   UNL A   1     -28.075   2.089  25.003  0.00  0.00    -0.208 NA
ATOM      6  C   UNL A   1     -27.543   0.849  25.079  0.00  0.00    +0.253 C 
ATOM      7  C   UNL A   1     -26.354   0.576  25.777  0.00  0.00    +0.190 C 
ATOM      8  F   UNL A   1     -25.860  -0.681  25.795  0.00  0.00    -0.200 F 
BRANCH   3   9
ATOM      9  C   UNL A   1     -25.642   4.093  27.123  0.00  0.00    +0.266 C 
ATOM     10  N   UNL A   1     -25.614   5.252  26.449  0.00  0.00    -0.200 NA
ATOM     11  C   UNL A   1     -25.026   6.479  26.963  0.00  0.00    +0.139 C 
ATOM     12  O   UNL A   1     -25.143   3.966  28.243  0.00  0.00    -0.268 OA
ENDBRANCH   3   9
BRANCH   6  13
ATOM     13  O   UNL A   1     -28.193  -0.208  24.477  0.00  0.00    -0.456 OA
BRANCH  13  14
ATOM     14  C   UNL A   1     -29.460   0.005  23.866  0.00  0.00    +0.243 C 
BRANCH  14  15
ATOM     15  C   UNL A   1     -30.065  -1.377  23.573  0.00  0.00    +0.229 C 
ATOM     16  O   UNL A   1     -30.729  -1.878  24.721  0.00  0.00    -0.216 OA
ENDBRANCH  14  15
ENDBRANCH  13  14
ENDBRANCH   6  13
ENDBRANCH   1   2
BRANCH   1  17
ATOM     17  C   UNL A   1     -24.339   0.545  28.570  0.00  0.00    +0.193 C 
BRANCH  17  19
ATOM     18  O   UNL A   1     -23.219   2.113  29.868  0.00  0.00    -0.257 OA
ATOM     19  C   UNL A   1     -23.315   0.941  29.538  0.00  0.00    +0.331 C 
ATOM     20  F   UNL A   1     -22.407   0.066  29.935  0.00  0.00    -0.162 F 
ENDBRANCH  17  19
BRANCH  17  21
ATOM     21  N   UNL A   1     -25.424  -0.008  29.181  0.00  0.00    -0.234 N 
BRANCH  21  23
ATOM     22  N   UNL A   1     -27.656  -0.294  28.788  0.00  0.00    -0.174 NA
ATOM     23  C   UNL A   1     -26.634  -0.127  28.757  0.00  0.00    +0.171 C 
ENDBRANCH  21  23
BRANCH  21  24
ATOM     24  C   UNL A   1     -24.855  -1.012  30.143  0.00  0.00    +0.121 C 
BRANCH  24  25
ATOM     25  C   UNL A   1     -24.973  -2.505  29.788  0.00  0.00    -0.002 C 
ATOM     26  C   UNL A   1     -23.906  -3.173  29.146  0.00  0.00    -0.003 C 
ATOM     27  C   UNL A   1     -23.989  -4.549  28.853  0.00  0.00    -0.000 C 
ATOM     28  C   UNL A   1     -25.137  -5.280  29.205  0.00  0.00    -0.000 C 
ATOM     29  C   UNL A   1     -26.232  -4.611  29.784  0.00  0.00    -0.000 C 
ATOM     30  C   UNL A   1     -26.155  -3.232  30.065  0.00  0.00    -0.003 C 
ENDBRANCH  24  25
BRANCH  24  31
ATOM     31  C   UNL A   1     -25.387  -0.679  31.571  0.00  0.00    +0.096 C 
ATOM     32  C   UNL A   1     -25.189   0.773  32.028  0.00  0.00    +0.021 C 
ATOM     33  C   UNL A   1     -25.336   0.684  33.544  0.00  0.00    +0.020 C 
ATOM     34  C   UNL A   1     -24.829  -0.715  33.905  0.00  0.00    +0.089 C 
ATOM     35  N   UNL A   1     -24.758  -1.481  32.646  0.00  0.00    -0.217 NA
ENDBRANCH  24  31
ENDBRANCH  21  24
ENDBRANCH  17  21
ENDBRANCH   1  17
BRANCH   1  36
ATOM     36  N   UNL A   1     -23.371   1.617  26.850  0.00  0.00    -0.213 NA
BRANCH  36  39
ATOM     37  F   UNL A   1     -23.643   1.298  24.724  0.00  0.00    -0.179 F 
ATOM     38  F   UNL A   1     -22.282   2.843  25.371  0.00  0.00    -0.179 F 
ATOM     39  C   UNL A   1     -23.050   1.823  25.770  0.00  0.00    +0.384 C 
ENDBRANCH  36  39
BRANCH  36  41
ATOM     40  C   UNL A   1     -21.050   1.678  27.877  0.00  0.00    +0.019 C 
ATOM     41  C   UNL A   1     -22.237   1.066  27.071  0.00  0.00    +0.077 C 
ENDBRANCH  36  41
ENDBRANCH   1  36
TORSDOF 15
