MODEL 1166
MODEL 1
REMARK VINA RESULT:    -6.296      0.000      0.000
REMARK INTER + INTRA:          -7.387
REMARK INTER:                  -7.033
REMARK INTRA:                  -0.355
REMARK UNBOUND:                -0.355
REMARK  Name = No_1166-gen_results/8p0m/2024-11-27-11-27-31/
REMARK  2 active torsions:
REMARK  status: ('A' for Active; 'I' for Inactive)
REMARK    1  A    between atoms: C_5  and  C_19
REMARK    2  A    between atoms: C_6  and  C_10
REMARK                            x       y       z     vdW  Elec       q    Type
REMARK                         _______ _______ _______ _____ _____    ______ ____
ROOT
ATOM      1  O   UNL A   1     -26.786   2.676  28.500  0.00  0.00    -0.274 OA
ATOM      2  C   UNL A   1     -26.118   1.640  28.402  0.00  0.00    +0.236 C 
ATOM      3  N   UNL A   1     -25.795   0.842  29.139  0.00  0.00    -0.281 N 
ATOM      4  C   UNL A   1     -25.129  -0.458  28.861  0.00  0.00    +0.080 C 
ATOM      5  C   UNL A   1     -25.867   1.119  26.871  0.00  0.00    +0.179 C 
ATOM      6  C   UNL A   1     -24.644  -1.356  29.893  0.00  0.00    +0.054 C 
ATOM      7  C   UNL A   1     -24.942  -0.860  27.508  0.00  0.00    +0.021 C 
ATOM      8  C   UNL A   1     -25.361   0.015  26.563  0.00  0.00    +0.022 C 
ATOM      9  C   UNL A   1     -24.165  -1.008  31.046  0.00  0.00    +0.094 C 
ATOM     10  N   UNL A   1     -24.116   0.341  31.311  0.00  0.00    -0.216 NA
ATOM     11  C   UNL A   1     -23.817   1.279  30.595  0.00  0.00    +0.108 C 
ATOM     12  C   UNL A   1     -25.015   1.692  29.836  0.00  0.00    +0.093 C 
ATOM     13  C   UNL A   1     -25.382   3.012  30.259  0.00  0.00    +0.023 C 
ENDROOT
BRANCH   6  14
ATOM     14  C   UNL A   1     -24.782  -2.823  29.614  0.00  0.00    -0.037 C 
ATOM     15  C   UNL A   1     -26.047  -3.447  29.889  0.00  0.00    -0.008 C 
ATOM     16  C   UNL A   1     -26.088  -4.804  29.550  0.00  0.00    -0.005 C 
ATOM     17  C   UNL A   1     -24.970  -5.383  28.906  0.00  0.00    -0.022 C 
ATOM     18  C   UNL A   1     -23.903  -3.733  28.953  0.00  0.00    +0.048 C 
ENDBRANCH   6  14
BRANCH   5  19
ATOM     19  C   UNL A   1     -26.392   2.164  25.940  0.00  0.00    +0.373 C 
ATOM     20  O   UNL A   1     -27.224   1.948  25.318  0.00  0.00    -0.245 OA
ATOM     21  O   UNL A   1     -25.427   3.051  25.638  0.00  0.00    -0.245 OA
ENDBRANCH   5  19
TORSDOF 2
ENDMDL
ENDMDL
