MODEL 116
MODEL 1
REMARK VINA RESULT:    -4.492      0.000      0.000
REMARK INTER + INTRA:          -4.492
REMARK INTER:                  -4.492
REMARK INTRA:                   0.000
REMARK UNBOUND:                 0.000
REMARK  Name = No_116-gen_results/8p0m/2024-11-27-11-27-31/
REMARK  0 active torsions:
REMARK  status: ('A' for Active; 'I' for Inactive)
REMARK                            x       y       z     vdW  Elec       q    Type
REMARK                         _______ _______ _______ _____ _____    ______ ____
ROOT
ATOM      1  C   UNL A   1     -26.199  -4.574  29.583  0.00  0.00    +0.030 A 
ATOM      2  C   UNL A   1     -26.231  -3.559  29.867  0.00  0.00    +0.002 A 
ATOM      3  C   UNL A   1     -24.926  -4.969  28.969  0.00  0.00    +0.140 A 
ATOM      4  C   UNL A   1     -23.985  -4.084  28.639  0.00  0.00    +0.030 A 
ATOM      5  C   UNL A   1     -25.368  -2.433  29.605  0.00  0.00    +0.000 A 
ATOM      6  C   UNL A   1     -24.202  -2.817  29.011  0.00  0.00    +0.002 A 
ATOM      7  F   UNL A   1     -24.821  -6.304  28.662  0.00  0.00    -0.204 F 
ENDROOT
TORSDOF 0
ENDMDL
ENDMDL
