REMARK  Name = No_117-gen_results/8p0m/2024-11-27-11-27-31/
REMARK  3 active torsions:
REMARK  status: ('A' for Active; 'I' for Inactive)
REMARK    1  A    between atoms: C_11  and  C_12
REMARK    2  A    between atoms: N_13  and  C_14
REMARK    3  A    between atoms: C_14  and  C_15
REMARK                            x       y       z     vdW  Elec       q    Type
REMARK                         _______ _______ _______ _____ _____    ______ ____
ROOT
ATOM      1  F   UNL A   1     -28.073  -1.254  28.532  0.00  0.00    -0.204 F 
ATOM      2  C   UNL A   1     -27.061  -0.629  28.872  0.00  0.00    +0.140 A 
ATOM      3  C   UNL A   1     -26.153  -1.156  29.454  0.00  0.00    +0.030 A 
ATOM      4  C   UNL A   1     -24.878  -0.579  29.864  0.00  0.00    +0.002 A 
ATOM      5  C   UNL A   1     -23.756  -1.071  30.550  0.00  0.00    +0.000 A 
ATOM      6  C   UNL A   1     -22.689  -0.273  30.947  0.00  0.00    +0.000 A 
ATOM      7  C   UNL A   1     -22.618   0.992  30.420  0.00  0.00    +0.000 A 
ATOM      8  C   UNL A   1     -24.540   0.822  29.523  0.00  0.00    +0.005 A 
ATOM      9  C   UNL A   1     -23.498   1.510  29.766  0.00  0.00    +0.000 A 
ATOM     10  C   UNL A   1     -27.014   0.804  28.494  0.00  0.00    +0.034 A 
ATOM     11  C   UNL A   1     -25.756   1.497  28.771  0.00  0.00    +0.057 A 
ENDROOT
BRANCH  11  12
ATOM     12  C   UNL A   1     -25.615   2.907  28.346  0.00  0.00    +0.265 C 
ATOM     13  N   UNL A   1     -26.509   3.523  27.594  0.00  0.00    -0.197 NA
ATOM     14  O   UNL A   1     -24.630   3.543  28.739  0.00  0.00    -0.268 OA
BRANCH  13  15
ATOM     15  C   UNL A   1     -27.342   4.397  28.073  0.00  0.00    +0.142 C 
BRANCH  15  16
ATOM     16  C   UNL A   1     -27.134   4.855  29.332  0.00  0.00    -0.001 A 
ATOM     17  C   UNL A   1     -27.976   5.201  30.218  0.00  0.00    -0.003 A 
ATOM     18  C   UNL A   1     -27.676   5.687  31.563  0.00  0.00    -0.000 A 
ATOM     19  C   UNL A   1     -26.315   5.812  31.938  0.00  0.00    -0.000 A 
ATOM     20  C   UNL A   1     -25.338   5.481  30.983  0.00  0.00    -0.000 A 
ATOM     21  C   UNL A   1     -25.714   5.021  29.713  0.00  0.00    -0.003 A 
ENDBRANCH  15  16
ENDBRANCH  13  15
ENDBRANCH  11  12
TORSDOF 3
