REMARK  Name = No_1170-gen_results/8p0m/2024-11-27-11-27-31/
REMARK  2 active torsions:
REMARK  status: ('A' for Active; 'I' for Inactive)
REMARK    1  A    between atoms: C_4  and  C_8
REMARK    2  A    between atoms: C_8  and  C_10
REMARK                            x       y       z     vdW  Elec       q    Type
REMARK                         _______ _______ _______ _____ _____    ______ ____
ROOT
ATOM      1  C   UNL A   1     -28.016  -0.814  28.878  0.00  0.00    +0.011 A 
ATOM      2  C   UNL A   1     -28.469  -0.785  29.829  0.00  0.00    +0.058 A 
ATOM      3  C   UNL A   1     -26.504  -0.778  28.877  0.00  0.00    +0.002 A 
ATOM      4  C   UNL A   1     -25.810  -0.853  30.103  0.00  0.00    +0.015 A 
ATOM      5  C   UNL A   1     -27.991  -0.892  31.226  0.00  0.00    +0.011 A 
ATOM      6  C   UNL A   1     -26.604  -0.868  31.265  0.00  0.00    +0.002 A 
ATOM      7 CL   UNL A   1     -30.294  -0.838  29.835  0.00  0.00    -0.082 Cl
ENDROOT
BRANCH   4   8
ATOM      8  C   UNL A   1     -24.370  -0.821  30.139  0.00  0.00    +0.081 C 
ATOM      9  N   UNL A   1     -23.696  -1.488  30.737  0.00  0.00    -0.153 NA
BRANCH   8  10
ATOM     10  C   UNL A   1     -23.666   0.212  29.324  0.00  0.00    +0.048 C 
ATOM     11  C   UNL A   1     -22.300   0.033  29.380  0.00  0.00    +0.007 C 
ENDBRANCH   8  10
ENDBRANCH   4   8
TORSDOF 2
