MODEL 1170
MODEL 1
REMARK VINA RESULT:    -5.339      0.000      0.000
REMARK INTER + INTRA:          -6.115
REMARK INTER:                  -5.963
REMARK INTRA:                  -0.151
REMARK UNBOUND:                -0.151
REMARK  Name = No_1170-gen_results/8p0m/2024-11-27-11-27-31/
REMARK  2 active torsions:
REMARK  status: ('A' for Active; 'I' for Inactive)
REMARK    1  A    between atoms: C_4  and  C_8
REMARK    2  A    between atoms: C_8  and  C_10
REMARK                            x       y       z     vdW  Elec       q    Type
REMARK                         _______ _______ _______ _____ _____    ______ ____
ROOT
ATOM      1  C   UNL A   1     -23.999   0.381  27.490  0.00  0.00    +0.011 A 
ATOM      2  C   UNL A   1     -23.031   0.481  27.894  0.00  0.00    +0.058 A 
ATOM      3  C   UNL A   1     -24.724  -0.897  27.849  0.00  0.00    +0.002 A 
ATOM      4  C   UNL A   1     -24.146  -1.780  28.785  0.00  0.00    +0.015 A 
ATOM      5  C   UNL A   1     -22.228  -0.253  28.897  0.00  0.00    +0.011 A 
ATOM      6  C   UNL A   1     -22.866  -1.433  29.256  0.00  0.00    +0.002 A 
ATOM      7 CL   UNL A   1     -22.157   2.027  27.471  0.00  0.00    -0.082 Cl
ENDROOT
BRANCH   4   8
ATOM      8  C   UNL A   1     -24.808  -3.006  29.150  0.00  0.00    +0.081 C 
ATOM      9  N   UNL A   1     -25.738  -3.112  29.767  0.00  0.00    -0.153 NA
BRANCH   8  10
ATOM     10  C   UNL A   1     -24.209  -4.295  28.695  0.00  0.00    +0.048 C 
ATOM     11  C   UNL A   1     -24.991  -5.363  29.082  0.00  0.00    +0.007 C 
ENDBRANCH   8  10
ENDBRANCH   4   8
TORSDOF 2
ENDMDL
ENDMDL
