REMARK  Name = outputs/IAG933/test6/raw/output_1171_IAG933_linker_design_.xyz
REMARK  12 active torsions:
REMARK  status: ('A' for Active; 'I' for Inactive)
REMARK    1  A    between atoms: C_1  and  C_2
REMARK    2  A    between atoms: C_1  and  C_8
REMARK    3  A    between atoms: C_1  and  C_30
REMARK    4  A    between atoms: C_13  and  C_35
REMARK    5  A    between atoms: C_14  and  C_15
REMARK    6  A    between atoms: C_21  and  O_22
REMARK    7  A    between atoms: O_22  and  C_23
REMARK    8  A    between atoms: C_23  and  C_24
REMARK    9  A    between atoms: C_30  and  N_34
REMARK   10  A    between atoms: C_30  and  C_36
REMARK   11  A    between atoms: C_33  and  C_44
REMARK   12  A    between atoms: S_38  and  C_44
REMARK                            x       y       z     vdW  Elec       q    Type
REMARK                         _______ _______ _______ _____ _____    ______ ____
ROOT
ATOM      1  C   UNL A   1     -25.391  -0.031  29.098  0.00  0.00    +0.123 C 
ENDROOT
BRANCH   1   4
ATOM      2  N   UNL A   1     -21.890   1.665  27.127  0.00  0.00    -0.248 NA
ATOM      3  C   UNL A   1     -24.367   1.351  27.113  0.00  0.00    +0.019 C 
ATOM      4  C   UNL A   1     -24.177   0.462  28.251  0.00  0.00    +0.001 C 
ATOM      5  C   UNL A   1     -22.931   0.135  28.646  0.00  0.00    +0.012 C 
ATOM      6  C   UNL A   1     -20.394   0.384  28.610  0.00  0.00    +0.052 C 
ATOM      7  C   UNL A   1     -23.122   1.947  26.655  0.00  0.00    +0.098 C 
ATOM      8  C   UNL A   1     -21.769   0.773  28.117  0.00  0.00    +0.059 C 
BRANCH   3   9
ATOM      9  C   UNL A   1     -25.688   1.614  26.461  0.00  0.00    +0.039 C 
ATOM     10  C   UNL A   1     -26.250   2.920  26.395  0.00  0.00    +0.077 C 
ATOM     11  C   UNL A   1     -27.438   3.091  25.645  0.00  0.00    +0.107 C 
ATOM     12  N   UNL A   1     -28.075   2.089  25.003  0.00  0.00    -0.208 NA
ATOM     13  C   UNL A   1     -27.543   0.849  25.079  0.00  0.00    +0.253 C 
ATOM     14  C   UNL A   1     -26.354   0.576  25.777  0.00  0.00    +0.193 C 
ATOM     15  F   UNL A   1     -25.860  -0.681  25.795  0.00  0.00    -0.199 F 
BRANCH  10  16
ATOM     16  C   UNL A   1     -25.642   4.093  27.123  0.00  0.00    +0.266 C 
ATOM     17  N   UNL A   1     -25.614   5.252  26.449  0.00  0.00    -0.200 NA
ATOM     18  C   UNL A   1     -25.026   6.479  26.963  0.00  0.00    +0.139 C 
ATOM     19  O   UNL A   1     -25.143   3.966  28.243  0.00  0.00    -0.268 OA
ENDBRANCH  10  16
BRANCH  13  20
ATOM     20  O   UNL A   1     -28.193  -0.208  24.477  0.00  0.00    -0.456 OA
BRANCH  20  21
ATOM     21  C   UNL A   1     -29.460   0.005  23.866  0.00  0.00    +0.243 C 
BRANCH  21  22
ATOM     22  C   UNL A   1     -30.065  -1.377  23.573  0.00  0.00    +0.229 C 
ATOM     23  O   UNL A   1     -30.729  -1.878  24.721  0.00  0.00    -0.216 OA
ENDBRANCH  21  22
ENDBRANCH  20  21
ENDBRANCH  13  20
ENDBRANCH   3   9
ENDBRANCH   1   4
BRANCH   1  26
ATOM     24  O   UNL A   1     -27.739   1.190  31.034  0.00  0.00    -0.270 OA
ATOM     25  C   UNL A   1     -28.028   0.701  30.036  0.00  0.00    +0.283 C 
ATOM     26  N   UNL A   1     -27.030   0.412  29.052  0.00  0.00    -0.199 NA
BRANCH  25  28
ATOM     27  O   UNL A   1     -30.393   1.911  29.990  0.00  0.00    -0.200 OA
ATOM     28  C   UNL A   1     -29.657   0.701  29.740  0.00  0.00    +0.285 C 
BRANCH  28  31
ATOM     29  C   UNL A   1     -30.481   1.510  27.209  0.00  0.00    +0.083 C 
ATOM     30  C   UNL A   1     -31.881  -0.391  28.565  0.00  0.00    +0.083 C 
ATOM     31  S   UNL A   1     -30.293   0.217  28.187  0.00  0.00    -0.034 S 
ATOM     32  O   UNL A   1     -29.413  -0.692  27.651  0.00  0.00    -0.168 OA
ENDBRANCH  28  31
ENDBRANCH  25  28
ENDBRANCH   1  26
BRANCH   1  33
ATOM     33  C   UNL A   1     -24.855  -1.012  30.143  0.00  0.00    +0.062 C 
BRANCH  33  34
ATOM     34  C   UNL A   1     -24.973  -2.505  29.788  0.00  0.00    -0.019 C 
ATOM     35  C   UNL A   1     -23.906  -3.173  29.146  0.00  0.00    -0.004 C 
ATOM     36  C   UNL A   1     -23.989  -4.549  28.853  0.00  0.00    -0.000 C 
ATOM     37  C   UNL A   1     -25.137  -5.280  29.205  0.00  0.00    -0.000 C 
ATOM     38  C   UNL A   1     -26.232  -4.611  29.784  0.00  0.00    -0.000 C 
ATOM     39  C   UNL A   1     -26.155  -3.232  30.065  0.00  0.00    -0.004 C 
ENDBRANCH  33  34
BRANCH  33  40
ATOM     40  C   UNL A   1     -25.387  -0.679  31.571  0.00  0.00    +0.079 C 
ATOM     41  C   UNL A   1     -25.189   0.773  32.028  0.00  0.00    +0.019 C 
ATOM     42  C   UNL A   1     -25.336   0.684  33.544  0.00  0.00    +0.020 C 
ATOM     43  C   UNL A   1     -24.829  -0.715  33.905  0.00  0.00    +0.089 C 
ATOM     44  N   UNL A   1     -24.758  -1.481  32.646  0.00  0.00    -0.219 NA
ENDBRANCH  33  40
ENDBRANCH   1  33
TORSDOF 12
