MODEL 1172
MODEL 1
REMARK VINA RESULT:    -6.946      0.000      0.000
REMARK INTER + INTRA:         -13.893
REMARK INTER:                 -11.413
REMARK INTRA:                  -2.480
REMARK UNBOUND:                -2.480
REMARK  Name = No_1172-gen_results/8p0m/2024-11-27-11-27-31/
REMARK  11 active torsions:
REMARK  status: ('A' for Active; 'I' for Inactive)
REMARK    1  A    between atoms: C_1  and  O_17
REMARK    2  A    between atoms: C_6  and  O_23
REMARK    3  A    between atoms: C_10  and  C_11
REMARK    4  A    between atoms: O_17  and  C_18
REMARK    5  A    between atoms: C_18  and  C_19
REMARK    6  A    between atoms: O_23  and  C_24
REMARK    7  A    between atoms: C_24  and  C_25
REMARK    8  A    between atoms: C_24  and  O_28
REMARK    9  A    between atoms: O_28  and  C_30
REMARK   10  A    between atoms: C_30  and  C_31
REMARK   11  A    between atoms: N_33  and  C_34
REMARK                            x       y       z     vdW  Elec       q    Type
REMARK                         _______ _______ _______ _____ _____    ______ ____
ROOT
ATOM      1  C   UNL A   1     -25.627   1.570  27.259  0.00  0.00    +0.183 A 
ATOM      2  C   UNL A   1     -25.269   0.510  27.716  0.00  0.00    +0.041 A 
ATOM      3  C   UNL A   1     -23.941   0.290  28.065  0.00  0.00    +0.003 A 
ATOM      4  C   UNL A   1     -22.941   1.303  27.848  0.00  0.00    +0.003 A 
ATOM      5  C   UNL A   1     -21.619   1.175  28.150  0.00  0.00    +0.000 A 
ATOM      6  C   UNL A   1     -24.728   2.638  26.912  0.00  0.00    +0.176 A 
ATOM      7  C   UNL A   1     -23.406   2.514  27.212  0.00  0.00    +0.040 A 
ATOM      8  C   UNL A   1     -21.154  -0.203  28.535  0.00  0.00    +0.000 A 
ATOM      9  C   UNL A   1     -22.106  -1.156  29.038  0.00  0.00    +0.000 A 
ATOM     10  C   UNL A   1     -23.464  -0.973  28.643  0.00  0.00    +0.000 A 
ENDROOT
BRANCH  10  11
ATOM     11  C   UNL A   1     -24.349  -2.058  29.044  0.00  0.00    +0.000 A 
ATOM     12  C   UNL A   1     -25.506  -1.820  29.702  0.00  0.00    +0.000 A 
ATOM     13  C   UNL A   1     -26.312  -2.901  30.037  0.00  0.00    +0.000 A 
ATOM     14  C   UNL A   1     -25.959  -4.221  29.552  0.00  0.00    +0.000 A 
ATOM     15  C   UNL A   1     -24.264  -3.457  28.705  0.00  0.00    +0.000 A 
ATOM     16  C   UNL A   1     -24.945  -4.430  28.993  0.00  0.00    +0.000 A 
ENDBRANCH  10  11
BRANCH   1  17
ATOM     17  O   UNL A   1     -26.945   1.737  26.862  0.00  0.00    -0.413 OA
BRANCH  17  18
ATOM     18  C   UNL A   1     -27.500   1.018  25.874  0.00  0.00    +0.427 C 
ATOM     19  O   UNL A   1     -28.278   0.023  26.157  0.00  0.00    -0.237 OA
BRANCH  18  20
ATOM     20  C   UNL A   1     -27.445   1.602  24.633  0.00  0.00    +0.463 C 
ATOM     21  O   UNL A   1     -27.813   2.709  24.502  0.00  0.00    -0.233 OA
ATOM     22  O   UNL A   1     -27.415   0.765  23.702  0.00  0.00    -0.233 OA
ENDBRANCH  18  20
ENDBRANCH  17  18
ENDBRANCH   1  17
BRANCH   6  23
ATOM     23  O   UNL A   1     -25.201   3.741  26.319  0.00  0.00    -0.443 OA
BRANCH  23  24
ATOM     24  C   UNL A   1     -25.651   4.818  27.096  0.00  0.00    +0.387 C 
BRANCH  24  25
ATOM     25  C   UNL A   1     -24.979   5.979  26.711  0.00  0.00    +0.464 C 
ATOM     26  F   UNL A   1     -24.234   6.376  27.718  0.00  0.00    -0.164 F 
ATOM     27  F   UNL A   1     -24.151   5.713  25.639  0.00  0.00    -0.164 F 
ATOM     28  F   UNL A   1     -25.771   6.990  26.357  0.00  0.00    -0.164 F 
ENDBRANCH  24  25
BRANCH  24  29
ATOM     29  O   UNL A   1     -25.346   4.451  28.480  0.00  0.00    -0.304 OA
BRANCH  29  30
ATOM     30  C   UNL A   1     -26.377   4.519  29.483  0.00  0.00    +0.233 C 
BRANCH  30  31
ATOM     31  C   UNL A   1     -26.090   3.722  30.462  0.00  0.00    +0.276 C 
ATOM     32  O   UNL A   1     -27.046   3.264  31.036  0.00  0.00    -0.270 OA
ATOM     33  N   UNL A   1     -24.934   3.143  30.490  0.00  0.00    -0.176 NA
BRANCH  33  34
ATOM     34  C   UNL A   1     -24.539   2.274  31.604  0.00  0.00    +0.089 C 
ATOM     35  C   UNL A   1     -24.168   1.220  31.489  0.00  0.00    +0.019 C 
ENDBRANCH  33  34
ENDBRANCH  30  31
ENDBRANCH  29  30
ENDBRANCH  24  29
ENDBRANCH  23  24
ENDBRANCH   6  23
TORSDOF 11
ENDMDL
ENDMDL
