MODEL 1173
MODEL 1
REMARK VINA RESULT:    -6.600      0.000      0.000
REMARK INTER + INTRA:          -6.600
REMARK INTER:                  -6.600
REMARK INTRA:                   0.000
REMARK UNBOUND:                 0.000
REMARK  Name = No_1173-gen_results/8p0m/2024-11-27-11-27-31/
REMARK  0 active torsions:
REMARK  status: ('A' for Active; 'I' for Inactive)
REMARK                            x       y       z     vdW  Elec       q    Type
REMARK                         _______ _______ _______ _____ _____    ______ ____
ROOT
ATOM      1  C   UNL A   1     -27.613 -12.361  32.154  0.00  0.00    +0.000 A 
ATOM      2  C   UNL A   1     -28.331 -11.724  31.419  0.00  0.00    +0.000 A 
ATOM      3  C   UNL A   1     -28.444 -12.045  30.070  0.00  0.00    +0.000 A 
ATOM      4  C   UNL A   1     -29.283 -11.334  29.064  0.00  0.00    +0.000 A 
ATOM      5  C   UNL A   1     -29.371 -11.668  27.667  0.00  0.00    +0.000 A 
ATOM      6  C   UNL A   1     -30.211 -10.989  26.819  0.00  0.00    +0.000 A 
ATOM      7  C   UNL A   1     -27.225 -11.865  33.432  0.00  0.00    +0.000 A 
ATOM      8  C   UNL A   1     -28.005 -10.858  33.973  0.00  0.00    +0.000 A 
ATOM      9  C   UNL A   1     -28.966 -10.241  33.182  0.00  0.00    +0.000 A 
ATOM     10  C   UNL A   1     -29.126 -10.586  31.808  0.00  0.00    +0.000 A 
ATOM     11  C   UNL A   1     -31.091 -10.007  27.253  0.00  0.00    +0.000 A 
ATOM     12  C   UNL A   1     -31.058  -9.662  28.628  0.00  0.00    +0.000 A 
ATOM     13  C   UNL A   1     -30.231 -10.325  29.509  0.00  0.00    +0.000 A 
ATOM     14  C   UNL A   1     -30.059  -9.938  30.942  0.00  0.00    +0.000 A 
ENDROOT
TORSDOF 0
ENDMDL
ENDMDL
