REMARK  Name = No_1174-gen_results/8p0m/2024-11-27-11-27-31/
REMARK  3 active torsions:
REMARK  status: ('A' for Active; 'I' for Inactive)
REMARK    1  A    between atoms: C_3  and  C_7
REMARK    2  A    between atoms: N_8  and  C_10
REMARK    3  A    between atoms: C_11  and  C_16
REMARK                            x       y       z     vdW  Elec       q    Type
REMARK                         _______ _______ _______ _____ _____    ______ ____
ROOT
ATOM      1  C   UNL A   1     -24.256   0.171  28.657  0.00  0.00    +0.078 A 
ATOM      2  C   UNL A   1     -23.172   1.163  28.520  0.00  0.00    +0.087 A 
ATOM      3  C   UNL A   1     -22.143   1.076  29.517  0.00  0.00    +0.005 A 
ATOM      4  C   UNL A   1     -24.304  -0.607  29.712  0.00  0.00    +0.017 A 
ATOM      5  C   UNL A   1     -23.316  -0.646  30.707  0.00  0.00    +0.001 A 
ATOM      6  C   UNL A   1     -22.252   0.293  30.599  0.00  0.00    +0.000 A 
ENDROOT
BRANCH   2   7
ATOM      7  C   UNL A   1     -22.959   2.054  27.413  0.00  0.00    +0.420 C 
ATOM      8  F   UNL A   1     -22.086   1.801  26.693  0.00  0.00    -0.166 F 
ATOM      9  F   UNL A   1     -22.894   3.375  27.909  0.00  0.00    -0.166 F 
ATOM     10  F   UNL A   1     -24.077   2.131  26.596  0.00  0.00    -0.166 F 
ENDBRANCH   2   7
BRANCH   1  12
ATOM     11  C   UNL A   1     -26.317   0.399  27.365  0.00  0.00    +0.269 C 
ATOM     12  N   UNL A   1     -25.072   0.157  27.430  0.00  0.00    -0.175 NA
ATOM     13  O   UNL A   1     -26.908   0.274  26.237  0.00  0.00    -0.268 OA
BRANCH  11  16
ATOM     14  C   UNL A   1     -28.016  -0.814  28.878  0.00  0.00    +0.005 A 
ATOM     15  C   UNL A   1     -28.469  -0.785  29.829  0.00  0.00    +0.000 A 
ATOM     16  C   UNL A   1     -27.087   0.290  28.638  0.00  0.00    +0.055 A 
ATOM     17  C   UNL A   1     -26.832   1.249  29.587  0.00  0.00    +0.005 A 
ATOM     18  C   UNL A   1     -28.391   0.080  31.006  0.00  0.00    +0.000 A 
ATOM     19  C   UNL A   1     -27.494   1.152  30.784  0.00  0.00    +0.000 A 
ENDBRANCH  11  16
ENDBRANCH   1  12
TORSDOF 3
