MODEL 1175
MODEL 1
REMARK VINA RESULT:    -5.343      0.000      0.000
REMARK INTER + INTRA:          -7.415
REMARK INTER:                  -6.904
REMARK INTRA:                  -0.511
REMARK UNBOUND:                -0.511
REMARK  Name = No_1175-gen_results/8p0m/2024-11-27-11-27-31/
REMARK  5 active torsions:
REMARK  status: ('A' for Active; 'I' for Inactive)
REMARK    1  A    between atoms: C_2  and  C_4
REMARK    2  A    between atoms: C_4  and  O_6
REMARK    3  A    between atoms: O_6  and  C_7
REMARK    4  A    between atoms: C_7  and  C_8
REMARK    5  A    between atoms: C_9  and  C_12
REMARK                            x       y       z     vdW  Elec       q    Type
REMARK                         _______ _______ _______ _____ _____    ______ ____
ROOT
ATOM      1  O   UNL A   1     -23.086   0.331  27.403  0.00  0.00    -0.438 OA
ENDROOT
BRANCH   1   2
ATOM      2  C   UNL A   1     -22.898   1.679  27.204  0.00  0.00    +0.414 C 
ATOM      3  O   UNL A   1     -22.823   2.324  28.121  0.00  0.00    -0.241 OA
BRANCH   2   5
ATOM      4  F   UNL A   1     -23.632   3.209  25.898  0.00  0.00    -0.161 F 
ATOM      5  C   UNL A   1     -23.243   2.204  25.811  0.00  0.00    +0.491 C 
ATOM      6  F   UNL A   1     -23.951   1.448  25.184  0.00  0.00    -0.161 F 
ATOM      7  F   UNL A   1     -22.095   2.367  25.065  0.00  0.00    -0.161 F 
ENDBRANCH   2   5
ENDBRANCH   1   2
BRANCH   1   8
ATOM      8  C   UNL A   1     -23.773  -0.161  28.537  0.00  0.00    +0.232 C 
BRANCH   8   9
ATOM      9  C   UNL A   1     -25.079  -0.646  28.262  0.00  0.00    +0.008 C 
ATOM     10  C   UNL A   1     -25.273  -1.901  28.478  0.00  0.00    +0.044 C 
ATOM     11  C   UNL A   1     -26.131   0.214  27.864  0.00  0.00    +0.031 C 
BRANCH  10  12
ATOM     12  C   UNL A   1     -24.328  -2.905  28.827  0.00  0.00    -0.064 C 
ATOM     13  C   UNL A   1     -24.055  -3.946  28.873  0.00  0.00    -0.085 C 
ATOM     14  C   UNL A   1     -24.537  -5.169  28.824  0.00  0.00    +0.090 C 
ENDBRANCH  10  12
ENDBRANCH   8   9
ENDBRANCH   1   8
TORSDOF 5
ENDMDL
ENDMDL
