MODEL 1176
MODEL 1
REMARK VINA RESULT:    -7.637      0.000      0.000
REMARK INTER + INTRA:         -14.579
REMARK INTER:                 -11.655
REMARK INTRA:                  -2.924
REMARK UNBOUND:                -2.924
REMARK  Name = No_1176-gen_results/8p0m/2024-11-27-11-27-31/
REMARK  9 active torsions:
REMARK  status: ('A' for Active; 'I' for Inactive)
REMARK    1  A    between atoms: C_2  and  C_7
REMARK    2  A    between atoms: C_3  and  C_17
REMARK    3  A    between atoms: N_9  and  C_10
REMARK    4  A    between atoms: N_9  and  C_11
REMARK    5  A    between atoms: C_10  and  C_28
REMARK    6  A    between atoms: C_16  and  C_25
REMARK    7  A    between atoms: C_17  and  C_18
REMARK    8  A    between atoms: C_18  and  C_19
REMARK    9  A    between atoms: C_18  and  C_26
REMARK                            x       y       z     vdW  Elec       q    Type
REMARK                         _______ _______ _______ _____ _____    ______ ____
ROOT
ATOM      1  C   UNL A   1     -24.207  -0.106  27.245  0.00  0.00    +0.000 A 
ATOM      2  C   UNL A   1     -24.402   0.554  26.447  0.00  0.00    +0.054 A 
ATOM      3  C   UNL A   1     -23.140   0.286  28.179  0.00  0.00    -0.022 A 
ATOM      4  C   UNL A   1     -22.478   1.300  27.984  0.00  0.00    -0.004 A 
ATOM      5  C   UNL A   1     -23.831   1.865  26.083  0.00  0.00    +0.004 A 
ATOM      6  C   UNL A   1     -22.801   2.204  26.905  0.00  0.00    -0.000 A 
ENDROOT
BRANCH   2   7
ATOM      7  C   UNL A   1     -25.612   0.398  25.390  0.00  0.00    +0.253 C 
ATOM      8  O   UNL A   1     -25.473   0.136  24.279  0.00  0.00    -0.270 OA
ATOM      9  N   UNL A   1     -26.825   0.885  25.862  0.00  0.00    -0.247 N 
BRANCH   9  10
ATOM     10  C   UNL A   1     -27.031   1.252  27.261  0.00  0.00    +0.054 A 
ATOM     11  C   UNL A   1     -27.821   0.317  27.966  0.00  0.00    +0.015 A 
ATOM     12  C   UNL A   1     -28.329   0.487  28.895  0.00  0.00    +0.001 A 
ATOM     13  C   UNL A   1     -28.064   1.775  29.667  0.00  0.00    -0.004 A 
ATOM     14  C   UNL A   1     -26.719   2.478  27.787  0.00  0.00    +0.011 A 
ATOM     15  C   UNL A   1     -27.251   2.740  29.075  0.00  0.00    -0.021 A 
BRANCH  15  16
ATOM     16  C   UNL A   1     -26.956   3.992  29.774  0.00  0.00    +0.022 C 
ATOM     17  C   UNL A   1     -26.460   4.971  29.128  0.00  0.00    +0.005 C 
ATOM     18  C   UNL A   1     -27.129   3.972  31.195  0.00  0.00    +0.005 C 
ENDBRANCH  15  16
ENDBRANCH   9  10
BRANCH   9  19
ATOM     19  C   UNL A   1     -27.921   0.989  24.973  0.00  0.00    +0.202 C 
BRANCH  19  20
ATOM     20  C   UNL A   1     -27.996   2.236  24.362  0.00  0.00    +0.416 C 
ATOM     21  F   UNL A   1     -27.259   3.139  24.583  0.00  0.00    -0.168 F 
ATOM     22  F   UNL A   1     -29.295   2.753  24.646  0.00  0.00    -0.168 F 
ATOM     23  F   UNL A   1     -28.024   2.163  22.997  0.00  0.00    -0.168 F 
ENDBRANCH  19  20
ENDBRANCH   9  19
ENDBRANCH   2   7
BRANCH   3  24
ATOM     24  C   UNL A   1     -22.684  -0.662  29.293  0.00  0.00    +0.030 C 
BRANCH  24  25
ATOM     25  C   UNL A   1     -23.775  -1.284  30.070  0.00  0.00    +0.023 C 
ATOM     26  C   UNL A   1     -24.992  -0.181  30.309  0.00  0.00    +0.005 C 
BRANCH  25  27
ATOM     27  C   UNL A   1     -24.362  -2.326  29.514  0.00  0.00    -0.022 A 
ATOM     28  C   UNL A   1     -23.953  -3.323  28.692  0.00  0.00    -0.004 A 
ATOM     29  C   UNL A   1     -24.228  -4.606  28.800  0.00  0.00    -0.000 A 
ATOM     30  C   UNL A   1     -25.488  -4.970  29.396  0.00  0.00    -0.000 A 
ATOM     31  C   UNL A   1     -25.862  -2.443  29.603  0.00  0.00    -0.004 A 
ATOM     32  C   UNL A   1     -26.320  -3.846  29.744  0.00  0.00    -0.000 A 
ENDBRANCH  25  27
BRANCH  25  33
ATOM     33  C   UNL A   1     -23.319  -1.488  31.534  0.00  0.00    +0.004 C 
ATOM     34  C   UNL A   1     -23.869  -0.803  32.531  0.00  0.00    +0.000 C 
ENDBRANCH  25  33
ENDBRANCH  24  25
ENDBRANCH   3  24
TORSDOF 9
ENDMDL
ENDMDL
