MODEL 1178
MODEL 1
REMARK VINA RESULT:    -4.928      0.000      0.000
REMARK INTER + INTRA:          -5.935
REMARK INTER:                  -5.792
REMARK INTRA:                  -0.143
REMARK UNBOUND:                -0.143
REMARK  Name = No_1178-gen_results/8p0m/2024-11-27-11-27-31/
REMARK  3 active torsions:
REMARK  status: ('A' for Active; 'I' for Inactive)
REMARK    1  A    between atoms: C_3  and  C_8
REMARK    2  A    between atoms: C_8  and  N_9
REMARK    3  A    between atoms: N_9  and  C_10
REMARK                            x       y       z     vdW  Elec       q    Type
REMARK                         _______ _______ _______ _____ _____    ______ ____
ROOT
ATOM      1  C   UNL A   1     -24.357   0.777  26.722  0.00  0.00    +0.011 A 
ATOM      2  C   UNL A   1     -24.328  -0.165  27.480  0.00  0.00    -0.002 A 
ATOM      3  C   UNL A   1     -23.340  -0.274  28.453  0.00  0.00    -0.001 A 
ATOM      4  C   UNL A   1     -22.293   0.710  28.559  0.00  0.00    -0.002 A 
ATOM      5  C   UNL A   1     -22.390   1.753  27.629  0.00  0.00    +0.011 A 
ATOM      6  C   UNL A   1     -23.335   1.800  26.717  0.00  0.00    +0.058 A 
ATOM      7 CL   UNL A   1     -23.441   2.968  25.509  0.00  0.00    -0.082 Cl
ENDROOT
BRANCH   3   8
ATOM      8  C   UNL A   1     -23.336  -1.495  29.340  0.00  0.00    +0.139 C 
BRANCH   8   9
ATOM      9  N   UNL A   1     -23.459  -2.665  28.895  0.00  0.00    -0.232 NA
BRANCH   9  10
ATOM     10  C   UNL A   1     -24.269  -3.498  29.201  0.00  0.00    +0.081 C 
ATOM     11  C   UNL A   1     -24.273  -4.820  28.651  0.00  0.00    +0.019 C 
ENDBRANCH   9  10
ENDBRANCH   8   9
ENDBRANCH   3   8
TORSDOF 3
ENDMDL
ENDMDL
