REMARK  Name = No_118-gen_results/8p0m/2024-11-27-11-27-31/
REMARK  0 active torsions:
REMARK  status: ('A' for Active; 'I' for Inactive)
REMARK                            x       y       z     vdW  Elec       q    Type
REMARK                         _______ _______ _______ _____ _____    ______ ____
ROOT
ATOM      1  C   UNL A   1     -28.016  -0.814  28.878  0.00  0.00    +0.032 C 
ATOM      2  C   UNL A   1     -27.064  -0.119  28.608  0.00  0.00    -0.009 A 
ATOM      3  C   UNL A   1     -26.972   0.714  27.506  0.00  0.00    +0.043 A 
ATOM      4  C   UNL A   1     -25.820   1.491  27.116  0.00  0.00    -0.009 A 
ATOM      5  C   UNL A   1     -24.858   1.342  27.601  0.00  0.00    -0.003 A 
ATOM      6  C   UNL A   1     -24.622   0.529  28.814  0.00  0.00    -0.001 A 
ATOM      7  C   UNL A   1     -25.734  -0.181  29.191  0.00  0.00    -0.003 A 
ATOM      8  C   UNL A   1     -29.213  -0.095  29.383  0.00  0.00    +0.032 C 
ATOM      9  C   UNL A   1     -29.539   0.929  28.908  0.00  0.00    -0.008 A 
ATOM     10  C   UNL A   1     -30.712   1.583  29.437  0.00  0.00    -0.003 A 
ATOM     11  C   UNL A   1     -31.113   2.895  29.021  0.00  0.00    -0.000 A 
ATOM     12  C   UNL A   1     -30.341   3.470  27.978  0.00  0.00    +0.001 A 
ATOM     13  C   UNL A   1     -29.265   2.875  27.420  0.00  0.00    +0.015 A 
ATOM     14  C   UNL A   1     -28.824   1.627  27.913  0.00  0.00    +0.048 A 
ATOM     15  N   UNL A   1     -27.707   1.169  27.347  0.00  0.00    -0.288 N 
ATOM     16  C   UNL A   1     -27.794   1.288  25.880  0.00  0.00    +0.096 C 
ATOM     17  C   UNL A   1     -26.619   1.294  25.253  0.00  0.00    +0.026 C 
ATOM     18  C   UNL A   1     -25.734   1.820  25.710  0.00  0.00    +0.029 C 
ENDROOT
TORSDOF 0
