MODEL 1180
MODEL 1
REMARK VINA RESULT:    -6.051      0.000      0.000
REMARK INTER + INTRA:          -6.577
REMARK INTER:                  -6.405
REMARK INTRA:                  -0.172
REMARK UNBOUND:                -0.172
REMARK  Name = No_1180-gen_results/8p0m/2024-11-27-11-27-31/
REMARK  1 active torsions:
REMARK  status: ('A' for Active; 'I' for Inactive)
REMARK    1  A    between atoms: C_1  and  C_2
REMARK                            x       y       z     vdW  Elec       q    Type
REMARK                         _______ _______ _______ _____ _____    ______ ____
ROOT
ATOM      1  C   UNL A   1     -23.260   1.833  26.100  0.00  0.00    +0.044 A 
ATOM      2  C   UNL A   1     -24.242   0.898  26.377  0.00  0.00    +0.001 A 
ATOM      3  C   UNL A   1     -24.268  -0.007  27.501  0.00  0.00    +0.006 A 
ATOM      4  C   UNL A   1     -23.198   0.033  28.426  0.00  0.00    +0.058 A 
ATOM      5  C   UNL A   1     -22.179   1.016  28.182  0.00  0.00    +0.005 A 
ATOM      6  C   UNL A   1     -22.187   1.882  27.125  0.00  0.00    +0.001 A 
ATOM      7  C   UNL A   1     -23.122  -0.820  29.570  0.00  0.00    +0.279 A 
ATOM      8  N   UNL A   1     -23.805  -1.839  29.683  0.00  0.00    -0.206 NA
ATOM      9  O   UNL A   1     -22.154  -0.669  30.455  0.00  0.00    -0.265 OA
ATOM     10  C   UNL A   1     -25.160  -1.958  29.222  0.00  0.00    +0.102 A 
ATOM     11  C   UNL A   1     -25.288  -0.920  27.641  0.00  0.00    +0.021 A 
ENDROOT
BRANCH   1  12
ATOM     12  C   UNL A   1     -23.292   2.628  25.190  0.00  0.00    +0.341 C 
ATOM     13  F   UNL A   1     -22.230   2.830  24.658  0.00  0.00    -0.193 F 
ATOM     14  F   UNL A   1     -23.835   3.873  25.625  0.00  0.00    -0.193 F 
ENDBRANCH   1  12
TORSDOF 1
ENDMDL
ENDMDL
