REMARK  Name = No_1180-gen_results/8p0m/2024-11-27-11-27-31/
REMARK  1 active torsions:
REMARK  status: ('A' for Active; 'I' for Inactive)
REMARK    1  A    between atoms: C_1  and  C_2
REMARK                            x       y       z     vdW  Elec       q    Type
REMARK                         _______ _______ _______ _____ _____    ______ ____
ROOT
ATOM      1  C   UNL A   1     -27.064  -0.119  28.608  0.00  0.00    +0.044 A 
ATOM      2  C   UNL A   1     -26.972   0.714  27.506  0.00  0.00    +0.001 A 
ATOM      3  C   UNL A   1     -25.820   1.491  27.116  0.00  0.00    +0.006 A 
ATOM      4  C   UNL A   1     -24.656   1.424  27.918  0.00  0.00    +0.058 A 
ATOM      5  C   UNL A   1     -24.711   0.542  29.051  0.00  0.00    +0.005 A 
ATOM      6  C   UNL A   1     -25.804  -0.206  29.388  0.00  0.00    +0.001 A 
ATOM      7  C   UNL A   1     -23.463   2.153  27.626  0.00  0.00    +0.279 A 
ATOM      8  N   UNL A   1     -23.444   3.107  26.846  0.00  0.00    -0.206 NA
ATOM      9  O   UNL A   1     -22.373   1.974  28.350  0.00  0.00    -0.265 OA
ATOM     10  C   UNL A   1     -24.228   3.184  25.646  0.00  0.00    +0.102 A 
ATOM     11  C   UNL A   1     -25.871   2.314  26.015  0.00  0.00    +0.021 A 
ENDROOT
BRANCH   1  12
ATOM     12  C   UNL A   1     -28.016  -0.814  28.878  0.00  0.00    +0.341 C 
ATOM     13  F   UNL A   1     -28.945  -0.715  28.117  0.00  0.00    -0.193 F 
ATOM     14  F   UNL A   1     -28.474  -0.553  30.203  0.00  0.00    -0.193 F 
ENDBRANCH   1  12
TORSDOF 1
