MODEL 1181
MODEL 1
REMARK VINA RESULT:    -4.392      0.000      0.000
REMARK INTER + INTRA:          -4.392
REMARK INTER:                  -4.392
REMARK INTRA:                   0.000
REMARK UNBOUND:                 0.000
REMARK  Name = No_1181-gen_results/8p0m/2024-11-27-11-27-31/
REMARK  0 active torsions:
REMARK  status: ('A' for Active; 'I' for Inactive)
REMARK                            x       y       z     vdW  Elec       q    Type
REMARK                         _______ _______ _______ _____ _____    ______ ____
ROOT
ATOM      1  C   UNL A   1     -24.967  -5.413  28.985  0.00  0.00    +0.000 A 
ATOM      2  C   UNL A   1     -24.044  -4.747  28.574  0.00  0.00    +0.000 A 
ATOM      3  C   UNL A   1     -24.006  -3.372  28.776  0.00  0.00    +0.000 A 
ATOM      4  C   UNL A   1     -24.802  -2.794  29.229  0.00  0.00    +0.000 A 
ATOM      5  C   UNL A   1     -26.042  -3.422  29.758  0.00  0.00    +0.000 A 
ATOM      6  C   UNL A   1     -26.094  -4.724  29.592  0.00  0.00    +0.000 A 
ENDROOT
TORSDOF 0
ENDMDL
ENDMDL
