REMARK  Name = outputs/IAG933/test6/raw/output_1181_IAG933_linker_design_.xyz
REMARK  14 active torsions:
REMARK  status: ('A' for Active; 'I' for Inactive)
REMARK    1  A    between atoms: C_1  and  C_2
REMARK    2  A    between atoms: C_1  and  C_8
REMARK    3  A    between atoms: C_1  and  N_33
REMARK    4  A    between atoms: C_9  and  C_30
REMARK    5  A    between atoms: C_13  and  C_28
REMARK    6  A    between atoms: C_14  and  C_15
REMARK    7  A    between atoms: C_21  and  O_22
REMARK    8  A    between atoms: O_22  and  C_23
REMARK    9  A    between atoms: C_23  and  C_24
REMARK   10  A    between atoms: C_29  and  N_33
REMARK   11  A    between atoms: C_30  and  C_32
REMARK   12  A    between atoms: C_31  and  C_41
REMARK   13  A    between atoms: C_32  and  C_36
REMARK   14  A    between atoms: C_36  and  C_41
REMARK                            x       y       z     vdW  Elec       q    Type
REMARK                         _______ _______ _______ _____ _____    ______ ____
ROOT
ATOM      1  C   UNL A   1     -24.328   1.417  27.038  0.00  0.00    +0.019 C 
ATOM      2  C   UNL A   1     -24.155   0.783  28.289  0.00  0.00    +0.082 C 
ATOM      3  N   UNL A   1     -22.628   0.589  30.132  0.00  0.00    -0.127 NA
ATOM      4  C   UNL A   1     -22.886   0.947  28.849  0.00  0.00    +0.104 C 
ATOM      5  C   UNL A   1     -21.981   1.954  26.815  0.00  0.00    +0.002 C 
ATOM      6  C   UNL A   1     -23.263   1.916  26.264  0.00  0.00    +0.001 C 
ATOM      7  C   UNL A   1     -21.807   1.481  28.107  0.00  0.00    +0.019 C 
ENDROOT
BRANCH   1   8
ATOM      8  C   UNL A   1     -25.688   1.614  26.461  0.00  0.00    +0.039 C 
ATOM      9  C   UNL A   1     -26.250   2.920  26.395  0.00  0.00    +0.077 C 
ATOM     10  C   UNL A   1     -27.438   3.091  25.645  0.00  0.00    +0.107 C 
ATOM     11  N   UNL A   1     -28.075   2.089  25.003  0.00  0.00    -0.208 NA
ATOM     12  C   UNL A   1     -27.543   0.849  25.079  0.00  0.00    +0.253 C 
ATOM     13  C   UNL A   1     -26.354   0.576  25.777  0.00  0.00    +0.193 C 
ATOM     14  F   UNL A   1     -25.860  -0.681  25.795  0.00  0.00    -0.199 F 
BRANCH   9  15
ATOM     15  C   UNL A   1     -25.642   4.093  27.123  0.00  0.00    +0.266 C 
ATOM     16  N   UNL A   1     -25.614   5.252  26.449  0.00  0.00    -0.200 NA
ATOM     17  C   UNL A   1     -25.026   6.479  26.963  0.00  0.00    +0.139 C 
ATOM     18  O   UNL A   1     -25.143   3.966  28.243  0.00  0.00    -0.268 OA
ENDBRANCH   9  15
BRANCH  12  19
ATOM     19  O   UNL A   1     -28.193  -0.208  24.477  0.00  0.00    -0.456 OA
BRANCH  19  20
ATOM     20  C   UNL A   1     -29.460   0.005  23.866  0.00  0.00    +0.243 C 
BRANCH  20  21
ATOM     21  C   UNL A   1     -30.065  -1.377  23.573  0.00  0.00    +0.229 C 
ATOM     22  O   UNL A   1     -30.729  -1.878  24.721  0.00  0.00    -0.216 OA
ENDBRANCH  20  21
ENDBRANCH  19  20
ENDBRANCH  12  19
ENDBRANCH   1   8
BRANCH   2  23
ATOM     23  N   UNL A   1     -25.206  -0.018  29.037  0.00  0.00    -0.232 NA
BRANCH  23  24
ATOM     24  C   UNL A   1     -24.855  -1.012  30.143  0.00  0.00    +0.131 C 
BRANCH  24  25
ATOM     25  C   UNL A   1     -24.973  -2.505  29.788  0.00  0.00    -0.001 C 
ATOM     26  C   UNL A   1     -23.906  -3.173  29.146  0.00  0.00    -0.003 C 
ATOM     27  C   UNL A   1     -23.989  -4.549  28.853  0.00  0.00    -0.000 C 
ATOM     28  C   UNL A   1     -25.137  -5.280  29.205  0.00  0.00    -0.000 C 
ATOM     29  C   UNL A   1     -26.232  -4.611  29.784  0.00  0.00    -0.000 C 
ATOM     30  C   UNL A   1     -26.155  -3.232  30.065  0.00  0.00    -0.003 C 
ENDBRANCH  24  25
BRANCH  24  31
ATOM     31  C   UNL A   1     -25.387  -0.679  31.571  0.00  0.00    +0.097 C 
ATOM     32  C   UNL A   1     -25.189   0.773  32.028  0.00  0.00    +0.019 C 
ATOM     33  C   UNL A   1     -25.336   0.684  33.544  0.00  0.00    +0.020 C 
ATOM     34  C   UNL A   1     -24.829  -0.715  33.905  0.00  0.00    +0.089 C 
ATOM     35  N   UNL A   1     -24.758  -1.481  32.646  0.00  0.00    -0.217 NA
BRANCH  32  36
ATOM     36  C   UNL A   1     -25.828   2.325  31.701  0.00  0.00    +0.002 C 
BRANCH  36  37
ATOM     37  C   UNL A   1     -26.165   3.489  32.745  0.00  0.00    +0.000 C 
BRANCH  37  38
ATOM     38  C   UNL A   1     -24.925   4.399  32.832  0.00  0.00    +0.002 C 
BRANCH  38  39
ATOM     39  C   UNL A   1     -25.038   5.341  31.613  0.00  0.00    +0.021 C 
BRANCH  39  40
ATOM     40  C   UNL A   1     -26.039   6.451  32.093  0.00  0.00    +0.109 C 
ATOM     41  N   UNL A   1     -25.510   7.231  33.099  0.00  0.00    -0.131 NA
ENDBRANCH  39  40
ENDBRANCH  38  39
ENDBRANCH  37  38
ENDBRANCH  36  37
ENDBRANCH  32  36
ENDBRANCH  24  31
ENDBRANCH  23  24
ENDBRANCH   2  23
TORSDOF 14
