MODEL 1182
MODEL 1
REMARK VINA RESULT:    -6.079      0.000      0.000
REMARK INTER + INTRA:          -7.864
REMARK INTER:                  -7.500
REMARK INTRA:                  -0.364
REMARK UNBOUND:                -0.364
REMARK  Name = No_1182-gen_results/8p0m/2024-11-27-11-27-31/
REMARK  4 active torsions:
REMARK  status: ('A' for Active; 'I' for Inactive)
REMARK    1  A    between atoms: C_1  and  C_2
REMARK    2  A    between atoms: C_1  and  C_3
REMARK    3  A    between atoms: C_2  and  C_6
REMARK    4  A    between atoms: C_9  and  C_13
REMARK                            x       y       z     vdW  Elec       q    Type
REMARK                         _______ _______ _______ _____ _____    ______ ____
ROOT
ATOM      1  C   UNL A   1     -24.026  -1.761  29.408  0.00  0.00    -0.019 A 
ATOM      2  C   UNL A   1     -24.624  -1.059  28.419  0.00  0.00    -0.004 A 
ATOM      3  C   UNL A   1     -24.313  -0.175  27.873  0.00  0.00    +0.004 A 
ATOM      4  C   UNL A   1     -23.039   0.571  28.162  0.00  0.00    +0.059 A 
ATOM      5  C   UNL A   1     -22.275  -0.044  29.135  0.00  0.00    +0.004 A 
ATOM      6  C   UNL A   1     -22.700  -1.247  29.724  0.00  0.00    -0.004 A 
ENDROOT
BRANCH   4   7
ATOM      7  C   UNL A   1     -22.604   1.817  27.519  0.00  0.00    +0.297 C 
ATOM      8  N   UNL A   1     -23.542   2.783  27.387  0.00  0.00    -0.102 NA
ATOM      9  O   UNL A   1     -21.598   1.882  26.809  0.00  0.00    -0.264 OA
ENDBRANCH   4   7
BRANCH   1  10
ATOM     10  C   UNL A   1     -24.433  -3.117  29.777  0.00  0.00    +0.072 C 
BRANCH  10  11
ATOM     11  C   UNL A   1     -24.255  -3.831  29.023  0.00  0.00    +0.255 C 
ATOM     12  F   UNL A   1     -23.500  -3.928  28.226  0.00  0.00    -0.226 F 
BRANCH  11  13
ATOM     13  C   UNL A   1     -25.220  -5.093  29.128  0.00  0.00    +0.343 C 
ATOM     14  O   UNL A   1     -26.156  -4.832  29.724  0.00  0.00    -0.256 OA
ATOM     15  F   UNL A   1     -24.926  -6.230  28.601  0.00  0.00    -0.161 F 
ENDBRANCH  11  13
ENDBRANCH  10  11
ENDBRANCH   1  10
TORSDOF 4
ENDMDL
ENDMDL
