MODEL 1183
MODEL 1
REMARK VINA RESULT:    -6.919      0.000      0.000
REMARK INTER + INTRA:          -8.187
REMARK INTER:                  -7.728
REMARK INTRA:                  -0.459
REMARK UNBOUND:                -0.459
REMARK  Name = No_1183-gen_results/8p0m/2024-11-27-11-27-31/
REMARK  2 active torsions:
REMARK  status: ('A' for Active; 'I' for Inactive)
REMARK    1  A    between atoms: C_4  and  C_8
REMARK    2  A    between atoms: C_8  and  C_9
REMARK                            x       y       z     vdW  Elec       q    Type
REMARK                         _______ _______ _______ _____ _____    ______ ____
ROOT
ATOM      1  C   UNL A   1     -22.567   1.478  27.389  0.00  0.00    +0.011 A 
ATOM      2  C   UNL A   1     -23.252   1.531  26.590  0.00  0.00    +0.058 A 
ATOM      3  C   UNL A   1     -22.945   0.534  28.508  0.00  0.00    -0.003 A 
ATOM      4  C   UNL A   1     -24.074  -0.299  28.358  0.00  0.00    -0.018 A 
ATOM      5  C   UNL A   1     -24.453   0.768  26.181  0.00  0.00    +0.011 A 
ATOM      6  C   UNL A   1     -24.827  -0.116  27.183  0.00  0.00    -0.003 A 
ATOM      7 CL   UNL A   1     -22.795   2.663  25.233  0.00  0.00    -0.082 Cl
ENDROOT
BRANCH   4   8
ATOM      8  C   UNL A   1     -24.463  -1.211  29.404  0.00  0.00    +0.053 C 
BRANCH   8   9
ATOM      9  C   UNL A   1     -24.853  -2.483  29.144  0.00  0.00    -0.018 A 
ATOM     10  C   UNL A   1     -25.929  -3.058  29.934  0.00  0.00    -0.004 A 
ATOM     11  C   UNL A   1     -26.278  -4.405  29.699  0.00  0.00    -0.000 A 
ATOM     12  C   UNL A   1     -25.310  -5.255  29.147  0.00  0.00    -0.000 A 
ATOM     13  C   UNL A   1     -24.101  -4.753  28.615  0.00  0.00    -0.000 A 
ATOM     14  C   UNL A   1     -23.811  -3.403  28.708  0.00  0.00    -0.004 A 
ENDBRANCH   8   9
ENDBRANCH   4   8
TORSDOF 2
ENDMDL
ENDMDL
