MODEL 1184
MODEL 1
REMARK VINA RESULT:    -7.759      0.000      0.000
REMARK INTER + INTRA:          -8.712
REMARK INTER:                  -8.212
REMARK INTRA:                  -0.500
REMARK UNBOUND:                -0.500
REMARK  Name = No_1184-gen_results/8p0m/2024-11-27-11-27-31/
REMARK  1 active torsions:
REMARK  status: ('A' for Active; 'I' for Inactive)
REMARK    1  A    between atoms: C_1  and  C_2
REMARK                            x       y       z     vdW  Elec       q    Type
REMARK                         _______ _______ _______ _____ _____    ______ ____
ROOT
ATOM      1  C   UNL A   1     -24.171  -1.797  28.762  0.00  0.00    +0.000 A 
ATOM      2  C   UNL A   1     -22.942  -1.398  29.250  0.00  0.00    +0.000 A 
ATOM      3  C   UNL A   1     -22.399  -0.163  28.903  0.00  0.00    +0.000 A 
ATOM      4  C   UNL A   1     -22.967   0.663  27.847  0.00  0.00    +0.000 A 
ATOM      5  C   UNL A   1     -24.186   0.212  27.316  0.00  0.00    +0.000 A 
ATOM      6  C   UNL A   1     -24.755  -0.917  27.822  0.00  0.00    +0.000 A 
ATOM      7  C   UNL A   1     -22.233   1.815  27.326  0.00  0.00    +0.000 A 
ATOM      8  C   UNL A   1     -22.637   2.354  26.075  0.00  0.00    +0.000 A 
ATOM      9  C   UNL A   1     -23.910   2.047  25.596  0.00  0.00    +0.000 A 
ATOM     10  C   UNL A   1     -24.669   0.928  26.151  0.00  0.00    +0.000 A 
ENDROOT
BRANCH   1  11
ATOM     11  C   UNL A   1     -24.901  -2.570  29.339  0.00  0.00    +0.000 A 
ATOM     12  C   UNL A   1     -24.793  -3.974  28.838  0.00  0.00    +0.000 A 
ATOM     13  C   UNL A   1     -25.609  -5.023  29.414  0.00  0.00    +0.000 A 
ATOM     14  C   UNL A   1     -26.743  -4.591  30.015  0.00  0.00    +0.000 A 
ATOM     15  C   UNL A   1     -27.118  -3.271  30.207  0.00  0.00    +0.000 A 
ATOM     16  C   UNL A   1     -26.249  -2.270  29.770  0.00  0.00    +0.000 A 
ENDBRANCH   1  11
TORSDOF 1
ENDMDL
ENDMDL
