REMARK  Name = outputs/IAG933/test6/raw/output_1184_IAG933_linker_design_.xyz
REMARK  16 active torsions:
REMARK  status: ('A' for Active; 'I' for Inactive)
REMARK    1  A    between atoms: C_1  and  C_2
REMARK    2  A    between atoms: C_1  and  C_8
REMARK    3  A    between atoms: C_1  and  N_35
REMARK    4  A    between atoms: C_13  and  C_33
REMARK    5  A    between atoms: C_14  and  C_15
REMARK    6  A    between atoms: C_21  and  O_22
REMARK    7  A    between atoms: O_22  and  C_23
REMARK    8  A    between atoms: C_23  and  C_24
REMARK    9  A    between atoms: C_28  and  C_30
REMARK   10  A    between atoms: C_28  and  C_36
REMARK   11  A    between atoms: C_28  and  N_40
REMARK   12  A    between atoms: C_29  and  N_40
REMARK   13  A    between atoms: C_30  and  C_41
REMARK   14  A    between atoms: C_33  and  C_34
REMARK   15  A    between atoms: C_34  and  O_44
REMARK   16  A    between atoms: C_36  and  C_39
REMARK                            x       y       z     vdW  Elec       q    Type
REMARK                         _______ _______ _______ _____ _____    ______ ____
ROOT
ATOM      1  C   UNL A   1     -26.002   0.398  28.727  0.00  0.00    +0.148 C 
ATOM      2  C   UNL A   1     -24.977   1.068  27.739  0.00  0.00    +0.107 C 
ATOM      3  N   UNL A   1     -24.850  -0.009  28.929  0.00  0.00    -0.253 NA
ENDROOT
BRANCH   2   4
ATOM      4  C   UNL A   1     -25.688   1.614  26.461  0.00  0.00    +0.088 C 
ATOM      5  C   UNL A   1     -26.250   2.920  26.395  0.00  0.00    +0.056 C 
ATOM      6  C   UNL A   1     -27.438   3.091  25.645  0.00  0.00    +0.102 C 
ATOM      7  N   UNL A   1     -28.075   2.089  25.003  0.00  0.00    -0.212 NA
ATOM      8  C   UNL A   1     -27.543   0.849  25.079  0.00  0.00    +0.234 C 
ATOM      9  C   UNL A   1     -26.354   0.576  25.777  0.00  0.00    +0.241 C 
ATOM     10  F   UNL A   1     -25.860  -0.681  25.795  0.00  0.00    -0.227 F 
BRANCH   5  11
ATOM     11  C   UNL A   1     -25.642   4.093  27.123  0.00  0.00    +0.263 C 
ATOM     12  N   UNL A   1     -25.614   5.252  26.449  0.00  0.00    -0.200 NA
ATOM     13  C   UNL A   1     -25.026   6.479  26.963  0.00  0.00    +0.139 C 
ATOM     14  O   UNL A   1     -25.143   3.966  28.243  0.00  0.00    -0.269 OA
ENDBRANCH   5  11
BRANCH   8  15
ATOM     15  O   UNL A   1     -28.193  -0.208  24.477  0.00  0.00    -0.459 OA
BRANCH  15  16
ATOM     16  C   UNL A   1     -29.460   0.005  23.866  0.00  0.00    +0.242 C 
BRANCH  16  17
ATOM     17  C   UNL A   1     -30.065  -1.377  23.573  0.00  0.00    +0.229 C 
ATOM     18  O   UNL A   1     -30.729  -1.878  24.721  0.00  0.00    -0.216 OA
ENDBRANCH  16  17
ENDBRANCH  15  16
ENDBRANCH   8  15
ENDBRANCH   2   4
BRANCH   2  19
ATOM     19  C   UNL A   1     -23.552   1.133  26.954  0.00  0.00    +0.132 C 
ATOM     20  C   UNL A   1     -23.226   2.043  25.628  0.00  0.00    +0.034 C 
BRANCH  19  22
ATOM     21  C   UNL A   1     -21.342   1.660  27.523  0.00  0.00    +0.174 C 
ATOM     22  O   UNL A   1     -22.738   1.787  27.896  0.00  0.00    -0.352 OA
ENDBRANCH  19  22
ENDBRANCH   2  19
BRANCH   1  23
ATOM     23  N   UNL A   1     -27.440  -0.018  28.942  0.00  0.00    -0.203 NA
BRANCH  23  24
ATOM     24  C   UNL A   1     -28.965   0.565  28.960  0.00  0.00    +0.081 C 
BRANCH  24  25
ATOM     25  C   UNL A   1     -29.684  -0.521  28.172  0.00  0.00    +0.053 C 
BRANCH  25  27
ATOM     26  O   UNL A   1     -31.993   0.409  28.054  0.00  0.00    -0.220 OA
ATOM     27  C   UNL A   1     -30.883  -0.097  27.294  0.00  0.00    +0.184 C 
ENDBRANCH  25  27
ENDBRANCH  24  25
BRANCH  24  28
ATOM     28  C   UNL A   1     -29.295   0.843  30.423  0.00  0.00    +0.044 C 
BRANCH  28  31
ATOM     29  C   UNL A   1     -28.697   3.269  29.966  0.00  0.00    -0.004 C 
ATOM     30  C   UNL A   1     -28.814   2.537  32.255  0.00  0.00    -0.004 C 
ATOM     31  C   UNL A   1     -28.928   2.240  30.885  0.00  0.00    -0.021 C 
ATOM     32  C   UNL A   1     -28.183   4.811  31.762  0.00  0.00    -0.000 C 
ATOM     33  C   UNL A   1     -28.439   3.805  32.704  0.00  0.00    -0.000 C 
ATOM     34  C   UNL A   1     -28.316   4.542  30.396  0.00  0.00    -0.000 C 
ENDBRANCH  28  31
ENDBRANCH  24  28
ENDBRANCH  23  24
ENDBRANCH   1  23
BRANCH   3  35
ATOM     35  C   UNL A   1     -24.855  -1.012  30.143  0.00  0.00    +0.097 C 
BRANCH  35  36
ATOM     36  C   UNL A   1     -24.973  -2.505  29.788  0.00  0.00    -0.006 C 
ATOM     37  C   UNL A   1     -23.906  -3.173  29.146  0.00  0.00    -0.003 C 
ATOM     38  C   UNL A   1     -23.989  -4.549  28.853  0.00  0.00    -0.000 C 
ATOM     39  C   UNL A   1     -25.137  -5.280  29.205  0.00  0.00    -0.000 C 
ATOM     40  C   UNL A   1     -26.232  -4.611  29.784  0.00  0.00    -0.000 C 
ATOM     41  C   UNL A   1     -26.155  -3.232  30.065  0.00  0.00    -0.003 C 
ENDBRANCH  35  36
BRANCH  35  42
ATOM     42  C   UNL A   1     -25.387  -0.679  31.571  0.00  0.00    +0.092 C 
ATOM     43  C   UNL A   1     -25.189   0.773  32.028  0.00  0.00    +0.021 C 
ATOM     44  C   UNL A   1     -25.336   0.684  33.544  0.00  0.00    +0.020 C 
ATOM     45  C   UNL A   1     -24.829  -0.715  33.905  0.00  0.00    +0.089 C 
ATOM     46  N   UNL A   1     -24.758  -1.481  32.646  0.00  0.00    -0.218 NA
ENDBRANCH  35  42
ENDBRANCH   3  35
TORSDOF 16
