MODEL 1185
MODEL 1
REMARK VINA RESULT:    -7.800      0.000      0.000
REMARK INTER + INTRA:         -14.775
REMARK INTER:                 -11.448
REMARK INTRA:                  -3.327
REMARK UNBOUND:                -3.327
REMARK  Name = No_1185-gen_results/8p0m/2024-11-27-11-27-31/
REMARK  8 active torsions:
REMARK  status: ('A' for Active; 'I' for Inactive)
REMARK    1  A    between atoms: C_2  and  C_14
REMARK    2  A    between atoms: C_3  and  C_7
REMARK    3  A    between atoms: C_6  and  C_11
REMARK    4  A    between atoms: C_14  and  O_16
REMARK    5  A    between atoms: O_16  and  C_17
REMARK    6  A    between atoms: C_17  and  C_18
REMARK    7  A    between atoms: C_21  and  C_33
REMARK    8  A    between atoms: C_33  and  C_34
REMARK                            x       y       z     vdW  Elec       q    Type
REMARK                         _______ _______ _______ _____ _____    ______ ____
ROOT
ATOM      1  C   UNL A   1     -28.452   0.626  28.023  0.00  0.00    +0.017 A 
ATOM      2  C   UNL A   1     -27.186   0.437  27.527  0.00  0.00    -0.021 A 
ATOM      3  C   UNL A   1     -27.180   0.346  26.203  0.00  0.00    -0.010 A 
ATOM      4  C   UNL A   1     -28.247   0.718  25.510  0.00  0.00    -0.025 A 
ATOM      5  C   UNL A   1     -29.542   0.806  26.045  0.00  0.00    -0.005 A 
ATOM      6  C   UNL A   1     -29.578   0.839  27.433  0.00  0.00    -0.001 A 
ATOM      7  C   UNL A   1     -25.859   0.223  25.454  0.00  0.00    +0.141 C 
ATOM      8 CL   UNL A   1     -25.410  -0.378  24.304  0.00  0.00    -0.104 Cl
ATOM      9  C   UNL A   1     -24.724   0.881  26.322  0.00  0.00    +0.074 A 
ATOM     10  N   UNL A   1     -23.776   1.214  25.846  0.00  0.00    -0.247 NA
ATOM     11  C   UNL A   1     -22.873   1.961  26.469  0.00  0.00    +0.099 A 
ATOM     12  C   UNL A   1     -23.096   2.244  27.790  0.00  0.00    +0.020 A 
ATOM     13  C   UNL A   1     -24.262   1.810  28.440  0.00  0.00    -0.001 A 
ATOM     14  C   UNL A   1     -25.140   1.112  27.679  0.00  0.00    -0.003 A 
ATOM     15  C   UNL A   1     -26.504   1.186  28.140  0.00  0.00    +0.053 C 
ENDROOT
BRANCH   1  16
ATOM     16  C   UNL A   1     -28.478   0.325  29.497  0.00  0.00    +0.235 C 
BRANCH  16  17
ATOM     17  O   UNL A   1     -28.544  -0.891  29.760  0.00  0.00    -0.440 OA
BRANCH  17  18
ATOM     18  C   UNL A   1     -27.866  -1.386  30.887  0.00  0.00    +0.342 C 
ATOM     19  O   UNL A   1     -28.388  -1.587  31.817  0.00  0.00    -0.245 OA
BRANCH  18  21
ATOM     20  C   UNL A   1     -25.561  -1.084  30.930  0.00  0.00    +0.010 A 
ATOM     21  C   UNL A   1     -26.300  -1.735  30.555  0.00  0.00    +0.076 A 
ATOM     22  C   UNL A   1     -24.204  -1.401  30.585  0.00  0.00    +0.072 A 
ATOM     23  C   UNL A   1     -23.853  -2.535  29.971  0.00  0.00    +0.010 A 
ATOM     24  C   UNL A   1     -26.151  -3.021  29.888  0.00  0.00    +0.013 A 
ATOM     25  C   UNL A   1     -24.901  -3.340  29.583  0.00  0.00    +0.080 A 
BRANCH  22  26
ATOM     26  C   UNL A   1     -23.118  -0.404  31.019  0.00  0.00    +0.419 C 
ATOM     27  F   UNL A   1     -22.370  -1.139  31.950  0.00  0.00    -0.166 F 
ATOM     28  F   UNL A   1     -23.566   0.641  31.641  0.00  0.00    -0.166 F 
ATOM     29  F   UNL A   1     -22.217  -0.115  30.052  0.00  0.00    -0.166 F 
ENDBRANCH  22  26
BRANCH  25  30
ATOM     30  C   UNL A   1     -24.599  -4.632  28.895  0.00  0.00    +0.388 C 
ATOM     31  O   UNL A   1     -25.362  -5.549  28.959  0.00  0.00    -0.241 OA
ATOM     32  O   UNL A   1     -23.537  -4.610  28.149  0.00  0.00    -0.241 OA
ENDBRANCH  25  30
ENDBRANCH  18  21
ENDBRANCH  17  18
ENDBRANCH  16  17
ENDBRANCH   1  16
BRANCH   4  33
ATOM     33  C   UNL A   1     -28.260   0.476  24.014  0.00  0.00    +0.026 C 
BRANCH  33  34
ATOM     34  C   UNL A   1     -29.177  -0.405  23.510  0.00  0.00    +0.005 C 
ATOM     35  C   UNL A   1     -28.947  -1.694  23.456  0.00  0.00    +0.000 C 
ENDBRANCH  33  34
ENDBRANCH   4  33
TORSDOF 8
ENDMDL
ENDMDL
