REMARK  Name = No_1185-gen_results/8p0m/2024-11-27-11-27-31/
REMARK  8 active torsions:
REMARK  status: ('A' for Active; 'I' for Inactive)
REMARK    1  A    between atoms: C_2  and  C_14
REMARK    2  A    between atoms: C_3  and  C_7
REMARK    3  A    between atoms: C_6  and  C_11
REMARK    4  A    between atoms: C_14  and  O_16
REMARK    5  A    between atoms: O_16  and  C_17
REMARK    6  A    between atoms: C_17  and  C_18
REMARK    7  A    between atoms: C_21  and  C_33
REMARK    8  A    between atoms: C_33  and  C_34
REMARK                            x       y       z     vdW  Elec       q    Type
REMARK                         _______ _______ _______ _____ _____    ______ ____
ROOT
ATOM      1  C   UNL A   1     -29.916  -4.933  30.006  0.00  0.00    +0.017 A 
ATOM      2  C   UNL A   1     -31.081  -4.447  30.544  0.00  0.00    -0.021 A 
ATOM      3  C   UNL A   1     -32.127  -4.688  29.764  0.00  0.00    -0.010 A 
ATOM      4  C   UNL A   1     -32.025  -5.564  28.774  0.00  0.00    -0.025 A 
ATOM      5  C   UNL A   1     -30.809  -5.959  28.194  0.00  0.00    -0.005 A 
ATOM      6  C   UNL A   1     -29.693  -5.660  28.965  0.00  0.00    -0.001 A 
ATOM      7  C   UNL A   1     -33.527  -4.306  30.226  0.00  0.00    +0.141 C 
ATOM      8 CL   UNL A   1     -34.698  -3.889  29.642  0.00  0.00    -0.104 Cl
ATOM      9  C   UNL A   1     -33.553  -4.296  31.799  0.00  0.00    +0.074 A 
ATOM     10  N   UNL A   1     -34.518  -4.388  32.344  0.00  0.00    -0.247 NA
ATOM     11  C   UNL A   1     -34.597  -4.599  33.652  0.00  0.00    +0.099 A 
ATOM     12  C   UNL A   1     -33.424  -4.607  34.358  0.00  0.00    +0.020 A 
ATOM     13  C   UNL A   1     -32.186  -4.457  33.714  0.00  0.00    -0.001 A 
ATOM     14  C   UNL A   1     -32.233  -4.315  32.367  0.00  0.00    -0.003 A 
ATOM     15  C   UNL A   1     -31.032  -4.739  31.690  0.00  0.00    +0.053 C 
ENDROOT
BRANCH   1  16
ATOM     16  C   UNL A   1     -28.731  -4.306  30.691  0.00  0.00    +0.235 C 
BRANCH  16  17
ATOM     17  O   UNL A   1     -28.299  -3.289  30.116  0.00  0.00    -0.440 OA
BRANCH  17  18
ATOM     18  C   UNL A   1     -28.252  -2.073  30.819  0.00  0.00    +0.342 C 
ATOM     19  O   UNL A   1     -28.000  -2.040  31.874  0.00  0.00    -0.245 OA
BRANCH  18  21
ATOM     20  C   UNL A   1     -28.016  -0.814  28.878  0.00  0.00    +0.010 A 
ATOM     21  C   UNL A   1     -28.469  -0.785  29.829  0.00  0.00    +0.076 A 
ATOM     22  C   UNL A   1     -28.196   0.348  28.055  0.00  0.00    +0.072 A 
ATOM     23  C   UNL A   1     -29.019   1.350  28.378  0.00  0.00    +0.010 A 
ATOM     24  C   UNL A   1     -29.411   0.180  30.378  0.00  0.00    +0.013 A 
ATOM     25  C   UNL A   1     -29.606   1.250  29.619  0.00  0.00    +0.080 A 
BRANCH  22  26
ATOM     26  C   UNL A   1     -27.448   0.380  26.712  0.00  0.00    +0.419 C 
ATOM     27  F   UNL A   1     -27.144   1.740  26.554  0.00  0.00    -0.166 F 
ATOM     28  F   UNL A   1     -28.166   0.036  25.689  0.00  0.00    -0.166 F 
ATOM     29  F   UNL A   1     -26.232  -0.211  26.745  0.00  0.00    -0.166 F 
ENDBRANCH  22  26
BRANCH  25  30
ATOM     30  C   UNL A   1     -30.547   2.324  30.059  0.00  0.00    +0.388 C 
ATOM     31  O   UNL A   1     -30.180   3.194  30.791  0.00  0.00    -0.241 OA
ATOM     32  O   UNL A   1     -31.712   2.287  29.488  0.00  0.00    -0.241 OA
ENDBRANCH  25  30
ENDBRANCH  18  21
ENDBRANCH  17  18
ENDBRANCH  16  17
ENDBRANCH   1  16
BRANCH   4  33
ATOM     33  C   UNL A   1     -33.192  -5.718  27.819  0.00  0.00    +0.026 C 
BRANCH  33  34
ATOM     34  C   UNL A   1     -33.149  -5.039  26.632  0.00  0.00    +0.005 C 
ATOM     35  C   UNL A   1     -33.740  -3.881  26.471  0.00  0.00    +0.000 C 
ENDBRANCH  33  34
ENDBRANCH   4  33
TORSDOF 8
