REMARK  Name = outputs/IAG933/test6/raw/output_1186_IAG933_linker_design_.xyz
REMARK  10 active torsions:
REMARK  status: ('A' for Active; 'I' for Inactive)
REMARK    1  A    between atoms: C_1  and  C_2
REMARK    2  A    between atoms: C_1  and  C_8
REMARK    3  A    between atoms: C_1  and  N_43
REMARK    4  A    between atoms: C_13  and  N_37
REMARK    5  A    between atoms: C_14  and  C_15
REMARK    6  A    between atoms: C_21  and  O_22
REMARK    7  A    between atoms: O_22  and  C_23
REMARK    8  A    between atoms: C_23  and  C_24
REMARK    9  A    between atoms: C_31  and  C_35
REMARK   10  A    between atoms: C_38  and  C_41
REMARK                            x       y       z     vdW  Elec       q    Type
REMARK                         _______ _______ _______ _____ _____    ______ ____
ROOT
ATOM      1  C   UNL A   1     -23.556   0.740  26.993  0.00  0.00    +0.172 C 
ATOM      2  C   UNL A   1     -25.444   1.149  28.817  0.00  0.00    +0.214 C 
ATOM      3  N   UNL A   1     -24.800   1.474  27.451  0.00  0.00    -0.277 N 
ATOM      4  C   UNL A   1     -23.423  -0.240  28.218  0.00  0.00    +0.127 C 
ATOM      5 CL   UNL A   1     -22.497   1.813  26.011  0.00  0.00    -0.091 Cl
ATOM      6  N   UNL A   1     -24.865  -0.211  28.886  0.00  0.00    -0.243 NA
ENDROOT
BRANCH   2   8
ATOM      7  C   UNL A   1     -27.143   2.974  31.110  0.00  0.00    +0.242 C 
ATOM      8  C   UNL A   1     -26.988   1.170  29.281  0.00  0.00    +0.262 C 
ATOM      9  C   UNL A   1     -29.025   2.920  29.546  0.00  0.00    +0.098 C 
ATOM     10  O   UNL A   1     -27.988   3.018  32.235  0.00  0.00    -0.334 OA
ATOM     11  N   UNL A   1     -27.704   2.384  29.916  0.00  0.00    -0.252 N 
ATOM     12  C   UNL A   1     -29.913   3.298  30.775  0.00  0.00    +0.054 C 
ATOM     13  O   UNL A   1     -27.535   0.056  29.179  0.00  0.00    -0.272 OA
ATOM     14  C   UNL A   1     -29.237   3.772  32.125  0.00  0.00    +0.146 C 
ENDBRANCH   2   8
BRANCH   3  15
ATOM     15  C   UNL A   1     -25.688   1.614  26.461  0.00  0.00    +0.071 C 
ATOM     16  C   UNL A   1     -26.250   2.920  26.395  0.00  0.00    +0.070 C 
ATOM     17  C   UNL A   1     -27.438   3.091  25.645  0.00  0.00    +0.160 C 
ATOM     18  N   UNL A   1     -28.075   2.089  25.003  0.00  0.00    -0.234 NA
ATOM     19  C   UNL A   1     -27.543   0.849  25.079  0.00  0.00    +0.235 C 
ATOM     20  C   UNL A   1     -26.354   0.576  25.777  0.00  0.00    +0.271 C 
ATOM     21  F   UNL A   1     -25.860  -0.681  25.795  0.00  0.00    -0.221 F 
BRANCH  16  22
ATOM     22  C   UNL A   1     -25.642   4.093  27.123  0.00  0.00    +0.264 C 
ATOM     23  N   UNL A   1     -25.614   5.252  26.449  0.00  0.00    -0.200 NA
ATOM     24  C   UNL A   1     -25.026   6.479  26.963  0.00  0.00    +0.139 C 
ATOM     25  O   UNL A   1     -25.143   3.966  28.243  0.00  0.00    -0.269 OA
ENDBRANCH  16  22
BRANCH  19  26
ATOM     26  O   UNL A   1     -28.193  -0.208  24.477  0.00  0.00    -0.459 OA
BRANCH  26  27
ATOM     27  C   UNL A   1     -29.460   0.005  23.866  0.00  0.00    +0.242 C 
BRANCH  27  28
ATOM     28  C   UNL A   1     -30.065  -1.377  23.573  0.00  0.00    +0.229 C 
ATOM     29  O   UNL A   1     -30.729  -1.878  24.721  0.00  0.00    -0.216 OA
ENDBRANCH  27  28
ENDBRANCH  26  27
ENDBRANCH  19  26
ENDBRANCH   3  15
BRANCH   4  31
ATOM     30  O   UNL A   1     -21.238   0.982  28.444  0.00  0.00    -0.219 OA
ATOM     31  C   UNL A   1     -22.329   0.358  29.188  0.00  0.00    +0.201 C 
ENDBRANCH   4  31
BRANCH   6  32
ATOM     32  C   UNL A   1     -24.855  -1.012  30.143  0.00  0.00    +0.098 C 
BRANCH  32  33
ATOM     33  C   UNL A   1     -24.973  -2.505  29.788  0.00  0.00    -0.006 C 
ATOM     34  C   UNL A   1     -23.906  -3.173  29.146  0.00  0.00    -0.003 C 
ATOM     35  C   UNL A   1     -23.989  -4.549  28.853  0.00  0.00    -0.000 C 
ATOM     36  C   UNL A   1     -25.137  -5.280  29.205  0.00  0.00    -0.000 C 
ATOM     37  C   UNL A   1     -26.232  -4.611  29.784  0.00  0.00    -0.000 C 
ATOM     38  C   UNL A   1     -26.155  -3.232  30.065  0.00  0.00    -0.003 C 
ENDBRANCH  32  33
BRANCH  32  39
ATOM     39  C   UNL A   1     -25.387  -0.679  31.571  0.00  0.00    +0.092 C 
ATOM     40  C   UNL A   1     -25.189   0.773  32.028  0.00  0.00    +0.021 C 
ATOM     41  C   UNL A   1     -25.336   0.684  33.544  0.00  0.00    +0.020 C 
ATOM     42  C   UNL A   1     -24.829  -0.715  33.905  0.00  0.00    +0.089 C 
ATOM     43  N   UNL A   1     -24.758  -1.481  32.646  0.00  0.00    -0.218 NA
ENDBRANCH  32  39
ENDBRANCH   6  32
TORSDOF 10
