MODEL 1186
MODEL 1
REMARK VINA RESULT:    -6.913      0.000      0.000
REMARK INTER + INTRA:         -11.862
REMARK INTER:                 -10.147
REMARK INTRA:                  -1.716
REMARK UNBOUND:                -1.716
REMARK  Name = No_1186-gen_results/8p0m/2024-11-27-11-27-31/
REMARK  8 active torsions:
REMARK  status: ('A' for Active; 'I' for Inactive)
REMARK    1  A    between atoms: C_2  and  C_18
REMARK    2  A    between atoms: C_3  and  C_9
REMARK    3  A    between atoms: N_6  and  C_8
REMARK    4  A    between atoms: C_8  and  C_21
REMARK    5  A    between atoms: C_12  and  C_14
REMARK    6  A    between atoms: C_21  and  C_22
REMARK    7  A    between atoms: C_22  and  C_26
REMARK    8  A    between atoms: C_23  and  C_24
REMARK                            x       y       z     vdW  Elec       q    Type
REMARK                         _______ _______ _______ _____ _____    ______ ____
ROOT
ATOM      1  C   UNL A   1     -23.278  -0.543  28.116  0.00  0.00    +0.017 C 
ATOM      2  C   UNL A   1     -22.660   0.185  28.562  0.00  0.00    +0.120 C 
ATOM      3  C   UNL A   1     -24.506  -0.928  28.912  0.00  0.00    +0.024 C 
ATOM      4  C   UNL A   1     -25.327   0.088  29.373  0.00  0.00    +0.022 C 
ATOM      5  C   UNL A   1     -23.227   1.602  28.929  0.00  0.00    +0.083 C 
ATOM      6  N   UNL A   1     -24.291   1.742  28.696  0.00  0.00    -0.272 NA
ATOM      7  C   UNL A   1     -25.436   1.338  29.212  0.00  0.00    +0.072 C 
ENDROOT
BRANCH   3   8
ATOM      8  C   UNL A   1     -24.908  -2.354  29.107  0.00  0.00    -0.022 A 
ATOM      9  C   UNL A   1     -24.153  -3.374  28.885  0.00  0.00    -0.004 A 
ATOM     10  C   UNL A   1     -26.301  -2.633  29.518  0.00  0.00    +0.002 A 
ATOM     11  C   UNL A   1     -26.724  -3.938  29.770  0.00  0.00    +0.080 A 
ATOM     12  C   UNL A   1     -24.537  -4.722  29.057  0.00  0.00    -0.000 A 
ATOM     13  C   UNL A   1     -25.848  -5.049  29.557  0.00  0.00    +0.007 A 
BRANCH  11  14
ATOM     14  C   UNL A   1     -28.058  -4.290  30.326  0.00  0.00    +0.388 C 
ATOM     15  O   UNL A   1     -28.233  -5.331  31.020  0.00  0.00    -0.241 OA
ATOM     16  O   UNL A   1     -28.931  -3.213  30.315  0.00  0.00    -0.241 OA
ENDBRANCH  11  14
ENDBRANCH   3   8
BRANCH   2  17
ATOM     17  C   UNL A   1     -21.125   0.133  28.515  0.00  0.00    +0.366 C 
ATOM     18  O   UNL A   1     -20.509   0.944  28.074  0.00  0.00    -0.246 OA
ATOM     19  O   UNL A   1     -20.674  -1.059  28.811  0.00  0.00    -0.246 OA
ENDBRANCH   2  17
BRANCH   6  20
ATOM     20  C   UNL A   1     -24.556   2.424  27.261  0.00  0.00    +0.077 C 
BRANCH  20  21
ATOM     21  C   UNL A   1     -26.009   2.619  27.009  0.00  0.00    +0.044 C 
BRANCH  21  22
ATOM     22  C   UNL A   1     -26.450   2.138  25.856  0.00  0.00    -0.021 C 
ATOM     23  C   UNL A   1     -27.303   2.285  25.132  0.00  0.00    -0.004 C 
BRANCH  23  24
ATOM     24  C   UNL A   1     -27.708   1.703  23.864  0.00  0.00    -0.000 C 
ATOM     25  C   UNL A   1     -28.768   0.865  23.700  0.00  0.00    -0.000 C 
ENDBRANCH  23  24
BRANCH  22  26
ATOM     26  C   UNL A   1     -25.477   1.015  25.279  0.00  0.00    -0.004 C 
ATOM     27  C   UNL A   1     -25.727  -0.327  25.493  0.00  0.00    -0.000 C 
ENDBRANCH  22  26
ENDBRANCH  21  22
ENDBRANCH  20  21
ENDBRANCH   6  20
TORSDOF 8
ENDMDL
ENDMDL
