MODEL 1188
MODEL 1
REMARK VINA RESULT:    -4.280      0.000      0.000
REMARK INTER + INTRA:          -4.280
REMARK INTER:                  -4.280
REMARK INTRA:                   0.000
REMARK UNBOUND:                 0.000
REMARK  Name = No_1188-gen_results/8p0m/2024-11-27-11-27-31/
REMARK  0 active torsions:
REMARK  status: ('A' for Active; 'I' for Inactive)
REMARK                            x       y       z     vdW  Elec       q    Type
REMARK                         _______ _______ _______ _____ _____    ______ ____
ROOT
ATOM      1  C   UNL A   1     -25.015  -2.703  29.392  0.00  0.00    +0.000 A 
ATOM      2  C   UNL A   1     -24.107  -3.211  28.775  0.00  0.00    +0.000 A 
ATOM      3  C   UNL A   1     -23.991  -4.572  28.568  0.00  0.00    +0.000 A 
ATOM      4  C   UNL A   1     -25.019  -5.414  29.077  0.00  0.00    +0.000 A 
ATOM      5  C   UNL A   1     -26.095  -4.787  29.608  0.00  0.00    +0.000 A 
ATOM      6  C   UNL A   1     -26.138  -3.474  29.730  0.00  0.00    +0.000 A 
ENDROOT
TORSDOF 0
ENDMDL
ENDMDL
