REMARK  Name = outputs/IAG933/test6/raw/output_1189_IAG933_linker_design_.xyz
REMARK  13 active torsions:
REMARK  status: ('A' for Active; 'I' for Inactive)
REMARK    1  A    between atoms: C_1  and  C_2
REMARK    2  A    between atoms: C_1  and  C_8
REMARK    3  A    between atoms: C_1  and  C_35
REMARK    4  A    between atoms: C_13  and  C_44
REMARK    5  A    between atoms: C_14  and  C_15
REMARK    6  A    between atoms: C_21  and  O_22
REMARK    7  A    between atoms: O_22  and  C_23
REMARK    8  A    between atoms: C_23  and  C_24
REMARK    9  A    between atoms: C_30  and  C_35
REMARK   10  A    between atoms: N_31  and  C_46
REMARK   11  A    between atoms: C_32  and  N_33
REMARK   12  A    between atoms: C_32  and  C_46
REMARK   13  A    between atoms: N_33  and  C_35
REMARK                            x       y       z     vdW  Elec       q    Type
REMARK                         _______ _______ _______ _____ _____    ______ ____
ROOT
ATOM      1  C   UNL A   1     -25.112  -0.071  29.093  0.00  0.00    +0.099 C 
ENDROOT
BRANCH   1   3
ATOM      2  O   UNL A   1     -23.006   2.663  25.798  0.00  0.00    -0.284 OA
ATOM      3  C   UNL A   1     -24.188   0.495  28.296  0.00  0.00    +0.011 C 
ATOM      4  C   UNL A   1     -23.230   1.811  26.727  0.00  0.00    +0.221 C 
ATOM      5  C   UNL A   1     -22.323   1.300  27.595  0.00  0.00    +0.190 C 
ATOM      6  O   UNL A   1     -22.214   0.049  29.706  0.00  0.00    -0.211 OA
ATOM      7  F   UNL A   1     -20.990   1.833  27.698  0.00  0.00    -0.203 F 
ATOM      8  C   UNL A   1     -24.470   1.284  27.111  0.00  0.00    +0.040 C 
ATOM      9  C   UNL A   1     -22.822   0.540  28.609  0.00  0.00    +0.224 C 
BRANCH   8  10
ATOM     10  C   UNL A   1     -25.688   1.614  26.461  0.00  0.00    +0.041 C 
ATOM     11  C   UNL A   1     -26.250   2.920  26.395  0.00  0.00    +0.077 C 
ATOM     12  C   UNL A   1     -27.438   3.091  25.645  0.00  0.00    +0.107 C 
ATOM     13  N   UNL A   1     -28.075   2.089  25.003  0.00  0.00    -0.208 NA
ATOM     14  C   UNL A   1     -27.543   0.849  25.079  0.00  0.00    +0.253 C 
ATOM     15  C   UNL A   1     -26.354   0.576  25.777  0.00  0.00    +0.193 C 
ATOM     16  F   UNL A   1     -25.860  -0.681  25.795  0.00  0.00    -0.199 F 
BRANCH  11  17
ATOM     17  C   UNL A   1     -25.642   4.093  27.123  0.00  0.00    +0.266 C 
ATOM     18  N   UNL A   1     -25.614   5.252  26.449  0.00  0.00    -0.200 NA
ATOM     19  C   UNL A   1     -25.026   6.479  26.963  0.00  0.00    +0.139 C 
ATOM     20  O   UNL A   1     -25.143   3.966  28.243  0.00  0.00    -0.268 OA
ENDBRANCH  11  17
BRANCH  14  21
ATOM     21  O   UNL A   1     -28.193  -0.208  24.477  0.00  0.00    -0.456 OA
BRANCH  21  22
ATOM     22  C   UNL A   1     -29.460   0.005  23.866  0.00  0.00    +0.243 C 
BRANCH  22  23
ATOM     23  C   UNL A   1     -30.065  -1.377  23.573  0.00  0.00    +0.229 C 
ATOM     24  O   UNL A   1     -30.729  -1.878  24.721  0.00  0.00    -0.216 OA
ENDBRANCH  22  23
ENDBRANCH  21  22
ENDBRANCH  14  21
ENDBRANCH   8  10
ENDBRANCH   1   3
BRANCH   1  25
ATOM     25  C   UNL A   1     -24.855  -1.012  30.143  0.00  0.00    +0.058 C 
BRANCH  25  26
ATOM     26  C   UNL A   1     -24.973  -2.505  29.788  0.00  0.00    -0.019 C 
ATOM     27  C   UNL A   1     -23.906  -3.173  29.146  0.00  0.00    -0.004 C 
ATOM     28  C   UNL A   1     -23.989  -4.549  28.853  0.00  0.00    -0.000 C 
ATOM     29  C   UNL A   1     -25.137  -5.280  29.205  0.00  0.00    -0.000 C 
ATOM     30  C   UNL A   1     -26.232  -4.611  29.784  0.00  0.00    -0.000 C 
ATOM     31  C   UNL A   1     -26.155  -3.232  30.065  0.00  0.00    -0.004 C 
ENDBRANCH  25  26
BRANCH  25  32
ATOM     32  C   UNL A   1     -25.387  -0.679  31.571  0.00  0.00    +0.079 C 
ATOM     33  C   UNL A   1     -25.189   0.773  32.028  0.00  0.00    +0.019 C 
ATOM     34  C   UNL A   1     -25.336   0.684  33.544  0.00  0.00    +0.020 C 
ATOM     35  C   UNL A   1     -24.829  -0.715  33.905  0.00  0.00    +0.089 C 
ATOM     36  N   UNL A   1     -24.758  -1.481  32.646  0.00  0.00    -0.219 NA
ENDBRANCH  25  32
ENDBRANCH   1  25
BRANCH   1  37
ATOM     37  N   UNL A   1     -26.284   0.510  28.859  0.00  0.00    -0.213 NA
BRANCH  37  38
ATOM     38  C   UNL A   1     -27.598  -0.119  28.938  0.00  0.00    +0.110 C 
BRANCH  38  39
ATOM     39  C   UNL A   1     -28.413   0.738  30.022  0.00  0.00    +0.110 C 
BRANCH  39  41
ATOM     40  C   UNL A   1     -31.834  -0.101  30.084  0.00  0.00    -0.021 C 
ATOM     41  N   UNL A   1     -29.554  -0.014  30.291  0.00  0.00    -0.299 N 
ATOM     42  C   UNL A   1     -30.722   0.621  30.389  0.00  0.00    +0.114 C 
ATOM     43  O   UNL A   1     -30.167  -3.275  29.450  0.00  0.00    -0.285 OA
ATOM     44  C   UNL A   1     -31.710  -1.480  29.910  0.00  0.00    +0.036 C 
ATOM     45  C   UNL A   1     -29.384  -1.321  30.252  0.00  0.00    +0.104 C 
ATOM     46  C   UNL A   1     -33.092   0.627  29.692  0.00  0.00    +0.028 C 
ATOM     47  C   UNL A   1     -30.448  -2.088  29.867  0.00  0.00    +0.210 C 
ENDBRANCH  39  41
ENDBRANCH  38  39
ENDBRANCH  37  38
ENDBRANCH   1  37
TORSDOF 13
