MODEL 1189
MODEL 1
REMARK VINA RESULT:    -5.633      0.000      0.000
REMARK INTER + INTRA:          -6.805
REMARK INTER:                  -6.620
REMARK INTRA:                  -0.184
REMARK UNBOUND:                -0.184
REMARK  Name = No_1189-gen_results/8p0m/2024-11-27-11-27-31/
REMARK  3 active torsions:
REMARK  status: ('A' for Active; 'I' for Inactive)
REMARK    1  A    between atoms: C_2  and  C_3
REMARK    2  A    between atoms: N_4  and  C_11
REMARK    3  A    between atoms: C_12  and  C_13
REMARK                            x       y       z     vdW  Elec       q    Type
REMARK                         _______ _______ _______ _____ _____    ______ ____
ROOT
ATOM      1  O   UNL A   1     -22.663  -0.739  30.232  0.00  0.00    -0.270 OA
ATOM      2  C   UNL A   1     -23.484  -0.902  29.440  0.00  0.00    +0.253 C 
ATOM      3  N   UNL A   1     -23.664  -0.031  28.263  0.00  0.00    -0.252 N 
ATOM      4  C   UNL A   1     -22.776   1.128  28.160  0.00  0.00    +0.120 C 
ENDROOT
BRANCH   2   5
ATOM      5  C   UNL A   1     -24.288  -2.024  29.454  0.00  0.00    +0.054 A 
ATOM      6  C   UNL A   1     -25.616  -2.031  29.955  0.00  0.00    +0.004 A 
ATOM      7  C   UNL A   1     -23.831  -3.302  28.935  0.00  0.00    +0.004 A 
ATOM      8  C   UNL A   1     -26.346  -3.236  30.059  0.00  0.00    +0.000 A 
ATOM      9  C   UNL A   1     -24.653  -4.455  28.871  0.00  0.00    +0.000 A 
ATOM     10  C   UNL A   1     -25.910  -4.386  29.462  0.00  0.00    +0.000 A 
ENDBRANCH   2   5
BRANCH   3  11
ATOM     11  C   UNL A   1     -24.592  -0.264  27.259  0.00  0.00    +0.069 C 
ATOM     12  C   UNL A   1     -24.620   0.344  26.276  0.00  0.00    +0.061 C 
BRANCH  12  13
ATOM     13  C   UNL A   1     -25.703   0.193  25.367  0.00  0.00    +0.342 C 
ATOM     14  F   UNL A   1     -25.821  -0.910  24.638  0.00  0.00    -0.193 F 
ATOM     15  F   UNL A   1     -26.974   0.276  25.952  0.00  0.00    -0.193 F 
ENDBRANCH  12  13
ENDBRANCH   3  11
TORSDOF 3
ENDMDL
ENDMDL
