MODEL 1190
MODEL 1
REMARK VINA RESULT:    -7.922      0.000      0.000
REMARK INTER + INTRA:         -11.792
REMARK INTER:                 -10.701
REMARK INTRA:                  -1.091
REMARK UNBOUND:                -1.091
REMARK  Name = No_1190-gen_results/8p0m/2024-11-27-11-27-31/
REMARK  6 active torsions:
REMARK  status: ('A' for Active; 'I' for Inactive)
REMARK    1  A    between atoms: C_6  and  O_16
REMARK    2  A    between atoms: C_7  and  C_22
REMARK    3  A    between atoms: O_16  and  C_17
REMARK    4  A    between atoms: C_17  and  C_18
REMARK    5  A    between atoms: C_18  and  O_20
REMARK    6  A    between atoms: O_20  and  C_28
REMARK                            x       y       z     vdW  Elec       q    Type
REMARK                         _______ _______ _______ _____ _____    ______ ____
ROOT
ATOM      1  C   UNL A   1     -28.199   0.298  24.707  0.00  0.00    +0.038 A 
ATOM      2  C   UNL A   1     -29.232   0.781  24.305  0.00  0.00    +0.007 A 
ATOM      3  C   UNL A   1     -29.535   2.119  24.533  0.00  0.00    +0.005 A 
ATOM      4  C   UNL A   1     -28.649   2.960  25.296  0.00  0.00    +0.003 A 
ATOM      5  C   UNL A   1     -27.489   2.314  25.743  0.00  0.00    +0.038 A 
ATOM      6  C   UNL A   1     -27.257   1.041  25.514  0.00  0.00    +0.149 A 
ATOM      7  C   UNL A   1     -30.272   0.057  23.527  0.00  0.00    +0.071 A 
ATOM      8  C   UNL A   1     -31.019   0.628  22.648  0.00  0.00    +0.004 A 
ATOM      9  C   UNL A   1     -31.345   2.103  22.849  0.00  0.00    +0.009 A 
ATOM     10  C   UNL A   1     -30.520   2.844  23.686  0.00  0.00    +0.056 A 
ATOM     11  C   UNL A   1     -32.409   2.745  22.095  0.00  0.00    +0.056 C 
ATOM     12  C   UNL A   1     -33.077   2.274  21.038  0.00  0.00    +0.005 C 
ATOM     13  C   UNL A   1     -32.790   4.076  22.625  0.00  0.00    +0.272 C 
ATOM     14  N   UNL A   1     -32.392   4.591  23.699  0.00  0.00    -0.137 NA
ATOM     15  C   UNL A   1     -31.152   4.074  24.209  0.00  0.00    +0.272 C 
ATOM     16  O   UNL A   1     -30.626   4.756  25.167  0.00  0.00    -0.268 OA
ATOM     17  O   UNL A   1     -33.756   4.734  22.029  0.00  0.00    -0.268 OA
ENDROOT
BRANCH   7  18
ATOM     18  C   UNL A   1     -30.262  -1.414  23.590  0.00  0.00    +0.419 C 
ATOM     19  F   UNL A   1     -30.307  -1.888  24.666  0.00  0.00    -0.166 F 
ATOM     20  F   UNL A   1     -31.312  -1.893  22.917  0.00  0.00    -0.166 F 
ATOM     21  F   UNL A   1     -29.108  -1.863  22.928  0.00  0.00    -0.166 F 
ENDBRANCH   7  18
BRANCH   6  22
ATOM     22  O   UNL A   1     -26.224   0.321  26.035  0.00  0.00    -0.417 OA
BRANCH  22  23
ATOM     23  C   UNL A   1     -24.939   0.505  25.669  0.00  0.00    +0.423 C 
ATOM     24  O   UNL A   1     -24.592   0.303  24.490  0.00  0.00    -0.237 OA
BRANCH  23  25
ATOM     25  C   UNL A   1     -24.142   0.819  26.720  0.00  0.00    +0.419 C 
ATOM     26  O   UNL A   1     -23.219   1.312  26.647  0.00  0.00    -0.237 OA
BRANCH  25  27
ATOM     27  O   UNL A   1     -24.493   0.440  27.897  0.00  0.00    -0.425 OA
BRANCH  27  28
ATOM     28  C   UNL A   1     -23.645  -0.240  28.790  0.00  0.00    +0.327 C 
ATOM     29  C   UNL A   1     -24.152  -1.553  28.964  0.00  0.00    +0.366 C 
ATOM     30  O   UNL A   1     -23.800  -2.126  29.991  0.00  0.00    -0.441 OA
ATOM     31  O   UNL A   1     -24.949  -2.151  28.205  0.00  0.00    -0.245 OA
ATOM     32  C   UNL A   1     -23.613   0.526  30.103  0.00  0.00    +0.224 C 
ATOM     33  C   UNL A   1     -23.574   0.146  31.185  0.00  0.00    +0.063 C 
ATOM     34  C   UNL A   1     -23.763  -1.389  31.301  0.00  0.00    +0.238 C 
ATOM     35  O   UNL A   1     -23.403   1.948  29.965  0.00  0.00    -0.287 OA
ENDBRANCH  27  28
ENDBRANCH  25  27
ENDBRANCH  23  25
ENDBRANCH  22  23
ENDBRANCH   6  22
TORSDOF 6
ENDMDL
ENDMDL
