MODEL 1191
MODEL 1
REMARK VINA RESULT:    -6.963      0.000      0.000
REMARK INTER + INTRA:          -8.213
REMARK INTER:                  -7.777
REMARK INTRA:                  -0.436
REMARK UNBOUND:                -0.436
REMARK  Name = No_1191-gen_results/8p0m/2024-11-27-11-27-31/
REMARK  2 active torsions:
REMARK  status: ('A' for Active; 'I' for Inactive)
REMARK    1  A    between atoms: C_2  and  C_13
REMARK    2  A    between atoms: C_4  and  C_6
REMARK                            x       y       z     vdW  Elec       q    Type
REMARK                         _______ _______ _______ _____ _____    ______ ____
ROOT
ATOM      1  C   UNL A   1     -22.865   0.712  27.980  0.00  0.00    +0.036 A 
ATOM      2  C   UNL A   1     -23.638   1.130  27.398  0.00  0.00    +0.082 A 
ATOM      3  C   UNL A   1     -23.151  -0.657  28.555  0.00  0.00    +0.140 A 
ATOM      4  C   UNL A   1     -24.330  -1.333  28.175  0.00  0.00    +0.028 A 
ATOM      5  C   UNL A   1     -24.915   0.637  26.835  0.00  0.00    +0.007 A 
ATOM      6  C   UNL A   1     -25.206  -0.659  27.329  0.00  0.00    +0.002 A 
ATOM      7  F   UNL A   1     -22.290  -1.227  29.347  0.00  0.00    -0.204 F 
ENDROOT
BRANCH   4   8
ATOM      8  C   UNL A   1     -24.657  -2.619  28.664  0.00  0.00    +0.002 A 
ATOM      9  C   UNL A   1     -24.083  -3.564  28.512  0.00  0.00    +0.000 A 
ATOM     10  C   UNL A   1     -24.426  -4.928  28.956  0.00  0.00    +0.000 A 
ATOM     11  C   UNL A   1     -25.612  -5.011  29.565  0.00  0.00    +0.000 A 
ATOM     12  C   UNL A   1     -25.915  -2.782  29.410  0.00  0.00    +0.000 A 
ATOM     13  C   UNL A   1     -26.384  -3.935  29.792  0.00  0.00    +0.000 A 
ENDBRANCH   4   8
BRANCH   2  14
ATOM     14  C   UNL A   1     -23.502   2.588  26.693  0.00  0.00    +0.388 C 
ATOM     15  O   UNL A   1     -23.222   2.813  25.739  0.00  0.00    -0.241 OA
ATOM     16  O   UNL A   1     -23.968   3.346  27.615  0.00  0.00    -0.241 OA
ENDBRANCH   2  14
TORSDOF 2
ENDMDL
ENDMDL
