MODEL 1192
MODEL 1
REMARK VINA RESULT:    -8.774      0.000      0.000
REMARK INTER + INTRA:         -13.090
REMARK INTER:                 -11.852
REMARK INTRA:                  -1.239
REMARK UNBOUND:                -1.239
REMARK  Name = No_1192-gen_results/8p0m/2024-11-27-11-27-31/
REMARK  6 active torsions:
REMARK  status: ('A' for Active; 'I' for Inactive)
REMARK    1  A    between atoms: C_2  and  C_7
REMARK    2  A    between atoms: C_4  and  C_13
REMARK    3  A    between atoms: C_12  and  C_24
REMARK    4  A    between atoms: C_13  and  C_14
REMARK    5  A    between atoms: C_15  and  C_16
REMARK    6  A    between atoms: C_17  and  C_18
REMARK                            x       y       z     vdW  Elec       q    Type
REMARK                         _______ _______ _______ _____ _____    ______ ____
ROOT
ATOM      1  C   UNL A   1     -29.216   0.609  23.674  0.00  0.00    -0.000 A 
ATOM      2  C   UNL A   1     -29.118   1.657  23.739  0.00  0.00    -0.000 A 
ATOM      3  C   UNL A   1     -28.035  -0.187  24.043  0.00  0.00    -0.004 A 
ATOM      4  C   UNL A   1     -26.879   0.441  24.592  0.00  0.00    -0.018 A 
ATOM      5  C   UNL A   1     -28.071   2.541  24.320  0.00  0.00    -0.000 A 
ATOM      6  C   UNL A   1     -26.955   1.839  24.665  0.00  0.00    -0.004 A 
ENDROOT
BRANCH   2   7
ATOM      7  C   UNL A   1     -30.381   2.554  23.366  0.00  0.00    +0.000 A 
ATOM      8  C   UNL A   1     -30.934   3.334  24.268  0.00  0.00    +0.000 A 
ATOM      9  C   UNL A   1     -32.158   4.048  23.988  0.00  0.00    +0.000 A 
ATOM     10  C   UNL A   1     -32.711   3.829  22.722  0.00  0.00    +0.007 A 
ATOM     11  C   UNL A   1     -30.967   2.337  22.141  0.00  0.00    +0.007 A 
ATOM     12  C   UNL A   1     -32.102   2.966  21.829  0.00  0.00    +0.080 A 
BRANCH  12  13
ATOM     13  C   UNL A   1     -32.717   2.768  20.481  0.00  0.00    +0.388 C 
ATOM     14  O   UNL A   1     -33.138   1.815  20.134  0.00  0.00    -0.241 OA
ATOM     15  O   UNL A   1     -32.306   3.695  19.600  0.00  0.00    -0.241 OA
ENDBRANCH  12  13
ENDBRANCH   2   7
BRANCH   4  16
ATOM     16  C   UNL A   1     -25.707  -0.303  24.939  0.00  0.00    +0.048 C 
BRANCH  16  17
ATOM     17  C   UNL A   1     -25.091   0.072  26.129  0.00  0.00    -0.040 C 
ATOM     18  C   UNL A   1     -25.510  -0.508  27.369  0.00  0.00    -0.008 C 
ATOM     19  C   UNL A   1     -24.167   1.162  26.201  0.00  0.00    +0.027 C 
BRANCH  18  20
ATOM     20  C   UNL A   1     -24.853  -0.237  28.543  0.00  0.00    -0.001 C 
ATOM     21  C   UNL A   1     -24.875  -1.284  29.503  0.00  0.00    -0.000 C 
BRANCH  21  22
ATOM     22  C   UNL A   1     -24.990  -2.651  29.131  0.00  0.00    -0.000 A 
ATOM     23  C   UNL A   1     -23.960  -3.230  28.803  0.00  0.00    -0.000 A 
ATOM     24  C   UNL A   1     -24.002  -4.709  28.546  0.00  0.00    +0.000 A 
ATOM     25  C   UNL A   1     -25.139  -5.307  29.049  0.00  0.00    +0.000 A 
ATOM     26  C   UNL A   1     -26.171  -4.673  29.630  0.00  0.00    +0.000 A 
ATOM     27  C   UNL A   1     -26.129  -3.233  29.755  0.00  0.00    -0.000 A 
ENDBRANCH  21  22
ENDBRANCH  18  20
ENDBRANCH  16  17
ENDBRANCH   4  16
TORSDOF 6
ENDMDL
ENDMDL
