REMARK  Name = No_1193-gen_results/8p0m/2024-11-27-11-27-31/
REMARK  3 active torsions:
REMARK  status: ('A' for Active; 'I' for Inactive)
REMARK    1  A    between atoms: C_1  and  C_2
REMARK    2  A    between atoms: C_1  and  N_8
REMARK    3  A    between atoms: C_5  and  C_15
REMARK                            x       y       z     vdW  Elec       q    Type
REMARK                         _______ _______ _______ _____ _____    ______ ____
ROOT
ATOM      1  C   UNL A   1     -27.064  -0.119  28.608  0.00  0.00    -0.002 A 
ATOM      2  C   UNL A   1     -27.001   0.691  27.491  0.00  0.00    -0.002 A 
ATOM      3  C   UNL A   1     -25.855   1.482  27.083  0.00  0.00    +0.006 A 
ATOM      4  C   UNL A   1     -24.690   1.453  27.881  0.00  0.00    +0.080 A 
ATOM      5  C   UNL A   1     -24.738   0.601  29.042  0.00  0.00    +0.006 A 
ATOM      6  C   UNL A   1     -25.823  -0.169  29.389  0.00  0.00    -0.002 A 
ENDROOT
BRANCH   4   7
ATOM      7  C   UNL A   1     -23.793   2.475  27.742  0.00  0.00    +0.388 C 
ATOM      8  O   UNL A   1     -23.004   2.690  28.668  0.00  0.00    -0.241 OA
ATOM      9  O   UNL A   1     -23.505   2.938  26.572  0.00  0.00    -0.241 OA
ENDBRANCH   4   7
BRANCH   1  10
ATOM     10  C   UNL A   1     -28.016  -0.814  28.878  0.00  0.00    +0.120 C 
BRANCH  10  11
ATOM     11  N   UNL A   1     -29.207  -0.151  29.066  0.00  0.00    -0.278 N 
ATOM     12  C   UNL A   1     -29.747   0.555  28.431  0.00  0.00    +0.063 C 
ATOM     13  C   UNL A   1     -30.741   0.293  27.689  0.00  0.00    +0.038 C 
ATOM     14  C   UNL A   1     -31.473  -0.867  27.939  0.00  0.00    +0.232 C 
ATOM     15  C   UNL A   1     -30.093  -0.768  30.177  0.00  0.00    +0.242 C 
ATOM     16  N   UNL A   1     -32.584  -1.243  27.337  0.00  0.00    -0.095 NA
ATOM     17  O   UNL A   1     -31.285  -1.569  29.055  0.00  0.00    -0.314 OA
ENDBRANCH  10  11
ENDBRANCH   1  10
TORSDOF 3
