MODEL 1194
MODEL 1
REMARK VINA RESULT:    -5.320      0.000      0.000
REMARK INTER + INTRA:         -11.385
REMARK INTER:                  -8.741
REMARK INTRA:                  -2.644
REMARK UNBOUND:                -2.644
REMARK  Name = No_1194-gen_results/8p0m/2024-11-27-11-27-31/
REMARK  11 active torsions:
REMARK  status: ('A' for Active; 'I' for Inactive)
REMARK    1  A    between atoms: C_2  and  C_5
REMARK    2  A    between atoms: C_8  and  C_12
REMARK    3  A    between atoms: C_12  and  O_13
REMARK    4  A    between atoms: O_13  and  P_14
REMARK    5  A    between atoms: P_14  and  O_17
REMARK    6  A    between atoms: O_17  and  C_18
REMARK    7  A    between atoms: C_18  and  C_19
REMARK    8  A    between atoms: C_19  and  O_21
REMARK    9  A    between atoms: O_21  and  C_22
REMARK   10  A    between atoms: C_23  and  C_24
REMARK   11  A    between atoms: C_25  and  C_26
REMARK                            x       y       z     vdW  Elec       q    Type
REMARK                         _______ _______ _______ _____ _____    ______ ____
ROOT
ATOM      1  P   UNL A   1     -26.478  -2.309  30.016  0.00  0.00    +0.214 P 
ATOM      2  O   UNL A   1     -27.136  -3.348  30.223  0.00  0.00    -0.517 OA
ATOM      3  O   UNL A   1     -26.005  -1.695  31.177  0.00  0.00    -0.437 OA
ENDROOT
BRANCH   1   4
ATOM      4  O   UNL A   1     -25.371  -2.533  28.978  0.00  0.00    -0.309 OA
BRANCH   4   5
ATOM      5  C   UNL A   1     -24.179  -2.277  28.962  0.00  0.00    +0.176 C 
BRANCH   5   9
ATOM      6  C   UNL A   1     -23.940   0.902  26.904  0.00  0.00    +0.071 A 
ATOM      7  C   UNL A   1     -24.251  -0.289  27.227  0.00  0.00    +0.003 A 
ATOM      8  C   UNL A   1     -23.382   1.790  27.804  0.00  0.00    +0.005 A 
ATOM      9  C   UNL A   1     -23.926  -0.867  28.526  0.00  0.00    +0.018 A 
ATOM     10  C   UNL A   1     -23.019   1.331  29.158  0.00  0.00    +0.011 A 
ATOM     11  C   UNL A   1     -23.337  -0.026  29.487  0.00  0.00    +0.056 A 
ATOM     12 CL   UNL A   1     -22.764  -0.522  30.966  0.00  0.00    -0.083 Cl
BRANCH   6  14
ATOM     13  F   UNL A   1     -24.944   2.242  25.635  0.00  0.00    -0.166 F 
ATOM     14  C   UNL A   1     -24.280   1.398  25.522  0.00  0.00    +0.419 C 
ATOM     15  F   UNL A   1     -24.719   0.505  24.833  0.00  0.00    -0.166 F 
ATOM     16  F   UNL A   1     -23.096   1.851  24.942  0.00  0.00    -0.166 F 
ENDBRANCH   6  14
ENDBRANCH   5   9
ENDBRANCH   4   5
ENDBRANCH   1   4
BRANCH   1  17
ATOM     17  O   UNL A   1     -27.366  -1.187  29.264  0.00  0.00    -0.309 OA
BRANCH  17  18
ATOM     18  C   UNL A   1     -27.645  -0.021  29.808  0.00  0.00    +0.210 C 
BRANCH  18  19
ATOM     19  C   UNL A   1     -27.032   1.158  29.035  0.00  0.00    +0.275 C 
ATOM     20 CL   UNL A   1     -26.542   2.387  29.801  0.00  0.00    -0.066 Cl
BRANCH  19  21
ATOM     21  O   UNL A   1     -27.956   1.567  28.011  0.00  0.00    -0.458 OA
BRANCH  21  22
ATOM     22  C   UNL A   1     -27.777   1.769  26.998  0.00  0.00    +0.174 C 
ATOM     23  C   UNL A   1     -28.498   1.715  26.001  0.00  0.00    +0.040 C 
BRANCH  23  24
ATOM     24  C   UNL A   1     -28.132   1.995  24.651  0.00  0.00    +0.003 C 
ATOM     25  C   UNL A   1     -27.892   1.020  23.636  0.00  0.00    +0.000 C 
BRANCH  25  26
ATOM     26  C   UNL A   1     -28.048  -0.329  24.043  0.00  0.00    +0.000 C 
ATOM     27  C   UNL A   1     -29.077  -1.106  23.572  0.00  0.00    +0.000 C 
ENDBRANCH  25  26
ENDBRANCH  23  24
ENDBRANCH  21  22
ENDBRANCH  19  21
ENDBRANCH  18  19
ENDBRANCH  17  18
ENDBRANCH   1  17
TORSDOF 11
ENDMDL
ENDMDL
