REMARK  Name = outputs/IAG933/test6/raw/output_1194_IAG933_linker_design_.xyz
REMARK  10 active torsions:
REMARK  status: ('A' for Active; 'I' for Inactive)
REMARK    1  A    between atoms: C_1  and  C_2
REMARK    2  A    between atoms: C_1  and  C_8
REMARK    3  A    between atoms: C_1  and  C_30
REMARK    4  A    between atoms: C_13  and  N_36
REMARK    5  A    between atoms: C_14  and  C_15
REMARK    6  A    between atoms: C_21  and  O_22
REMARK    7  A    between atoms: O_22  and  C_23
REMARK    8  A    between atoms: C_23  and  C_24
REMARK    9  A    between atoms: C_30  and  C_33
REMARK   10  A    between atoms: C_30  and  O_41
REMARK                            x       y       z     vdW  Elec       q    Type
REMARK                         _______ _______ _______ _____ _____    ______ ____
ROOT
ATOM      1  C   UNL A   1     -22.372   2.703  25.072  0.00  0.00    +0.364 C 
ATOM      2  F   UNL A   1     -20.075   2.176  27.727  0.00  0.00    -0.198 F 
ATOM      3  C   UNL A   1     -20.661  -0.304  28.418  0.00  0.00    +0.040 C 
ATOM      4  C   UNL A   1     -24.769   0.419  28.414  0.00  0.00    +0.151 C 
ATOM      5  C   UNL A   1     -21.246   2.072  27.123  0.00  0.00    +0.312 C 
ATOM      6  O   UNL A   1     -21.218   2.769  25.886  0.00  0.00    -0.283 OA
ATOM      7  N   UNL A   1     -24.701   1.147  27.273  0.00  0.00    -0.252 N 
ATOM      8  O   UNL A   1     -23.480   2.037  25.617  0.00  0.00    -0.435 OA
ATOM      9  C   UNL A   1     -23.511   1.477  26.747  0.00  0.00    +0.204 C 
ATOM     10  C   UNL A   1     -23.597   0.182  29.003  0.00  0.00    +0.228 C 
ATOM     11  O   UNL A   1     -22.705   0.084  29.448  0.00  0.00    -0.474 OA
ATOM     12  C   UNL A   1     -21.735   0.384  28.535  0.00  0.00    +0.144 C 
ATOM     13  C   UNL A   1     -22.287   1.311  27.447  0.00  0.00    +0.122 C 
ENDROOT
BRANCH   7  14
ATOM     14  C   UNL A   1     -25.688   1.614  26.461  0.00  0.00    +0.092 C 
ATOM     15  C   UNL A   1     -26.250   2.920  26.395  0.00  0.00    +0.090 C 
ATOM     16  C   UNL A   1     -27.438   3.091  25.645  0.00  0.00    +0.108 C 
ATOM     17  N   UNL A   1     -28.075   2.089  25.003  0.00  0.00    -0.208 NA
ATOM     18  C   UNL A   1     -27.543   0.849  25.079  0.00  0.00    +0.255 C 
ATOM     19  C   UNL A   1     -26.354   0.576  25.777  0.00  0.00    +0.207 C 
ATOM     20  F   UNL A   1     -25.860  -0.681  25.795  0.00  0.00    -0.198 F 
BRANCH  15  21
ATOM     21  C   UNL A   1     -25.642   4.093  27.123  0.00  0.00    +0.268 C 
ATOM     22  N   UNL A   1     -25.614   5.252  26.449  0.00  0.00    -0.200 NA
ATOM     23  C   UNL A   1     -25.026   6.479  26.963  0.00  0.00    +0.139 C 
ATOM     24  O   UNL A   1     -25.143   3.966  28.243  0.00  0.00    -0.268 OA
ENDBRANCH  15  21
BRANCH  18  25
ATOM     25  O   UNL A   1     -28.193  -0.208  24.477  0.00  0.00    -0.456 OA
BRANCH  25  26
ATOM     26  C   UNL A   1     -29.460   0.005  23.866  0.00  0.00    +0.243 C 
BRANCH  26  27
ATOM     27  C   UNL A   1     -30.065  -1.377  23.573  0.00  0.00    +0.229 C 
ATOM     28  O   UNL A   1     -30.729  -1.878  24.721  0.00  0.00    -0.216 OA
ENDBRANCH  26  27
ENDBRANCH  25  26
ENDBRANCH  18  25
ENDBRANCH   7  14
BRANCH   4  29
ATOM     29  C   UNL A   1     -25.849  -0.235  29.139  0.00  0.00    +0.143 C 
BRANCH  29  31
ATOM     30  C   UNL A   1     -28.343   0.529  28.467  0.00  0.00    +0.174 C 
ATOM     31  O   UNL A   1     -27.027   0.731  29.068  0.00  0.00    -0.351 OA
ENDBRANCH  29  31
BRANCH  29  32
ATOM     32  C   UNL A   1     -24.855  -1.012  30.143  0.00  0.00    +0.067 C 
BRANCH  32  33
ATOM     33  C   UNL A   1     -24.973  -2.505  29.788  0.00  0.00    -0.019 C 
ATOM     34  C   UNL A   1     -23.906  -3.173  29.146  0.00  0.00    -0.004 C 
ATOM     35  C   UNL A   1     -23.989  -4.549  28.853  0.00  0.00    -0.000 C 
ATOM     36  C   UNL A   1     -25.137  -5.280  29.205  0.00  0.00    -0.000 C 
ATOM     37  C   UNL A   1     -26.232  -4.611  29.784  0.00  0.00    -0.000 C 
ATOM     38  C   UNL A   1     -26.155  -3.232  30.065  0.00  0.00    -0.004 C 
ENDBRANCH  32  33
BRANCH  32  39
ATOM     39  C   UNL A   1     -25.387  -0.679  31.571  0.00  0.00    +0.079 C 
ATOM     40  C   UNL A   1     -25.189   0.773  32.028  0.00  0.00    +0.019 C 
ATOM     41  C   UNL A   1     -25.336   0.684  33.544  0.00  0.00    +0.020 C 
ATOM     42  C   UNL A   1     -24.829  -0.715  33.905  0.00  0.00    +0.089 C 
ATOM     43  N   UNL A   1     -24.758  -1.481  32.646  0.00  0.00    -0.219 NA
ENDBRANCH  32  39
ENDBRANCH  29  32
ENDBRANCH   4  29
TORSDOF 10
