MODEL 1195
MODEL 1
REMARK VINA RESULT:    -6.660      0.000      0.000
REMARK INTER + INTRA:         -10.392
REMARK INTER:                  -8.996
REMARK INTRA:                  -1.395
REMARK UNBOUND:                -1.395
REMARK  Name = No_1195-gen_results/8p0m/2024-11-27-11-27-31/
REMARK  6 active torsions:
REMARK  status: ('A' for Active; 'I' for Inactive)
REMARK    1  A    between atoms: C_2  and  C_3
REMARK    2  A    between atoms: N_4  and  C_11
REMARK    3  A    between atoms: C_5  and  C_21
REMARK    4  A    between atoms: C_15  and  C_17
REMARK    5  A    between atoms: C_22  and  C_23
REMARK    6  A    between atoms: C_24  and  C_25
REMARK                            x       y       z     vdW  Elec       q    Type
REMARK                         _______ _______ _______ _____ _____    ______ ____
ROOT
ATOM      1  C   UNL A   1     -23.776  -0.102  28.072  0.00  0.00    +0.064 A 
ATOM      2  C   UNL A   1     -24.122   0.748  26.990  0.00  0.00    +0.005 A 
ATOM      3  C   UNL A   1     -22.444   0.117  28.610  0.00  0.00    +0.062 A 
ATOM      4  C   UNL A   1     -23.169   1.618  26.415  0.00  0.00    +0.000 A 
ATOM      5  C   UNL A   1     -21.573   1.133  28.142  0.00  0.00    +0.011 A 
ATOM      6  C   UNL A   1     -21.968   1.859  27.023  0.00  0.00    +0.001 A 
ATOM      7 CL   UNL A   1     -21.957  -0.734  30.011  0.00  0.00    -0.082 Cl
ENDROOT
BRANCH   1   9
ATOM      8  O   UNL A   1     -24.659  -2.128  28.176  0.00  0.00    -0.270 OA
ATOM      9  C   UNL A   1     -24.625  -1.055  28.596  0.00  0.00    +0.254 C 
ATOM     10  N   UNL A   1     -25.355  -0.632  29.806  0.00  0.00    -0.253 N 
ATOM     11  C   UNL A   1     -26.207  -1.636  30.447  0.00  0.00    +0.120 C 
BRANCH  10  12
ATOM     12  C   UNL A   1     -25.257   0.633  30.369  0.00  0.00    +0.054 A 
ATOM     13  C   UNL A   1     -24.746   0.798  31.342  0.00  0.00    +0.015 A 
ATOM     14  C   UNL A   1     -24.522   2.179  31.845  0.00  0.00    +0.002 A 
ATOM     15  C   UNL A   1     -24.980   3.021  31.522  0.00  0.00    +0.007 A 
ATOM     16  C   UNL A   1     -25.766   2.987  30.271  0.00  0.00    +0.081 A 
ATOM     17  C   UNL A   1     -25.909   1.717  29.655  0.00  0.00    +0.021 A 
BRANCH  16  18
ATOM     18  C   UNL A   1     -26.306   4.247  29.646  0.00  0.00    +0.388 C 
ATOM     19  O   UNL A   1     -25.663   5.172  29.547  0.00  0.00    -0.241 OA
ATOM     20  O   UNL A   1     -27.563   4.223  29.323  0.00  0.00    -0.241 OA
ENDBRANCH  16  18
ENDBRANCH  10  12
ENDBRANCH   1   9
BRANCH   2  21
ATOM     21  C   UNL A   1     -25.390   0.522  26.251  0.00  0.00    +0.000 C 
ATOM     22  C   UNL A   1     -25.394  -0.043  25.141  0.00  0.00    +0.000 C 
BRANCH  22  23
ATOM     23  C   UNL A   1     -26.429  -0.144  24.464  0.00  0.00    -0.000 C 
ATOM     24  C   UNL A   1     -27.722   0.073  24.715  0.00  0.00    -0.000 C 
BRANCH  24  25
ATOM     25  C   UNL A   1     -28.831  -0.007  23.839  0.00  0.00    -0.005 C 
ATOM     26  C   UNL A   1     -29.421   1.197  23.407  0.00  0.00    -0.026 C 
ATOM     27  C   UNL A   1     -28.835   2.408  23.765  0.00  0.00    +0.031 C 
ENDBRANCH  24  25
ENDBRANCH  22  23
ENDBRANCH   2  21
TORSDOF 6
ENDMDL
ENDMDL
