MODEL 1196
MODEL 1
REMARK VINA RESULT:    -5.454      0.000      0.000
REMARK INTER + INTRA:          -6.411
REMARK INTER:                  -6.410
REMARK INTRA:                  -0.001
REMARK UNBOUND:                -0.001
REMARK  Name = No_1196-gen_results/8p0m/2024-11-27-11-27-31/
REMARK  3 active torsions:
REMARK  status: ('A' for Active; 'I' for Inactive)
REMARK    1  A    between atoms: C_1  and  C_11
REMARK    2  A    between atoms: C_4  and  O_14
REMARK    3  A    between atoms: C_5  and  C_8
REMARK                            x       y       z     vdW  Elec       q    Type
REMARK                         _______ _______ _______ _____ _____    ______ ____
ROOT
ATOM      1  C   UNL A   1     -24.288  -2.997  29.538  0.00  0.00    +0.082 A 
ATOM      2  C   UNL A   1     -24.917  -2.501  30.444  0.00  0.00    +0.039 A 
ATOM      3  C   UNL A   1     -24.645  -1.274  31.025  0.00  0.00    +0.174 A 
ATOM      4  C   UNL A   1     -23.554  -0.529  30.487  0.00  0.00    +0.172 A 
ATOM      5  C   UNL A   1     -22.975  -1.027  29.382  0.00  0.00    +0.116 A 
ATOM      6  C   UNL A   1     -23.328  -2.174  28.876  0.00  0.00    +0.016 A 
ATOM      7  F   UNL A   1     -25.295  -0.781  32.089  0.00  0.00    -0.201 F 
ENDROOT
BRANCH   5   8
ATOM      8  C   UNL A   1     -21.866  -0.208  28.838  0.00  0.00    +0.391 C 
ATOM      9  O   UNL A   1     -22.061   0.723  28.189  0.00  0.00    -0.240 OA
ATOM     10  O   UNL A   1     -20.673  -0.777  28.803  0.00  0.00    -0.240 OA
ENDBRANCH   5   8
BRANCH   1  11
ATOM     11  C   UNL A   1     -24.700  -4.341  28.957  0.00  0.00    +0.388 C 
ATOM     12  O   UNL A   1     -25.713  -4.920  29.330  0.00  0.00    -0.241 OA
ATOM     13  O   UNL A   1     -23.889  -4.946  28.186  0.00  0.00    -0.241 OA
ENDBRANCH   1  11
BRANCH   4  14
ATOM     14  O   UNL A   1     -23.307   0.659  31.050  0.00  0.00    -0.469 OA
ATOM     15  C   UNL A   1     -24.152   1.645  30.804  0.00  0.00    +0.253 C 
ENDBRANCH   4  14
TORSDOF 3
ENDMDL
ENDMDL
