REMARK  Name = No_1196-gen_results/8p0m/2024-11-27-11-27-31/
REMARK  3 active torsions:
REMARK  status: ('A' for Active; 'I' for Inactive)
REMARK    1  A    between atoms: C_1  and  C_11
REMARK    2  A    between atoms: C_4  and  O_14
REMARK    3  A    between atoms: C_5  and  C_8
REMARK                            x       y       z     vdW  Elec       q    Type
REMARK                         _______ _______ _______ _____ _____    ______ ____
ROOT
ATOM      1  C   UNL A   1     -28.016  -0.814  28.878  0.00  0.00    +0.082 A 
ATOM      2  C   UNL A   1     -27.064  -0.119  28.608  0.00  0.00    +0.039 A 
ATOM      3  C   UNL A   1     -26.972   0.714  27.506  0.00  0.00    +0.174 A 
ATOM      4  C   UNL A   1     -28.105   0.774  26.642  0.00  0.00    +0.172 A 
ATOM      5  C   UNL A   1     -29.204   0.118  27.048  0.00  0.00    +0.116 A 
ATOM      6  C   UNL A   1     -29.213  -0.609  28.128  0.00  0.00    +0.016 A 
ATOM      7  F   UNL A   1     -25.874   1.407  27.173  0.00  0.00    -0.201 F 
ENDROOT
BRANCH   5   8
ATOM      8  C   UNL A   1     -30.367   0.230  26.137  0.00  0.00    +0.391 C 
ATOM      9  O   UNL A   1     -30.835   1.249  25.872  0.00  0.00    -0.240 OA
ATOM     10  O   UNL A   1     -31.073  -0.871  25.941  0.00  0.00    -0.240 OA
ENDBRANCH   5   8
BRANCH   1  11
ATOM     11  C   UNL A   1     -28.017  -1.668  30.137  0.00  0.00    +0.388 C 
ATOM     12  O   UNL A   1     -27.126  -2.477  30.367  0.00  0.00    -0.241 OA
ATOM     13  O   UNL A   1     -29.048  -1.653  30.882  0.00  0.00    -0.241 OA
ENDBRANCH   1  11
BRANCH   4  14
ATOM     14  O   UNL A   1     -28.008   1.589  25.586  0.00  0.00    -0.469 OA
ATOM     15  C   UNL A   1     -27.321   2.709  25.733  0.00  0.00    +0.253 C 
ENDBRANCH   4  14
TORSDOF 3
