REMARK  Name = outputs/IAG933/test6/raw/output_1197_IAG933_linker_design_.xyz
REMARK  12 active torsions:
REMARK  status: ('A' for Active; 'I' for Inactive)
REMARK    1  A    between atoms: C_1  and  C_2
REMARK    2  A    between atoms: C_1  and  C_8
REMARK    3  A    between atoms: C_1  and  N_48
REMARK    4  A    between atoms: C_14  and  C_15
REMARK    5  A    between atoms: C_28  and  C_56
REMARK    6  A    between atoms: C_34  and  N_37
REMARK    7  A    between atoms: C_34  and  O_49
REMARK    8  A    between atoms: C_45  and  C_52
REMARK    9  A    between atoms: C_47  and  C_51
REMARK   10  A    between atoms: O_49  and  C_52
REMARK   11  A    between atoms: C_51  and  C_56
REMARK   12  A    between atoms: C_52  and  C_53
REMARK                            x       y       z     vdW  Elec       q    Type
REMARK                         _______ _______ _______ _____ _____    ______ ____
ROOT
ATOM      1  C   UNL A   1     -25.688   1.614  26.461  0.00  0.00    +0.129 C 
ATOM      2  C   UNL A   1     -26.250   2.920  26.395  0.00  0.00    +0.070 C 
ATOM      3  C   UNL A   1     -27.438   3.091  25.645  0.00  0.00    +0.103 C 
ATOM      4  N   UNL A   1     -28.075   2.089  25.003  0.00  0.00    -0.212 NA
ATOM      5  C   UNL A   1     -27.543   0.849  25.079  0.00  0.00    +0.235 C 
ATOM      6  O   UNL A   1     -28.193  -0.208  24.477  0.00  0.00    -0.459 OA
ATOM      7  C   UNL A   1     -29.460   0.005  23.866  0.00  0.00    +0.239 C 
ATOM      8  C   UNL A   1     -30.065  -1.377  23.573  0.00  0.00    +0.189 C 
ATOM      9  O   UNL A   1     -30.729  -1.878  24.721  0.00  0.00    -0.350 OA
ATOM     10  C   UNL A   1     -26.354   0.576  25.777  0.00  0.00    +0.255 C 
ATOM     11  F   UNL A   1     -25.860  -0.681  25.795  0.00  0.00    -0.225 F 
ATOM     12  C   UNL A   1     -29.653  -0.549  30.822  0.00  0.00    +0.124 C 
ATOM     13  C   UNL A   1     -31.793  -1.320  25.511  0.00  0.00    +0.145 C 
ATOM     14  C   UNL A   1     -28.055   0.706  28.348  0.00  0.00    +0.006 C 
ATOM     15  C   UNL A   1     -22.167   0.371  29.230  0.00  0.00    +0.019 C 
ATOM     16  N   UNL A   1     -25.050   1.390  27.566  0.00  0.00    -0.255 NA
ATOM     17  C   UNL A   1     -29.283   0.336  28.745  0.00  0.00    +0.051 C 
ATOM     18  O   UNL A   1     -31.034  -1.225  29.078  0.00  0.00    -0.349 OA
ATOM     19  N   UNL A   1     -27.716   2.178  29.769  0.00  0.00    -0.190 NA
ATOM     20  N   UNL A   1     -29.436   0.718  30.122  0.00  0.00    -0.291 N 
ATOM     21  C   UNL A   1     -23.767   1.611  27.594  0.00  0.00    +0.074 C 
ATOM     22  C   UNL A   1     -23.428   0.313  28.410  0.00  0.00    +0.074 C 
ATOM     23  N   UNL A   1     -24.706   0.143  29.213  0.00  0.00    -0.256 NA
ATOM     24  C   UNL A   1     -31.178  -0.576  26.662  0.00  0.00    +0.068 C 
ATOM     25  C   UNL A   1     -28.978   2.099  30.168  0.00  0.00    +0.178 C 
ATOM     26  C   UNL A   1     -30.232  -1.764  30.010  0.00  0.00    +0.162 C 
ATOM     27  C   UNL A   1     -30.564  -0.465  27.952  0.00  0.00    +0.153 C 
ATOM     28  C   UNL A   1     -22.978   2.219  26.331  0.00  0.00    +0.019 C 
ATOM     29  C   UNL A   1     -25.645   0.976  28.779  0.00  0.00    +0.140 C 
ATOM     30  C   UNL A   1     -27.175   1.237  29.163  0.00  0.00    +0.128 C 
ENDROOT
BRANCH   2  31
ATOM     31  C   UNL A   1     -25.642   4.093  27.123  0.00  0.00    +0.264 C 
ATOM     32  N   UNL A   1     -25.614   5.252  26.449  0.00  0.00    -0.200 NA
ATOM     33  C   UNL A   1     -25.026   6.479  26.963  0.00  0.00    +0.139 C 
ATOM     34  O   UNL A   1     -25.143   3.966  28.243  0.00  0.00    -0.269 OA
ENDBRANCH   2  31
BRANCH  25  36
ATOM     35  O   UNL A   1     -29.882   2.399  32.342  0.00  0.00    -0.285 OA
ATOM     36  C   UNL A   1     -29.000   2.554  31.629  0.00  0.00    +0.242 C 
ENDBRANCH  25  36
BRANCH  23  37
ATOM     37  C   UNL A   1     -24.855  -1.012  30.143  0.00  0.00    +0.097 C 
BRANCH  37  38
ATOM     38  C   UNL A   1     -24.973  -2.505  29.788  0.00  0.00    -0.006 C 
ATOM     39  C   UNL A   1     -23.906  -3.173  29.146  0.00  0.00    -0.003 C 
ATOM     40  C   UNL A   1     -23.989  -4.549  28.853  0.00  0.00    -0.000 C 
ATOM     41  C   UNL A   1     -25.137  -5.280  29.205  0.00  0.00    -0.000 C 
ATOM     42  C   UNL A   1     -26.232  -4.611  29.784  0.00  0.00    -0.000 C 
ATOM     43  C   UNL A   1     -26.155  -3.232  30.065  0.00  0.00    -0.003 C 
ENDBRANCH  37  38
BRANCH  37  44
ATOM     44  C   UNL A   1     -25.387  -0.679  31.571  0.00  0.00    +0.092 C 
ATOM     45  C   UNL A   1     -25.189   0.773  32.028  0.00  0.00    +0.021 C 
ATOM     46  C   UNL A   1     -25.336   0.684  33.544  0.00  0.00    +0.020 C 
ATOM     47  C   UNL A   1     -24.829  -0.715  33.905  0.00  0.00    +0.089 C 
ATOM     48  N   UNL A   1     -24.758  -1.481  32.646  0.00  0.00    -0.218 NA
ENDBRANCH  37  44
ENDBRANCH  23  37
BRANCH  26  49
ATOM     49  C   UNL A   1     -30.832  -2.559  31.204  0.00  0.00    +0.146 C 
BRANCH  49  51
ATOM     50  C   UNL A   1     -29.084  -4.236  31.686  0.00  0.00    +0.003 C 
ATOM     51  C   UNL A   1     -30.445  -4.028  31.027  0.00  0.00    +0.032 C 
ENDBRANCH  49  51
BRANCH  49  52
ATOM     52  O   UNL A   1     -32.240  -2.333  31.374  0.00  0.00    -0.337 OA
BRANCH  52  53
ATOM     53  C   UNL A   1     -32.925  -2.979  30.396  0.00  0.00    +0.220 C 
BRANCH  53  54
ATOM     54  N   UNL A   1     -34.312  -3.062  30.541  0.00  0.00    -0.245 NA
ATOM     55  C   UNL A   1     -34.830  -2.403  31.751  0.00  0.00    +0.092 C 
ATOM     56  C   UNL A   1     -34.738  -4.464  30.490  0.00  0.00    +0.092 C 
ENDBRANCH  53  54
ENDBRANCH  52  53
ENDBRANCH  49  52
ENDBRANCH  26  49
BRANCH  25  57
ATOM     57  C   UNL A   1     -29.941   2.998  29.456  0.00  0.00    +0.043 C 
BRANCH  57  58
ATOM     58  C   UNL A   1     -31.437   2.860  29.485  0.00  0.00    +0.004 C 
ATOM     59  C   UNL A   1     -32.010   3.983  30.319  0.00  0.00    +0.000 C 
ENDBRANCH  57  58
ENDBRANCH  25  57
TORSDOF 12
