MODEL 1199
MODEL 1
REMARK VINA RESULT:    -6.510      0.000      0.000
REMARK INTER + INTRA:          -8.605
REMARK INTER:                  -7.652
REMARK INTRA:                  -0.954
REMARK UNBOUND:                -0.954
REMARK  Name = No_1199-gen_results/8p0m/2024-11-27-11-27-31/
REMARK  3 active torsions:
REMARK  status: ('A' for Active; 'I' for Inactive)
REMARK    1  A    between atoms: C_3  and  C_4
REMARK    2  A    between atoms: C_4  and  C_9
REMARK    3  A    between atoms: N_8  and  C_10
REMARK                            x       y       z     vdW  Elec       q    Type
REMARK                         _______ _______ _______ _____ _____    ______ ____
ROOT
ATOM      1  C   UNL A   1     -24.992  -1.118  28.973  0.00  0.00    +0.059 C 
ATOM      2  N   UNL A   1     -24.892  -0.263  29.558  0.00  0.00    -0.250 NA
ENDROOT
BRANCH   1   5
ATOM      3  C   UNL A   1     -26.213  -3.254  29.702  0.00  0.00    +0.001 A 
ATOM      4  C   UNL A   1     -26.211  -4.308  29.697  0.00  0.00    +0.000 A 
ATOM      5  C   UNL A   1     -25.098  -2.591  29.143  0.00  0.00    +0.014 A 
ATOM      6  C   UNL A   1     -25.214  -5.276  29.207  0.00  0.00    +0.000 A 
ATOM      7  C   UNL A   1     -24.081  -4.691  28.642  0.00  0.00    +0.000 A 
ATOM      8  C   UNL A   1     -24.010  -3.337  28.551  0.00  0.00    +0.001 A 
ENDBRANCH   1   5
BRANCH   2   9
ATOM      9  C   UNL A   1     -24.554  -0.395  30.962  0.00  0.00    +0.081 A 
ATOM     10  C   UNL A   1     -23.220  -0.750  31.407  0.00  0.00    +0.019 A 
ATOM     11  C   UNL A   1     -23.029  -1.342  32.697  0.00  0.00    +0.002 A 
ATOM     12  C   UNL A   1     -25.409  -0.314  32.127  0.00  0.00    +0.019 A 
ATOM     13  C   UNL A   1     -25.097  -0.635  33.399  0.00  0.00    +0.002 A 
ATOM     14  C   UNL A   1     -23.817  -1.125  33.657  0.00  0.00    +0.000 A 
ENDBRANCH   2   9
BRANCH   1  15
ATOM     15  C   UNL A   1     -25.346  -0.697  27.471  0.00  0.00    +0.046 C 
ATOM     16  C   UNL A   1     -24.519   0.216  26.998  0.00  0.00    +0.007 C 
ENDBRANCH   1  15
TORSDOF 3
ENDMDL
ENDMDL
