REMARK  Name = No_1199-gen_results/8p0m/2024-11-27-11-27-31/
REMARK  3 active torsions:
REMARK  status: ('A' for Active; 'I' for Inactive)
REMARK    1  A    between atoms: C_3  and  C_4
REMARK    2  A    between atoms: C_4  and  C_9
REMARK    3  A    between atoms: N_8  and  C_10
REMARK                            x       y       z     vdW  Elec       q    Type
REMARK                         _______ _______ _______ _____ _____    ______ ____
ROOT
ATOM      1  C   UNL A   1     -26.335   0.290  27.284  0.00  0.00    +0.059 C 
ATOM      2  N   UNL A   1     -25.357   0.480  26.983  0.00  0.00    -0.250 NA
ENDROOT
BRANCH   1   5
ATOM      3  C   UNL A   1     -28.016  -0.814  28.878  0.00  0.00    +0.001 A 
ATOM      4  C   UNL A   1     -28.469  -0.785  29.829  0.00  0.00    +0.000 A 
ATOM      5  C   UNL A   1     -27.136   0.236  28.535  0.00  0.00    +0.014 A 
ATOM      6  C   UNL A   1     -28.369   0.196  30.924  0.00  0.00    +0.000 A 
ATOM      7  C   UNL A   1     -27.516   1.266  30.654  0.00  0.00    +0.000 A 
ATOM      8  C   UNL A   1     -26.841   1.294  29.476  0.00  0.00    +0.001 A 
ENDBRANCH   1   5
BRANCH   2   9
ATOM      9  C   UNL A   1     -24.304   0.542  27.978  0.00  0.00    +0.081 A 
ATOM     10  C   UNL A   1     -23.161   1.424  27.841  0.00  0.00    +0.019 A 
ATOM     11  C   UNL A   1     -21.942   1.129  28.534  0.00  0.00    +0.002 A 
ATOM     12  C   UNL A   1     -24.114  -0.257  29.170  0.00  0.00    +0.019 A 
ATOM     13  C   UNL A   1     -23.025  -0.303  29.963  0.00  0.00    +0.002 A 
ATOM     14  C   UNL A   1     -21.926   0.481  29.615  0.00  0.00    +0.000 A 
ENDBRANCH   2   9
BRANCH   1  15
ATOM     15  C   UNL A   1     -27.290   0.255  26.002  0.00  0.00    +0.046 C 
ATOM     16  C   UNL A   1     -26.611   0.227  24.871  0.00  0.00    +0.007 C 
ENDBRANCH   1  15
TORSDOF 3
