MODEL 119
MODEL 1
REMARK VINA RESULT:    -6.902      0.000      0.000
REMARK INTER + INTRA:         -10.713
REMARK INTER:                  -9.727
REMARK INTRA:                  -0.986
REMARK UNBOUND:                -0.986
REMARK  Name = No_119-gen_results/8p0m/2024-11-27-11-27-31/
REMARK  7 active torsions:
REMARK  status: ('A' for Active; 'I' for Inactive)
REMARK    1  A    between atoms: C_2  and  C_14
REMARK    2  A    between atoms: C_3  and  C_4
REMARK    3  A    between atoms: C_4  and  C_8
REMARK    4  A    between atoms: C_14  and  N_15
REMARK    5  A    between atoms: N_15  and  C_16
REMARK    6  A    between atoms: C_17  and  C_18
REMARK    7  A    between atoms: C_18  and  C_19
REMARK                            x       y       z     vdW  Elec       q    Type
REMARK                         _______ _______ _______ _____ _____    ______ ____
ROOT
ATOM      1  C   UNL A   1     -24.637  -0.240  27.347  0.00  0.00    -0.006 A 
ATOM      2  C   UNL A   1     -24.349   0.432  26.588  0.00  0.00    -0.001 A 
ATOM      3  C   UNL A   1     -23.792  -0.205  28.601  0.00  0.00    -0.018 A 
ATOM      4  C   UNL A   1     -23.412   1.563  26.585  0.00  0.00    -0.003 A 
ATOM      5  C   UNL A   1     -22.622   1.678  27.709  0.00  0.00    -0.001 A 
ATOM      6  C   UNL A   1     -22.799   0.826  28.769  0.00  0.00    -0.004 A 
ENDROOT
BRANCH   3   7
ATOM      7  C   UNL A   1     -23.883  -1.114  29.717  0.00  0.00    +0.053 C 
BRANCH   7   8
ATOM      8  C   UNL A   1     -24.497  -2.398  29.432  0.00  0.00    -0.018 A 
ATOM      9  C   UNL A   1     -25.751  -2.632  29.959  0.00  0.00    -0.004 A 
ATOM     10  C   UNL A   1     -26.318  -3.947  29.840  0.00  0.00    -0.000 A 
ATOM     11  C   UNL A   1     -25.543  -4.951  29.185  0.00  0.00    -0.000 A 
ATOM     12  C   UNL A   1     -23.821  -3.507  28.884  0.00  0.00    -0.004 A 
ATOM     13  C   UNL A   1     -24.338  -4.724  28.791  0.00  0.00    -0.000 A 
ENDBRANCH   7   8
ENDBRANCH   3   7
BRANCH   2  14
ATOM     14  C   UNL A   1     -25.244   0.198  25.331  0.00  0.00    +0.139 C 
BRANCH  14  15
ATOM     15  N   UNL A   1     -26.378   0.890  25.257  0.00  0.00    -0.232 NA
BRANCH  15  16
ATOM     16  C   UNL A   1     -27.213   0.748  24.620  0.00  0.00    +0.076 C 
ATOM     17  C   UNL A   1     -28.075   0.090  24.516  0.00  0.00    -0.004 C 
BRANCH  17  18
ATOM     18  C   UNL A   1     -29.029   0.139  23.327  0.00  0.00    +0.053 C 
BRANCH  18  19
ATOM     19  C   UNL A   1     -30.337   0.730  23.369  0.00  0.00    -0.026 C 
ATOM     20  C   UNL A   1     -31.463  -0.130  23.436  0.00  0.00    -0.030 C 
ATOM     21  C   UNL A   1     -31.243  -1.458  23.515  0.00  0.00    +0.030 C 
ENDBRANCH  18  19
ENDBRANCH  17  18
ENDBRANCH  15  16
ENDBRANCH  14  15
ENDBRANCH   2  14
TORSDOF 7
ENDMDL
ENDMDL
