MODEL 11
MODEL 1
REMARK VINA RESULT:    -4.332      0.000      0.000
REMARK INTER + INTRA:          -4.332
REMARK INTER:                  -4.332
REMARK INTRA:                   0.000
REMARK UNBOUND:                 0.000
REMARK  Name = No_11-gen_results/8p0m/2024-11-27-11-27-31/
REMARK  0 active torsions:
REMARK  status: ('A' for Active; 'I' for Inactive)
REMARK                            x       y       z     vdW  Elec       q    Type
REMARK                         _______ _______ _______ _____ _____    ______ ____
ROOT
ATOM      1  C   UNL A   1     -24.788  -2.651  29.083  0.00  0.00    +0.000 A 
ATOM      2  C   UNL A   1     -24.048  -3.308  28.722  0.00  0.00    +0.000 A 
ATOM      3  C   UNL A   1     -25.939  -3.338  29.681  0.00  0.00    +0.000 A 
ATOM      4  C   UNL A   1     -26.105  -4.659  29.602  0.00  0.00    +0.000 A 
ATOM      5  C   UNL A   1     -24.011  -4.736  28.514  0.00  0.00    +0.000 A 
ATOM      6  C   UNL A   1     -25.100  -5.353  29.055  0.00  0.00    +0.000 A 
ENDROOT
TORSDOF 0
ENDMDL
ENDMDL
