REMARK  Name = No_12-gen_results/8p0m/2024-11-27-11-27-31/
REMARK  1 active torsions:
REMARK  status: ('A' for Active; 'I' for Inactive)
REMARK    1  A    between atoms: C_5  and  C_6
REMARK                            x       y       z     vdW  Elec       q    Type
REMARK                         _______ _______ _______ _____ _____    ______ ____
ROOT
ATOM      1  C   UNL A   1     -28.016  -0.814  28.878  0.00  0.00    +0.173 C 
ATOM      2  C   UNL A   1     -27.064  -0.119  28.608  0.00  0.00    +0.031 A 
ATOM      3  C   UNL A   1     -25.792  -0.430  29.076  0.00  0.00    -0.019 A 
ATOM      4  C   UNL A   1     -25.531  -1.588  29.610  0.00  0.00    +0.027 C 
ATOM      5  C   UNL A   1     -26.637  -2.434  29.965  0.00  0.00    +0.012 C 
ATOM      6  C   UNL A   1     -27.898  -2.081  29.556  0.00  0.00    +0.070 C 
ATOM      7  C   UNL A   1     -27.189   1.272  27.962  0.00  0.00    +0.003 A 
ATOM      8  C   UNL A   1     -26.404   1.559  26.979  0.00  0.00    +0.000 A 
ATOM      9  C   UNL A   1     -25.235   0.834  26.665  0.00  0.00    -0.000 A 
ATOM     10  C   UNL A   1     -24.736  -0.042  27.814  0.00  0.00    -0.004 A 
ATOM     11  O   UNL A   1     -29.293  -0.493  28.687  0.00  0.00    -0.291 OA
ENDROOT
BRANCH   5  12
ATOM     12  C   UNL A   1     -26.384  -3.698  30.536  0.00  0.00    +0.001 C 
ATOM     13  C   UNL A   1     -26.118  -4.719  29.394  0.00  0.00    +0.000 C 
ENDBRANCH   5  12
TORSDOF 1
