REMARK  Name = outputs/IAG933/test6/raw/output_120_IAG933_linker_design_.xyz
REMARK  7 active torsions:
REMARK  status: ('A' for Active; 'I' for Inactive)
REMARK    1  A    between atoms: C_1  and  C_2
REMARK    2  A    between atoms: C_13  and  C_30
REMARK    3  A    between atoms: C_14  and  C_15
REMARK    4  A    between atoms: C_21  and  O_22
REMARK    5  A    between atoms: O_22  and  C_23
REMARK    6  A    between atoms: C_23  and  C_24
REMARK    7  A    between atoms: N_31  and  C_40
REMARK                            x       y       z     vdW  Elec       q    Type
REMARK                         _______ _______ _______ _____ _____    ______ ____
ROOT
ATOM      1  C   UNL A   1     -24.855  -1.012  30.143  0.00  0.00    +0.081 C 
ATOM      2  C   UNL A   1     -25.387  -0.679  31.571  0.00  0.00    +0.084 C 
ATOM      3  C   UNL A   1     -25.189   0.773  32.028  0.00  0.00    +0.053 C 
ATOM      4  C   UNL A   1     -25.336   0.684  33.544  0.00  0.00    +0.023 C 
ATOM      5  C   UNL A   1     -24.829  -0.715  33.905  0.00  0.00    +0.089 C 
ATOM      6  N   UNL A   1     -24.758  -1.481  32.646  0.00  0.00    -0.219 NA
ATOM      7  C   UNL A   1     -24.520   1.091  27.023  0.00  0.00    +0.184 C 
ATOM      8  C   UNL A   1     -22.711   0.669  28.932  0.00  0.00    +0.188 C 
ATOM      9  N   UNL A   1     -24.831   1.281  29.687  0.00  0.00    -0.174 NA
ATOM     10 CL   UNL A   1     -22.807   2.349  25.354  0.00  0.00    -0.079 Cl
ATOM     11  C   UNL A   1     -24.149   0.074  29.239  0.00  0.00    +0.186 C 
ATOM     12  O   UNL A   1     -24.637  -0.015  27.917  0.00  0.00    -0.335 OA
ATOM     13  C   UNL A   1     -25.334   1.454  30.791  0.00  0.00    +0.155 C 
ATOM     14  C   UNL A   1     -23.343   1.559  26.716  0.00  0.00    +0.226 C 
ATOM     15  O   UNL A   1     -22.357   1.161  27.651  0.00  0.00    -0.334 OA
ENDROOT
BRANCH   7  16
ATOM     16  C   UNL A   1     -25.688   1.614  26.461  0.00  0.00    +0.046 C 
ATOM     17  C   UNL A   1     -26.250   2.920  26.395  0.00  0.00    +0.075 C 
ATOM     18  C   UNL A   1     -27.438   3.091  25.645  0.00  0.00    +0.106 C 
ATOM     19  N   UNL A   1     -28.075   2.089  25.003  0.00  0.00    -0.208 NA
ATOM     20  C   UNL A   1     -27.543   0.849  25.079  0.00  0.00    +0.253 C 
ATOM     21  C   UNL A   1     -26.354   0.576  25.777  0.00  0.00    +0.192 C 
ATOM     22  F   UNL A   1     -25.860  -0.681  25.795  0.00  0.00    -0.200 F 
BRANCH  17  23
ATOM     23  C   UNL A   1     -25.642   4.093  27.123  0.00  0.00    +0.266 C 
ATOM     24  N   UNL A   1     -25.614   5.252  26.449  0.00  0.00    -0.200 NA
ATOM     25  C   UNL A   1     -25.026   6.479  26.963  0.00  0.00    +0.139 C 
ATOM     26  O   UNL A   1     -25.143   3.966  28.243  0.00  0.00    -0.268 OA
ENDBRANCH  17  23
BRANCH  20  27
ATOM     27  O   UNL A   1     -28.193  -0.208  24.477  0.00  0.00    -0.456 OA
BRANCH  27  28
ATOM     28  C   UNL A   1     -29.460   0.005  23.866  0.00  0.00    +0.243 C 
BRANCH  28  29
ATOM     29  C   UNL A   1     -30.065  -1.377  23.573  0.00  0.00    +0.229 C 
ATOM     30  O   UNL A   1     -30.729  -1.878  24.721  0.00  0.00    -0.216 OA
ENDBRANCH  28  29
ENDBRANCH  27  28
ENDBRANCH  20  27
ENDBRANCH   7  16
BRANCH  13  33
ATOM     31  C   UNL A   1     -27.198   5.170  31.041  0.00  0.00    +0.154 C 
ATOM     32  C   UNL A   1     -27.514   2.917  30.421  0.00  0.00    +0.243 C 
ATOM     33  N   UNL A   1     -26.297   2.627  31.274  0.00  0.00    -0.241 N 
ATOM     34  O   UNL A   1     -27.209   4.275  29.947  0.00  0.00    -0.334 OA
ATOM     35  C   UNL A   1     -26.780   4.700  32.455  0.00  0.00    +0.117 C 
ATOM     36  C   UNL A   1     -25.909   3.502  32.201  0.00  0.00    +0.231 C 
ATOM     37  O   UNL A   1     -24.855   3.526  32.790  0.00  0.00    -0.275 OA
ENDBRANCH  13  33
BRANCH   1  38
ATOM     38  C   UNL A   1     -24.973  -2.505  29.788  0.00  0.00    -0.017 C 
ATOM     39  C   UNL A   1     -23.906  -3.173  29.146  0.00  0.00    -0.004 C 
ATOM     40  C   UNL A   1     -23.989  -4.549  28.853  0.00  0.00    -0.000 C 
ATOM     41  C   UNL A   1     -25.137  -5.280  29.205  0.00  0.00    -0.000 C 
ATOM     42  C   UNL A   1     -26.232  -4.611  29.784  0.00  0.00    -0.000 C 
ATOM     43  C   UNL A   1     -26.155  -3.232  30.065  0.00  0.00    -0.004 C 
ENDBRANCH   1  38
TORSDOF 7
