MODEL 1200
MODEL 1
REMARK VINA RESULT:    -4.256      0.000      0.000
REMARK INTER + INTRA:          -4.256
REMARK INTER:                  -4.256
REMARK INTRA:                   0.000
REMARK UNBOUND:                 0.000
REMARK  Name = No_1200-gen_results/8p0m/2024-11-27-11-27-31/
REMARK  0 active torsions:
REMARK  status: ('A' for Active; 'I' for Inactive)
REMARK                            x       y       z     vdW  Elec       q    Type
REMARK                         _______ _______ _______ _____ _____    ______ ____
ROOT
ATOM      1  C   UNL A   1     -26.073  -4.852  29.648  0.00  0.00    +0.000 A 
ATOM      2  C   UNL A   1     -26.215  -3.654  29.733  0.00  0.00    +0.000 A 
ATOM      3  C   UNL A   1     -25.247  -2.741  29.365  0.00  0.00    +0.000 A 
ATOM      4  C   UNL A   1     -24.032  -3.242  28.818  0.00  0.00    +0.000 A 
ATOM      5  C   UNL A   1     -23.988  -4.574  28.585  0.00  0.00    +0.000 A 
ATOM      6  C   UNL A   1     -24.981  -5.369  28.934  0.00  0.00    +0.000 A 
ENDROOT
TORSDOF 0
ENDMDL
ENDMDL
