MODEL 1201
MODEL 1
REMARK VINA RESULT:    -4.306      0.000      0.000
REMARK INTER + INTRA:          -4.306
REMARK INTER:                  -4.306
REMARK INTRA:                   0.000
REMARK UNBOUND:                 0.000
REMARK  Name = No_1201-gen_results/8p0m/2024-11-27-11-27-31/
REMARK  0 active torsions:
REMARK  status: ('A' for Active; 'I' for Inactive)
REMARK                            x       y       z     vdW  Elec       q    Type
REMARK                         _______ _______ _______ _____ _____    ______ ____
ROOT
ATOM      1  C   UNL A   1     -24.928  -5.400  28.971  0.00  0.00    +0.000 A 
ATOM      2  C   UNL A   1     -24.183  -4.704  28.704  0.00  0.00    +0.000 A 
ATOM      3  C   UNL A   1     -26.099  -4.793  29.603  0.00  0.00    +0.000 A 
ATOM      4  C   UNL A   1     -26.201  -3.438  29.801  0.00  0.00    +0.000 A 
ATOM      5  C   UNL A   1     -24.023  -3.252  28.785  0.00  0.00    +0.000 A 
ATOM      6  C   UNL A   1     -25.151  -2.654  29.396  0.00  0.00    +0.000 A 
ENDROOT
TORSDOF 0
ENDMDL
ENDMDL
