MODEL 1202
MODEL 1
REMARK VINA RESULT:    -7.731      0.000      0.000
REMARK INTER + INTRA:         -12.700
REMARK INTER:                 -10.443
REMARK INTRA:                  -2.257
REMARK UNBOUND:                -2.257
REMARK  Name = No_1202-gen_results/8p0m/2024-11-27-11-27-31/
REMARK  6 active torsions:
REMARK  status: ('A' for Active; 'I' for Inactive)
REMARK    1  A    between atoms: C_2  and  O_7
REMARK    2  A    between atoms: C_4  and  C_9
REMARK    3  A    between atoms: O_7  and  C_8
REMARK    4  A    between atoms: C_19  and  C_20
REMARK    5  A    between atoms: N_21  and  C_23
REMARK    6  A    between atoms: C_28  and  C_29
REMARK                            x       y       z     vdW  Elec       q    Type
REMARK                         _______ _______ _______ _____ _____    ______ ____
ROOT
ATOM      1  C   UNL A   1     -27.335   0.779  25.475  0.00  0.00    +0.145 A 
ATOM      2  C   UNL A   1     -26.035   1.203  25.305  0.00  0.00    +0.038 A 
ATOM      3  C   UNL A   1     -25.511   2.060  26.238  0.00  0.00    +0.008 A 
ATOM      4  C   UNL A   1     -27.530   0.459  26.830  0.00  0.00    +0.038 A 
ATOM      5  C   UNL A   1     -27.033   1.369  27.893  0.00  0.00    +0.008 A 
ATOM      6  C   UNL A   1     -25.789   1.911  27.564  0.00  0.00    +0.056 A 
ENDROOT
BRANCH   6   7
ATOM      7  C   UNL A   1     -25.149   2.764  28.588  0.00  0.00    +0.269 C 
ATOM      8  N   UNL A   1     -24.012   2.499  28.963  0.00  0.00    -0.175 NA
ATOM      9  O   UNL A   1     -25.707   3.827  28.923  0.00  0.00    -0.268 OA
BRANCH   8  10
ATOM     10  C   UNL A   1     -23.171   1.343  28.586  0.00  0.00    +0.074 A 
ATOM     11  C   UNL A   1     -22.158   1.676  27.590  0.00  0.00    +0.017 A 
ATOM     12  C   UNL A   1     -20.947   0.994  27.716  0.00  0.00    +0.001 A 
ATOM     13  C   UNL A   1     -20.860  -0.206  28.470  0.00  0.00    +0.000 A 
ATOM     14  C   UNL A   1     -21.871  -0.596  29.363  0.00  0.00    +0.001 A 
ATOM     15  C   UNL A   1     -23.004   0.312  29.429  0.00  0.00    +0.016 A 
BRANCH  15  16
ATOM     16  C   UNL A   1     -24.073  -0.099  30.346  0.00  0.00    +0.012 A 
ATOM     17  C   UNL A   1     -24.383   0.480  31.402  0.00  0.00    +0.001 A 
ATOM     18  C   UNL A   1     -25.048  -1.055  29.770  0.00  0.00    +0.058 A 
ATOM     19  C   UNL A   1     -26.083  -1.546  30.599  0.00  0.00    +0.011 A 
ATOM     20  C   UNL A   1     -25.428   0.022  32.300  0.00  0.00    +0.000 A 
ATOM     21  C   UNL A   1     -26.300  -0.977  31.831  0.00  0.00    +0.001 A 
ATOM     22 CL   UNL A   1     -24.909  -1.580  28.237  0.00  0.00    -0.082 Cl
ENDBRANCH  15  16
ENDBRANCH   8  10
ENDBRANCH   6   7
BRANCH   1  23
ATOM     23  O   UNL A   1     -27.746   0.004  24.613  0.00  0.00    -0.454 OA
BRANCH  23  25
ATOM     24  C   UNL A   1     -29.477  -1.087  23.927  0.00  0.00    +0.037 A 
ATOM     25  C   UNL A   1     -29.097  -0.115  24.072  0.00  0.00    +0.145 A 
ATOM     26  C   UNL A   1     -30.839  -1.187  23.379  0.00  0.00    +0.003 A 
ATOM     27  C   UNL A   1     -31.531  -0.020  22.940  0.00  0.00    +0.002 A 
ATOM     28  C   UNL A   1     -29.576   1.231  23.657  0.00  0.00    +0.037 A 
ATOM     29  C   UNL A   1     -30.841   1.181  23.152  0.00  0.00    +0.003 A 
BRANCH  27  30
ATOM     30  C   UNL A   1     -32.868  -0.063  22.403  0.00  0.00    +0.019 A 
ATOM     31  C   UNL A   1     -33.953   0.121  23.111  0.00  0.00    +0.003 A 
ATOM     32  C   UNL A   1     -35.279   0.277  22.495  0.00  0.00    +0.021 A 
ATOM     33  C   UNL A   1     -33.172   0.789  21.209  0.00  0.00    +0.099 A 
ATOM     34  N   UNL A   1     -34.346   0.951  20.678  0.00  0.00    -0.242 NA
ATOM     35  C   UNL A   1     -35.398   1.000  21.440  0.00  0.00    +0.099 A 
ENDBRANCH  27  30
ENDBRANCH  23  25
ENDBRANCH   1  23
TORSDOF 6
ENDMDL
ENDMDL
