MODEL 1203
MODEL 1
REMARK VINA RESULT:    -5.010      0.000      0.000
REMARK INTER + INTRA:          -5.010
REMARK INTER:                  -5.010
REMARK INTRA:                   0.000
REMARK UNBOUND:                 0.000
REMARK  Name = No_1203-gen_results/8p0m/2024-11-27-11-27-31/
REMARK  0 active torsions:
REMARK  status: ('A' for Active; 'I' for Inactive)
REMARK                            x       y       z     vdW  Elec       q    Type
REMARK                         _______ _______ _______ _____ _____    ______ ____
ROOT
ATOM      1  C   UNL A   1     -10.530  -9.306  19.195  0.00  0.00    +0.042 A 
ATOM      2  C   UNL A   1      -9.774  -9.101  20.117  0.00  0.00    +0.003 A 
ATOM      3  C   UNL A   1      -8.465  -9.569  20.090  0.00  0.00    +0.000 A 
ATOM      4  C   UNL A   1      -7.981 -10.353  18.983  0.00  0.00    +0.003 A 
ATOM      5  C   UNL A   1      -8.928 -10.563  17.972  0.00  0.00    +0.042 A 
ATOM      6  C   UNL A   1     -10.159 -10.113  18.053  0.00  0.00    +0.196 A 
ATOM      7  O   UNL A   1     -11.028 -10.393  17.044  0.00  0.00    -0.287 OA
ENDROOT
TORSDOF 0
ENDMDL
ENDMDL
