MODEL 1204
MODEL 1
REMARK VINA RESULT:    -7.131      0.000      0.000
REMARK INTER + INTRA:         -10.324
REMARK INTER:                  -9.216
REMARK INTRA:                  -1.108
REMARK UNBOUND:                -1.108
REMARK  Name = No_1204-gen_results/8p0m/2024-11-27-11-27-31/
REMARK  5 active torsions:
REMARK  status: ('A' for Active; 'I' for Inactive)
REMARK    1  A    between atoms: C_1  and  C_2
REMARK    2  A    between atoms: C_5  and  C_15
REMARK    3  A    between atoms: C_9  and  O_14
REMARK    4  A    between atoms: O_14  and  C_19
REMARK    5  A    between atoms: C_20  and  C_21
REMARK                            x       y       z     vdW  Elec       q    Type
REMARK                         _______ _______ _______ _____ _____    ______ ____
ROOT
ATOM      1  C   UNL A   1      -8.636   0.491  35.813  0.00  0.00    +0.030 A 
ATOM      2  C   UNL A   1      -9.443  -0.398  36.691  0.00  0.00    +0.040 A 
ATOM      3  C   UNL A   1     -10.735   0.087  37.032  0.00  0.00    +0.146 A 
ATOM      4  C   UNL A   1     -11.368   0.887  36.126  0.00  0.00    +0.040 A 
ATOM      5  C   UNL A   1     -10.699   1.634  35.133  0.00  0.00    +0.033 A 
ATOM      6  C   UNL A   1      -9.452   1.266  34.850  0.00  0.00    +0.140 A 
ATOM      7  F   UNL A   1      -8.879   1.716  33.780  0.00  0.00    -0.204 F 
ENDROOT
BRANCH   1   8
ATOM      8  C   UNL A   1      -7.604  -0.009  35.428  0.00  0.00    +0.002 A 
ATOM      9  C   UNL A   1      -7.532  -1.255  34.838  0.00  0.00    +0.000 A 
ATOM     10  C   UNL A   1      -6.313  -1.929  34.430  0.00  0.00    +0.004 A 
ATOM     11  C   UNL A   1      -5.077  -1.277  34.629  0.00  0.00    +0.071 A 
ATOM     12  C   UNL A   1      -5.137   0.019  35.256  0.00  0.00    +0.004 A 
ATOM     13  C   UNL A   1      -6.302   0.622  35.668  0.00  0.00    +0.000 A 
BRANCH  11  14
ATOM     14  C   UNL A   1      -3.805  -1.881  34.266  0.00  0.00    +0.419 C 
ATOM     15  F   UNL A   1      -3.912  -2.738  33.386  0.00  0.00    -0.166 F 
ATOM     16  F   UNL A   1      -2.900  -0.961  33.826  0.00  0.00    -0.166 F 
ATOM     17  F   UNL A   1      -3.188  -2.440  35.350  0.00  0.00    -0.166 F 
ENDBRANCH  11  14
ENDBRANCH   1   8
BRANCH   3  18
ATOM     18  O   UNL A   1     -11.441  -0.590  37.928  0.00  0.00    -0.450 OA
BRANCH  18  19
ATOM     19  C   UNL A   1     -11.449  -1.886  37.821  0.00  0.00    +0.179 C 
ATOM     20  C   UNL A   1     -12.134  -2.614  38.752  0.00  0.00    +0.040 C 
BRANCH  20  21
ATOM     21  C   UNL A   1     -12.026  -2.251  39.993  0.00  0.00    -0.001 C 
ATOM     22  C   UNL A   1     -11.081  -2.332  40.800  0.00  0.00    -0.026 C 
ATOM     23  C   UNL A   1     -11.034  -1.893  42.183  0.00  0.00    +0.031 C 
ENDBRANCH  20  21
ENDBRANCH  18  19
ENDBRANCH   3  18
TORSDOF 5
ENDMDL
ENDMDL
