MODEL 1205
MODEL 1
REMARK VINA RESULT:    -6.470      0.000      0.000
REMARK INTER + INTRA:          -7.115
REMARK INTER:                  -6.849
REMARK INTRA:                  -0.266
REMARK UNBOUND:                -0.266
REMARK  Name = No_1205-gen_results/8p0m/2024-11-27-11-27-31/
REMARK  1 active torsions:
REMARK  status: ('A' for Active; 'I' for Inactive)
REMARK    1  A    between atoms: C_2  and  C_7
REMARK                            x       y       z     vdW  Elec       q    Type
REMARK                         _______ _______ _______ _____ _____    ______ ____
ROOT
ATOM      1  C   UNL A   1     -23.960  -1.319  28.787  0.00  0.00    +0.082 A 
ATOM      2  N   UNL A   1     -24.612  -0.392  28.304  0.00  0.00    -0.240 NA
ATOM      3  C   UNL A   1     -22.619  -1.068  29.215  0.00  0.00    +0.022 A 
ATOM      4  C   UNL A   1     -22.016   0.059  28.793  0.00  0.00    +0.045 A 
ATOM      5  C   UNL A   1     -24.076   0.791  27.931  0.00  0.00    +0.141 A 
ATOM      6  C   UNL A   1     -22.763   1.053  28.227  0.00  0.00    +0.215 A 
ATOM      7  O   UNL A   1     -22.263   2.251  27.896  0.00  0.00    -0.285 OA
ENDROOT
BRANCH   1   9
ATOM      8  C   UNL A   1     -23.844  -3.473  28.553  0.00  0.00    +0.002 A 
ATOM      9  C   UNL A   1     -24.520  -2.787  28.981  0.00  0.00    +0.018 A 
ATOM     10  C   UNL A   1     -24.215  -4.931  28.707  0.00  0.00    +0.000 A 
ATOM     11  C   UNL A   1     -25.466  -5.272  29.261  0.00  0.00    +0.000 A 
ATOM     12  C   UNL A   1     -25.876  -2.873  29.569  0.00  0.00    +0.002 A 
ATOM     13  C   UNL A   1     -26.254  -4.199  29.720  0.00  0.00    +0.000 A 
ENDBRANCH   1   9
TORSDOF 1
ENDMDL
ENDMDL
