MODEL 1206
MODEL 1
REMARK VINA RESULT:    -8.914      0.000      0.000
REMARK INTER + INTRA:         -13.462
REMARK INTER:                 -12.041
REMARK INTRA:                  -1.421
REMARK UNBOUND:                -1.421
REMARK  Name = No_1206-gen_results/8p0m/2024-11-27-11-27-31/
REMARK  6 active torsions:
REMARK  status: ('A' for Active; 'I' for Inactive)
REMARK    1  A    between atoms: C_3  and  C_19
REMARK    2  A    between atoms: C_4  and  C_7
REMARK    3  A    between atoms: C_11  and  C_15
REMARK    4  A    between atoms: C_19  and  C_20
REMARK    5  A    between atoms: C_23  and  C_24
REMARK    6  A    between atoms: C_24  and  C_27
REMARK                            x       y       z     vdW  Elec       q    Type
REMARK                         _______ _______ _______ _____ _____    ______ ____
ROOT
ATOM      1  C   UNL A   1     -25.510   3.839  26.657  0.00  0.00    +0.004 C 
ATOM      2  C   UNL A   1     -26.230   4.528  26.999  0.00  0.00    +0.053 C 
ATOM      3  C   UNL A   1     -26.060   2.638  25.919  0.00  0.00    -0.025 C 
ATOM      4  C   UNL A   1     -27.437   2.584  25.616  0.00  0.00    +0.087 C 
ATOM      5  C   UNL A   1     -27.683   4.722  26.793  0.00  0.00    -0.013 C 
ATOM      6  C   UNL A   1     -28.223   3.640  26.113  0.00  0.00    +0.046 C 
ATOM      7 CL   UNL A   1     -25.428   5.819  27.978  0.00  0.00    -0.083 Cl
ATOM      8 CL   UNL A   1     -27.537   2.830  24.467  0.00  0.00    -0.112 Cl
ENDROOT
BRANCH   4   9
ATOM      9  C   UNL A   1     -28.012   1.471  24.941  0.00  0.00    +0.026 C 
ATOM     10  C   UNL A   1     -28.807   1.800  23.804  0.00  0.00    +0.002 C 
ATOM     11  C   UNL A   1     -29.828   0.911  23.410  0.00  0.00    +0.000 C 
ATOM     12  C   UNL A   1     -30.008  -0.300  24.123  0.00  0.00    +0.001 C 
ATOM     13  C   UNL A   1     -28.840   0.555  25.848  0.00  0.00    +0.093 C 
ATOM     14  C   UNL A   1     -29.856  -0.059  25.416  0.00  0.00    +0.010 C 
ATOM     15  C   UNL A   1     -26.836   0.465  24.378  0.00  0.00    +0.002 C 
BRANCH  13  16
ATOM     16  C   UNL A   1     -28.364   0.376  27.207  0.00  0.00    +0.310 C 
ATOM     17  O   UNL A   1     -28.168   0.612  28.207  0.00  0.00    -0.259 OA
ATOM     18  F   UNL A   1     -29.694   0.423  27.405  0.00  0.00    -0.164 F 
ENDBRANCH  13  16
ENDBRANCH   4   9
BRANCH   3  19
ATOM     19  C   UNL A   1     -25.173   1.498  25.794  0.00  0.00    +0.050 C 
BRANCH  19  20
ATOM     20  C   UNL A   1     -24.379   1.069  26.875  0.00  0.00    -0.018 A 
ATOM     21  C   UNL A   1     -24.749   0.020  27.728  0.00  0.00    -0.008 A 
ATOM     22  C   UNL A   1     -23.015   1.494  26.776  0.00  0.00    -0.004 A 
ATOM     23  C   UNL A   1     -23.753  -0.375  28.698  0.00  0.00    -0.019 A 
ATOM     24  C   UNL A   1     -22.138   1.114  27.777  0.00  0.00    -0.001 A 
ATOM     25  C   UNL A   1     -22.545   0.186  28.661  0.00  0.00    -0.004 A 
BRANCH  23  26
ATOM     26  C   UNL A   1     -24.171  -1.335  29.567  0.00  0.00    +0.045 C 
ATOM     27  C   UNL A   1     -24.666  -0.957  30.826  0.00  0.00    +0.009 C 
BRANCH  26  28
ATOM     28  C   UNL A   1     -24.248  -2.560  29.220  0.00  0.00    -0.018 A 
ATOM     29  C   UNL A   1     -23.804  -3.426  28.823  0.00  0.00    -0.004 A 
ATOM     30  C   UNL A   1     -24.180  -4.840  28.590  0.00  0.00    -0.000 A 
ATOM     31  C   UNL A   1     -25.390  -5.173  29.106  0.00  0.00    -0.000 A 
ATOM     32  C   UNL A   1     -26.204  -4.215  29.710  0.00  0.00    -0.000 A 
ATOM     33  C   UNL A   1     -25.684  -2.941  29.881  0.00  0.00    -0.004 A 
ENDBRANCH  26  28
ENDBRANCH  23  26
ENDBRANCH  19  20
ENDBRANCH   3  19
TORSDOF 6
ENDMDL
ENDMDL
