REMARK  Name = outputs/IAG933/test6/raw/output_1206_IAG933_linker_design_.xyz
REMARK  12 active torsions:
REMARK  status: ('A' for Active; 'I' for Inactive)
REMARK    1  A    between atoms: C_1  and  C_2
REMARK    2  A    between atoms: C_1  and  C_8
REMARK    3  A    between atoms: C_1  and  C_39
REMARK    4  A    between atoms: C_13  and  C_34
REMARK    5  A    between atoms: C_14  and  C_15
REMARK    6  A    between atoms: C_21  and  O_22
REMARK    7  A    between atoms: O_22  and  C_23
REMARK    8  A    between atoms: C_23  and  C_24
REMARK    9  A    between atoms: C_31  and  C_41
REMARK   10  A    between atoms: C_32  and  C_34
REMARK   11  A    between atoms: C_34  and  O_37
REMARK   12  A    between atoms: O_37  and  O_38
REMARK                            x       y       z     vdW  Elec       q    Type
REMARK                         _______ _______ _______ _____ _____    ______ ____
ROOT
ATOM      1  C   UNL A   1     -22.235   1.043  27.791  0.00  0.00    +0.049 C 
ATOM      2  O   UNL A   1     -22.553  -0.669  29.226  0.00  0.00    -0.319 OA
ATOM      3  C   UNL A   1     -21.628   0.314  28.589  0.00  0.00    +0.153 C 
ATOM      4  C   UNL A   1     -23.658   1.211  27.818  0.00  0.00    +0.111 C 
ATOM      5  C   UNL A   1     -21.530   1.792  26.858  0.00  0.00    +0.004 C 
ATOM      6  N   UNL A   1     -24.301   0.921  28.952  0.00  0.00    -0.167 NA
ATOM      7  C   UNL A   1     -23.586  -0.074  29.804  0.00  0.00    +0.289 C 
ATOM      8  O   UNL A   1     -22.832   0.622  30.837  0.00  0.00    -0.175 OA
ENDROOT
BRANCH   3  10
ATOM      9  O   UNL A   1     -19.639   0.868  28.389  0.00  0.00    -0.218 OA
ATOM     10  C   UNL A   1     -20.435  -0.053  28.427  0.00  0.00    +0.212 C 
ENDBRANCH   3  10
BRANCH   7  11
ATOM     11  C   UNL A   1     -24.855  -1.012  30.143  0.00  0.00    +0.110 C 
BRANCH  11  12
ATOM     12  C   UNL A   1     -24.973  -2.505  29.788  0.00  0.00    -0.015 C 
ATOM     13  C   UNL A   1     -23.906  -3.173  29.146  0.00  0.00    -0.004 C 
ATOM     14  C   UNL A   1     -23.989  -4.549  28.853  0.00  0.00    -0.000 C 
ATOM     15  C   UNL A   1     -25.137  -5.280  29.205  0.00  0.00    -0.000 C 
ATOM     16  C   UNL A   1     -26.232  -4.611  29.784  0.00  0.00    -0.000 C 
ATOM     17  C   UNL A   1     -26.155  -3.232  30.065  0.00  0.00    -0.004 C 
ENDBRANCH  11  12
BRANCH  11  18
ATOM     18  C   UNL A   1     -25.387  -0.679  31.571  0.00  0.00    +0.083 C 
ATOM     19  C   UNL A   1     -25.189   0.773  32.028  0.00  0.00    +0.019 C 
ATOM     20  C   UNL A   1     -25.336   0.684  33.544  0.00  0.00    +0.020 C 
ATOM     21  C   UNL A   1     -24.829  -0.715  33.905  0.00  0.00    +0.089 C 
ATOM     22  N   UNL A   1     -24.758  -1.481  32.646  0.00  0.00    -0.219 NA
ENDBRANCH  11  18
ENDBRANCH   7  11
BRANCH   4  23
ATOM     23  C   UNL A   1     -24.293   1.576  26.635  0.00  0.00    +0.179 C 
BRANCH  23  24
ATOM     24  C   UNL A   1     -25.688   1.614  26.461  0.00  0.00    +0.102 C 
ATOM     25  C   UNL A   1     -26.250   2.920  26.395  0.00  0.00    +0.057 C 
ATOM     26  C   UNL A   1     -27.438   3.091  25.645  0.00  0.00    +0.102 C 
ATOM     27  N   UNL A   1     -28.075   2.089  25.003  0.00  0.00    -0.212 NA
ATOM     28  C   UNL A   1     -27.543   0.849  25.079  0.00  0.00    +0.234 C 
ATOM     29  C   UNL A   1     -26.354   0.576  25.777  0.00  0.00    +0.242 C 
ATOM     30  F   UNL A   1     -25.860  -0.681  25.795  0.00  0.00    -0.227 F 
BRANCH  25  31
ATOM     31  C   UNL A   1     -25.642   4.093  27.123  0.00  0.00    +0.263 C 
ATOM     32  N   UNL A   1     -25.614   5.252  26.449  0.00  0.00    -0.200 NA
ATOM     33  C   UNL A   1     -25.026   6.479  26.963  0.00  0.00    +0.139 C 
ATOM     34  O   UNL A   1     -25.143   3.966  28.243  0.00  0.00    -0.269 OA
ENDBRANCH  25  31
BRANCH  28  35
ATOM     35  O   UNL A   1     -28.193  -0.208  24.477  0.00  0.00    -0.459 OA
BRANCH  35  36
ATOM     36  C   UNL A   1     -29.460   0.005  23.866  0.00  0.00    +0.242 C 
BRANCH  36  37
ATOM     37  C   UNL A   1     -30.065  -1.377  23.573  0.00  0.00    +0.229 C 
ATOM     38  O   UNL A   1     -30.729  -1.878  24.721  0.00  0.00    -0.216 OA
ENDBRANCH  36  37
ENDBRANCH  35  36
ENDBRANCH  28  35
ENDBRANCH  23  24
BRANCH  23  39
ATOM     39  O   UNL A   1     -23.428   2.074  25.743  0.00  0.00    -0.188 OA
BRANCH  39  41
ATOM     40  F   UNL A   1     -22.626   2.817  25.261  0.00  0.00    -0.015 F 
ATOM     41  O   UNL A   1     -22.299   2.332  25.749  0.00  0.00    -0.022 OA
ENDBRANCH  39  41
ENDBRANCH  23  39
ENDBRANCH   4  23
TORSDOF 12
