MODEL 1207
MODEL 1
REMARK VINA RESULT:    -7.211      0.000      0.000
REMARK INTER + INTRA:         -14.783
REMARK INTER:                 -10.584
REMARK INTRA:                  -4.199
REMARK UNBOUND:                -4.199
REMARK  Name = No_1207-gen_results/8p0m/2024-11-27-11-27-31/
REMARK  8 active torsions:
REMARK  status: ('A' for Active; 'I' for Inactive)
REMARK    1  A    between atoms: C_4  and  C_11
REMARK    2  A    between atoms: C_7  and  O_16
REMARK    3  A    between atoms: O_16  and  C_17
REMARK    4  A    between atoms: C_17  and  C_18
REMARK    5  A    between atoms: C_17  and  N_22
REMARK    6  A    between atoms: N_22  and  C_27
REMARK    7  A    between atoms: C_27  and  C_28
REMARK    8  A    between atoms: C_28  and  C_29
REMARK                            x       y       z     vdW  Elec       q    Type
REMARK                         _______ _______ _______ _____ _____    ______ ____
ROOT
ATOM      1  C   UNL A   1      -7.439   1.075   8.635  0.00  0.00    +0.037 A 
ATOM      2  C   UNL A   1      -8.207   1.963   8.924  0.00  0.00    +0.003 A 
ATOM      3  C   UNL A   1      -8.861   1.975  10.151  0.00  0.00    +0.005 A 
ATOM      4  C   UNL A   1      -9.835   3.003  10.619  0.00  0.00    +0.054 A 
ATOM      5  C   UNL A   1     -10.517   2.989  11.886  0.00  0.00    +0.004 A 
ATOM      6  C   UNL A   1      -9.975   2.026  12.780  0.00  0.00    +0.000 A 
ATOM      7  C   UNL A   1      -7.318  -0.113   9.517  0.00  0.00    +0.141 A 
ATOM      8  C   UNL A   1      -7.870  -0.127  10.778  0.00  0.00    +0.037 A 
ATOM      9  C   UNL A   1      -8.720   0.905  11.156  0.00  0.00    +0.003 A 
ATOM     10  C   UNL A   1      -9.270   0.981  12.449  0.00  0.00    +0.000 A 
ENDROOT
BRANCH   4  11
ATOM     11  C   UNL A   1     -10.190   4.158   9.739  0.00  0.00    +0.249 C 
ATOM     12  N   UNL A   1      -9.633   5.228   9.939  0.00  0.00    -0.278 N 
ATOM     13  C   UNL A   1      -9.655   6.308   9.242  0.00  0.00    +0.076 C 
ATOM     14  O   UNL A   1     -10.972   3.903   8.815  0.00  0.00    -0.270 OA
ATOM     15  C   UNL A   1      -8.857   5.553  11.191  0.00  0.00    +0.094 C 
ATOM     16  C   UNL A   1      -8.384   6.436  11.355  0.00  0.00    +0.022 C 
ATOM     17  C   UNL A   1     -10.553   6.119   8.043  0.00  0.00    +0.021 C 
ATOM     18  C   UNL A   1      -8.936   7.446   9.531  0.00  0.00    +0.020 C 
ATOM     19  C   UNL A   1      -8.250   7.574  10.597  0.00  0.00    +0.004 C 
ENDBRANCH   4  11
BRANCH   7  20
ATOM     20  O   UNL A   1      -6.479  -1.120   9.096  0.00  0.00    -0.455 OA
BRANCH  20  21
ATOM     21  C   UNL A   1      -5.206  -0.805   8.760  0.00  0.00    +0.338 C 
BRANCH  21  22
ATOM     22  C   UNL A   1      -4.883  -1.339   7.496  0.00  0.00    +0.451 C 
ATOM     23  F   UNL A   1      -4.377  -2.372   7.353  0.00  0.00    -0.165 F 
ATOM     24  F   UNL A   1      -4.068  -0.420   6.709  0.00  0.00    -0.165 F 
ATOM     25  F   UNL A   1      -6.072  -1.463   6.735  0.00  0.00    -0.165 F 
ENDBRANCH  21  22
BRANCH  21  26
ATOM     26  N   UNL A   1      -4.295  -1.300   9.792  0.00  0.00    -0.172 NA
BRANCH  26  27
ATOM     27  C   UNL A   1      -3.795  -0.605  10.738  0.00  0.00    +0.097 C 
BRANCH  27  28
ATOM     28  C   UNL A   1      -3.764   0.733  10.435  0.00  0.00    +0.040 C 
ATOM     29  C   UNL A   1      -2.323   1.263  10.231  0.00  0.00    +0.006 C 
BRANCH  28  30
ATOM     30  C   UNL A   1      -4.403   1.574  11.318  0.00  0.00    -0.021 A 
ATOM     31  C   UNL A   1      -4.826   2.772  10.743  0.00  0.00    -0.004 A 
ATOM     32  C   UNL A   1      -5.832   3.570  11.370  0.00  0.00    -0.000 A 
ATOM     33  C   UNL A   1      -6.264   3.158  12.646  0.00  0.00    -0.000 A 
ATOM     34  C   UNL A   1      -5.808   2.033  13.237  0.00  0.00    -0.000 A 
ATOM     35  C   UNL A   1      -4.984   1.196  12.482  0.00  0.00    -0.004 A 
ENDBRANCH  28  30
ENDBRANCH  27  28
ENDBRANCH  26  27
ENDBRANCH  21  26
ENDBRANCH  20  21
ENDBRANCH   7  20
TORSDOF 8
ENDMDL
ENDMDL
