REMARK  Name = outputs/IAG933/test6/raw/output_1208_IAG933_linker_design_.xyz
REMARK  13 active torsions:
REMARK  status: ('A' for Active; 'I' for Inactive)
REMARK    1  A    between atoms: C_1  and  C_2
REMARK    2  A    between atoms: C_1  and  C_8
REMARK    3  A    between atoms: C_1  and  N_33
REMARK    4  A    between atoms: C_13  and  N_32
REMARK    5  A    between atoms: C_14  and  C_15
REMARK    6  A    between atoms: C_21  and  O_22
REMARK    7  A    between atoms: O_22  and  C_23
REMARK    8  A    between atoms: C_23  and  C_24
REMARK    9  A    between atoms: C_28  and  C_30
REMARK   10  A    between atoms: C_28  and  N_33
REMARK   11  A    between atoms: C_30  and  C_39
REMARK   12  A    between atoms: N_32  and  C_37
REMARK   13  A    between atoms: C_34  and  C_37
REMARK                            x       y       z     vdW  Elec       q    Type
REMARK                         _______ _______ _______ _____ _____    ______ ____
ROOT
ATOM      1  N   UNL A   1     -24.722   0.004  29.084  0.00  0.00    -0.187 N 
ATOM      2  C   UNL A   1     -23.465   0.317  28.795  0.00  0.00    +0.372 C 
ATOM      3  N   UNL A   1     -22.416   0.001  29.490  0.00  0.00    +0.190 NA
ENDROOT
BRANCH   2   4
ATOM      4  C   UNL A   1     -23.406   1.171  27.605  0.00  0.00    +0.202 C 
ATOM      5  C   UNL A   1     -22.029   1.701  27.177  0.00  0.00    +0.037 C 
BRANCH   4   6
ATOM      6  N   UNL A   1     -24.413   1.491  26.939  0.00  0.00    -0.224 NA
BRANCH   6   7
ATOM      7  C   UNL A   1     -25.688   1.614  26.461  0.00  0.00    +0.104 C 
ATOM      8  C   UNL A   1     -26.250   2.920  26.395  0.00  0.00    +0.091 C 
ATOM      9  C   UNL A   1     -27.438   3.091  25.645  0.00  0.00    +0.108 C 
ATOM     10  N   UNL A   1     -28.075   2.089  25.003  0.00  0.00    -0.208 NA
ATOM     11  C   UNL A   1     -27.543   0.849  25.079  0.00  0.00    +0.255 C 
ATOM     12  C   UNL A   1     -26.354   0.576  25.777  0.00  0.00    +0.208 C 
ATOM     13  F   UNL A   1     -25.860  -0.681  25.795  0.00  0.00    -0.198 F 
BRANCH   8  14
ATOM     14  C   UNL A   1     -25.642   4.093  27.123  0.00  0.00    +0.268 C 
ATOM     15  N   UNL A   1     -25.614   5.252  26.449  0.00  0.00    -0.200 NA
ATOM     16  C   UNL A   1     -25.026   6.479  26.963  0.00  0.00    +0.139 C 
ATOM     17  O   UNL A   1     -25.143   3.966  28.243  0.00  0.00    -0.268 OA
ENDBRANCH   8  14
BRANCH  11  18
ATOM     18  O   UNL A   1     -28.193  -0.208  24.477  0.00  0.00    -0.456 OA
BRANCH  18  19
ATOM     19  C   UNL A   1     -29.460   0.005  23.866  0.00  0.00    +0.243 C 
BRANCH  19  20
ATOM     20  C   UNL A   1     -30.065  -1.377  23.573  0.00  0.00    +0.229 C 
ATOM     21  O   UNL A   1     -30.729  -1.878  24.721  0.00  0.00    -0.216 OA
ENDBRANCH  19  20
ENDBRANCH  18  19
ENDBRANCH  11  18
ENDBRANCH   6   7
ENDBRANCH   4   6
ENDBRANCH   2   4
BRANCH   1  22
ATOM     22  C   UNL A   1     -24.855  -1.012  30.143  0.00  0.00    +0.198 C 
BRANCH  22  23
ATOM     23  C   UNL A   1     -24.973  -2.505  29.788  0.00  0.00    +0.021 C 
ATOM     24  C   UNL A   1     -23.906  -3.173  29.146  0.00  0.00    -0.000 C 
ATOM     25  C   UNL A   1     -23.989  -4.549  28.853  0.00  0.00    -0.000 C 
ATOM     26  C   UNL A   1     -25.137  -5.280  29.205  0.00  0.00    -0.000 C 
ATOM     27  C   UNL A   1     -26.232  -4.611  29.784  0.00  0.00    -0.000 C 
ATOM     28  C   UNL A   1     -26.155  -3.232  30.065  0.00  0.00    -0.000 C 
ENDBRANCH  22  23
BRANCH  22  29
ATOM     29  C   UNL A   1     -25.387  -0.679  31.571  0.00  0.00    +0.120 C 
ATOM     30  C   UNL A   1     -25.189   0.773  32.028  0.00  0.00    +0.023 C 
ATOM     31  C   UNL A   1     -25.336   0.684  33.544  0.00  0.00    +0.020 C 
ATOM     32  C   UNL A   1     -24.829  -0.715  33.905  0.00  0.00    +0.089 C 
ATOM     33  N   UNL A   1     -24.758  -1.481  32.646  0.00  0.00    -0.215 NA
ENDBRANCH  22  29
ENDBRANCH   1  22
BRANCH   1  34
ATOM     34  C   UNL A   1     -25.993  -0.205  28.398  0.00  0.00    +0.207 C 
BRANCH  34  35
ATOM     35  C   UNL A   1     -27.132  -0.373  29.357  0.00  0.00    +0.077 C 
BRANCH  35  40
ATOM     36  C   UNL A   1     -28.765   1.175  30.470  0.00  0.00    -0.004 C 
ATOM     37  C   UNL A   1     -29.017   0.500  28.157  0.00  0.00    -0.004 C 
ATOM     38  C   UNL A   1     -30.491   2.181  29.133  0.00  0.00    -0.000 C 
ATOM     39  C   UNL A   1     -30.115   1.379  28.037  0.00  0.00    -0.000 C 
ATOM     40  C   UNL A   1     -28.313   0.462  29.348  0.00  0.00    -0.018 C 
ATOM     41  C   UNL A   1     -29.823   2.068  30.344  0.00  0.00    -0.000 C 
ENDBRANCH  35  40
ENDBRANCH  34  35
ENDBRANCH   1  34
TORSDOF 13
