MODEL 1209
MODEL 1
REMARK VINA RESULT:    -6.912      0.000      0.000
REMARK INTER + INTRA:          -8.711
REMARK INTER:                  -8.124
REMARK INTRA:                  -0.586
REMARK UNBOUND:                -0.586
REMARK  Name = No_1209-gen_results/8p0m/2024-11-27-11-27-31/
REMARK  3 active torsions:
REMARK  status: ('A' for Active; 'I' for Inactive)
REMARK    1  A    between atoms: C_2  and  C_7
REMARK    2  A    between atoms: C_4  and  C_10
REMARK    3  A    between atoms: C_10  and  C_11
REMARK                            x       y       z     vdW  Elec       q    Type
REMARK                         _______ _______ _______ _____ _____    ______ ____
ROOT
ATOM      1  C   UNL A   1     -24.442   0.824  26.626  0.00  0.00    +0.006 A 
ATOM      2  C   UNL A   1     -23.569   1.408  26.714  0.00  0.00    +0.080 A 
ATOM      3  C   UNL A   1     -24.660  -0.188  27.728  0.00  0.00    -0.004 A 
ATOM      4  C   UNL A   1     -23.823  -0.316  28.588  0.00  0.00    -0.018 A 
ATOM      5  C   UNL A   1     -22.478   1.487  27.688  0.00  0.00    +0.006 A 
ATOM      6  C   UNL A   1     -22.648   0.525  28.673  0.00  0.00    -0.004 A 
ENDROOT
BRANCH   2   7
ATOM      7  C   UNL A   1     -23.308   2.549  25.607  0.00  0.00    +0.388 C 
ATOM      8  O   UNL A   1     -22.472   2.257  24.853  0.00  0.00    -0.241 OA
ATOM      9  O   UNL A   1     -24.008   3.655  25.546  0.00  0.00    -0.241 OA
ENDBRANCH   2   7
BRANCH   4  10
ATOM     10  C   UNL A   1     -23.951  -1.339  29.737  0.00  0.00    +0.053 C 
BRANCH  10  11
ATOM     11  C   UNL A   1     -24.407  -2.612  29.415  0.00  0.00    -0.018 A 
ATOM     12  C   UNL A   1     -23.810  -3.629  28.914  0.00  0.00    -0.004 A 
ATOM     13  C   UNL A   1     -24.121  -4.572  28.593  0.00  0.00    -0.000 A 
ATOM     14  C   UNL A   1     -25.535  -5.019  28.929  0.00  0.00    -0.000 A 
ATOM     15  C   UNL A   1     -25.751  -2.948  29.933  0.00  0.00    -0.004 A 
ATOM     16  C   UNL A   1     -26.202  -4.198  29.785  0.00  0.00    -0.000 A 
ENDBRANCH  10  11
ENDBRANCH   4  10
TORSDOF 3
ENDMDL
ENDMDL
