MODEL 120
MODEL 1
REMARK VINA RESULT:    -7.281      0.000      0.000
REMARK INTER + INTRA:         -10.572
REMARK INTER:                  -9.834
REMARK INTRA:                  -0.738
REMARK UNBOUND:                -0.738
REMARK  Name = No_120-gen_results/8p0m/2024-11-27-11-27-31/
REMARK  6 active torsions:
REMARK  status: ('A' for Active; 'I' for Inactive)
REMARK    1  A    between atoms: C_1  and  O_20
REMARK    2  A    between atoms: C_3  and  C_9
REMARK    3  A    between atoms: C_6  and  O_8
REMARK    4  A    between atoms: O_8  and  C_15
REMARK    5  A    between atoms: C_15  and  C_16
REMARK    6  A    between atoms: O_20  and  C_21
REMARK                            x       y       z     vdW  Elec       q    Type
REMARK                         _______ _______ _______ _____ _____    ______ ____
ROOT
ATOM      1  C   UNL A   1     -25.008  -0.523  28.379  0.00  0.00    +0.189 A 
ATOM      2  C   UNL A   1     -25.821  -0.009  27.646  0.00  0.00    +0.095 A 
ATOM      3  C   UNL A   1     -25.433   0.907  26.675  0.00  0.00    +0.010 A 
ATOM      4  C   UNL A   1     -24.056   1.308  26.541  0.00  0.00    -0.018 A 
ATOM      5  C   UNL A   1     -23.187   0.683  27.445  0.00  0.00    +0.036 A 
ATOM      6  C   UNL A   1     -23.607  -0.165  28.356  0.00  0.00    +0.174 A 
ATOM      7 CL   UNL A   1     -27.502  -0.331  27.697  0.00  0.00    -0.079 Cl
ATOM      8  C   UNL A   1     -23.684   2.244  25.529  0.00  0.00    +0.031 C 
ENDROOT
BRANCH   3   9
ATOM      9  C   UNL A   1     -26.371   1.587  25.675  0.00  0.00    +0.001 A 
ATOM     10  C   UNL A   1     -26.970   2.776  26.091  0.00  0.00    +0.000 A 
ATOM     11  C   UNL A   1     -27.656   3.431  25.543  0.00  0.00    +0.000 A 
ATOM     12  C   UNL A   1     -28.243   2.901  24.267  0.00  0.00    +0.000 A 
ATOM     13  C   UNL A   1     -27.843   1.652  23.842  0.00  0.00    +0.000 A 
ATOM     14  C   UNL A   1     -26.892   1.001  24.556  0.00  0.00    +0.000 A 
ENDBRANCH   3   9
BRANCH   6  15
ATOM     15  O   UNL A   1     -22.690  -0.704  29.218  0.00  0.00    -0.461 OA
BRANCH  15  16
ATOM     16  C   UNL A   1     -22.220  -0.038  30.321  0.00  0.00    +0.319 C 
BRANCH  16  17
ATOM     17  C   UNL A   1     -22.913  -0.405  31.502  0.00  0.00    +0.408 C 
ATOM     18  O   UNL A   1     -23.820   0.317  31.809  0.00  0.00    -0.241 OA
ATOM     19  O   UNL A   1     -22.357  -1.183  32.384  0.00  0.00    -0.241 OA
ENDBRANCH  16  17
ENDBRANCH  15  16
ENDBRANCH   6  15
BRANCH   1  20
ATOM     20  O   UNL A   1     -25.227  -1.336  29.486  0.00  0.00    -0.450 OA
BRANCH  20  21
ATOM     21  C   UNL A   1     -25.121  -2.658  29.325  0.00  0.00    +0.145 A 
ATOM     22  C   UNL A   1     -26.357  -3.211  29.937  0.00  0.00    +0.037 A 
ATOM     23  C   UNL A   1     -26.537  -4.500  29.731  0.00  0.00    +0.003 A 
ATOM     24  C   UNL A   1     -25.460  -5.252  29.282  0.00  0.00    +0.000 A 
ATOM     25  C   UNL A   1     -24.318  -4.724  28.751  0.00  0.00    +0.003 A 
ATOM     26  C   UNL A   1     -24.223  -3.367  28.781  0.00  0.00    +0.037 A 
ENDBRANCH  20  21
ENDBRANCH   1  20
TORSDOF 6
ENDMDL
ENDMDL
