MODEL 1210
MODEL 1
REMARK VINA RESULT:    -6.339      0.000      0.000
REMARK INTER + INTRA:          -6.339
REMARK INTER:                  -6.339
REMARK INTRA:                   0.000
REMARK UNBOUND:                 0.000
REMARK  Name = No_1210-gen_results/8p0m/2024-11-27-11-27-31/
REMARK  0 active torsions:
REMARK  status: ('A' for Active; 'I' for Inactive)
REMARK                            x       y       z     vdW  Elec       q    Type
REMARK                         _______ _______ _______ _____ _____    ______ ____
ROOT
ATOM      1  C   UNL A   1     -28.855 -10.426  33.133  0.00  0.00    +0.000 A 
ATOM      2  C   UNL A   1     -29.128 -10.821  32.023  0.00  0.00    +0.000 A 
ATOM      3  C   UNL A   1     -28.399 -11.756  31.307  0.00  0.00    +0.000 A 
ATOM      4  C   UNL A   1     -27.254 -12.314  31.949  0.00  0.00    +0.000 A 
ATOM      5  C   UNL A   1     -27.065 -11.979  33.235  0.00  0.00    +0.000 A 
ATOM      6  C   UNL A   1     -27.831 -11.121  33.844  0.00  0.00    +0.000 A 
ATOM      7  C   UNL A   1     -28.701 -12.110  29.874  0.00  0.00    +0.000 A 
ATOM      8  C   UNL A   1     -29.426 -11.176  29.236  0.00  0.00    +0.000 A 
ATOM      9  C   UNL A   1     -30.199 -10.183  29.906  0.00  0.00    +0.000 A 
ATOM     10  C   UNL A   1     -30.053  -9.962  31.173  0.00  0.00    +0.000 A 
ATOM     11  C   UNL A   1     -29.861 -11.501  27.783  0.00  0.00    +0.000 A 
ATOM     12  C   UNL A   1     -30.572 -10.551  27.021  0.00  0.00    +0.000 A 
ATOM     13  C   UNL A   1     -31.157  -9.431  27.713  0.00  0.00    +0.000 A 
ATOM     14  C   UNL A   1     -30.987  -9.258  29.109  0.00  0.00    +0.000 A 
ENDROOT
TORSDOF 0
ENDMDL
ENDMDL
