REMARK  Name = outputs/IAG933/test6/raw/output_1210_IAG933_linker_design_.xyz
REMARK  11 active torsions:
REMARK  status: ('A' for Active; 'I' for Inactive)
REMARK    1  A    between atoms: C_1  and  C_2
REMARK    2  A    between atoms: C_1  and  C_8
REMARK    3  A    between atoms: C_1  and  N_41
REMARK    4  A    between atoms: C_13  and  C_33
REMARK    5  A    between atoms: C_14  and  C_15
REMARK    6  A    between atoms: C_21  and  O_22
REMARK    7  A    between atoms: O_22  and  C_23
REMARK    8  A    between atoms: C_23  and  C_24
REMARK    9  A    between atoms: C_28  and  C_34
REMARK   10  A    between atoms: C_34  and  N_41
REMARK   11  A    between atoms: C_36  and  N_41
REMARK                            x       y       z     vdW  Elec       q    Type
REMARK                         _______ _______ _______ _____ _____    ______ ____
ROOT
ATOM      1  N   UNL A   1     -24.760  -0.100  29.015  0.00  0.00    -0.264 NA
ENDROOT
BRANCH   1   5
ATOM      2  O   UNL A   1     -23.381   2.323  26.869  0.00  0.00    -0.350 OA
ATOM      3  C   UNL A   1     -24.227   1.346  26.957  0.00  0.00    +0.154 C 
ATOM      4  C   UNL A   1     -22.503   1.001  28.585  0.00  0.00    +0.051 C 
ATOM      5  C   UNL A   1     -23.727   0.259  28.015  0.00  0.00    +0.092 C 
ATOM      6  C   UNL A   1     -22.187   1.842  27.385  0.00  0.00    +0.144 C 
BRANCH   3   7
ATOM      7  C   UNL A   1     -25.688   1.614  26.461  0.00  0.00    +0.044 C 
ATOM      8  C   UNL A   1     -26.250   2.920  26.395  0.00  0.00    +0.075 C 
ATOM      9  C   UNL A   1     -27.438   3.091  25.645  0.00  0.00    +0.106 C 
ATOM     10  N   UNL A   1     -28.075   2.089  25.003  0.00  0.00    -0.208 NA
ATOM     11  C   UNL A   1     -27.543   0.849  25.079  0.00  0.00    +0.253 C 
ATOM     12  C   UNL A   1     -26.354   0.576  25.777  0.00  0.00    +0.191 C 
ATOM     13  F   UNL A   1     -25.860  -0.681  25.795  0.00  0.00    -0.200 F 
BRANCH   8  14
ATOM     14  C   UNL A   1     -25.642   4.093  27.123  0.00  0.00    +0.266 C 
ATOM     15  N   UNL A   1     -25.614   5.252  26.449  0.00  0.00    -0.200 NA
ATOM     16  C   UNL A   1     -25.026   6.479  26.963  0.00  0.00    +0.139 C 
ATOM     17  O   UNL A   1     -25.143   3.966  28.243  0.00  0.00    -0.268 OA
ENDBRANCH   8  14
BRANCH  11  18
ATOM     18  O   UNL A   1     -28.193  -0.208  24.477  0.00  0.00    -0.456 OA
BRANCH  18  19
ATOM     19  C   UNL A   1     -29.460   0.005  23.866  0.00  0.00    +0.243 C 
BRANCH  19  20
ATOM     20  C   UNL A   1     -30.065  -1.377  23.573  0.00  0.00    +0.229 C 
ATOM     21  O   UNL A   1     -30.729  -1.878  24.721  0.00  0.00    -0.216 OA
ENDBRANCH  19  20
ENDBRANCH  18  19
ENDBRANCH  11  18
ENDBRANCH   3   7
ENDBRANCH   1   5
BRANCH   1  22
ATOM     22  C   UNL A   1     -24.855  -1.012  30.143  0.00  0.00    +0.097 C 
BRANCH  22  23
ATOM     23  C   UNL A   1     -24.973  -2.505  29.788  0.00  0.00    -0.006 C 
ATOM     24  C   UNL A   1     -23.906  -3.173  29.146  0.00  0.00    -0.003 C 
ATOM     25  C   UNL A   1     -23.989  -4.549  28.853  0.00  0.00    -0.000 C 
ATOM     26  C   UNL A   1     -25.137  -5.280  29.205  0.00  0.00    -0.000 C 
ATOM     27  C   UNL A   1     -26.232  -4.611  29.784  0.00  0.00    -0.000 C 
ATOM     28  C   UNL A   1     -26.155  -3.232  30.065  0.00  0.00    -0.003 C 
ENDBRANCH  22  23
BRANCH  22  29
ATOM     29  C   UNL A   1     -25.387  -0.679  31.571  0.00  0.00    +0.092 C 
ATOM     30  C   UNL A   1     -25.189   0.773  32.028  0.00  0.00    +0.021 C 
ATOM     31  C   UNL A   1     -25.336   0.684  33.544  0.00  0.00    +0.020 C 
ATOM     32  C   UNL A   1     -24.829  -0.715  33.905  0.00  0.00    +0.089 C 
ATOM     33  N   UNL A   1     -24.758  -1.481  32.646  0.00  0.00    -0.218 NA
ENDBRANCH  22  29
ENDBRANCH   1  22
BRANCH   1  34
ATOM     34  C   UNL A   1     -25.847   0.539  28.635  0.00  0.00    +0.099 C 
BRANCH  34  35
ATOM     35  C   UNL A   1     -26.922  -0.262  28.573  0.00  0.00    -0.017 C 
ATOM     36  O   UNL A   1     -31.208   1.933  27.300  0.00  0.00    -0.223 OA
ATOM     37  C   UNL A   1     -29.854  -0.024  27.571  0.00  0.00    +0.037 C 
ATOM     38  C   UNL A   1     -30.056   1.472  27.895  0.00  0.00    +0.153 C 
ATOM     39  C   UNL A   1     -28.240   1.316  29.686  0.00  0.00    +0.024 C 
ATOM     40  C   UNL A   1     -29.182  -0.601  28.817  0.00  0.00    +0.024 C 
ATOM     41  C   UNL A   1     -28.009   0.051  29.042  0.00  0.00    -0.047 C 
ATOM     42  C   UNL A   1     -29.383   2.143  29.088  0.00  0.00    +0.037 C 
ENDBRANCH  34  35
ENDBRANCH   1  34
TORSDOF 11
