REMARK  Name = outputs/IAG933/test6/raw/output_1211_IAG933_linker_design_.xyz
REMARK  10 active torsions:
REMARK  status: ('A' for Active; 'I' for Inactive)
REMARK    1  A    between atoms: C_1  and  C_2
REMARK    2  A    between atoms: C_1  and  C_8
REMARK    3  A    between atoms: C_1  and  N_39
REMARK    4  A    between atoms: C_13  and  C_28
REMARK    5  A    between atoms: C_14  and  C_15
REMARK    6  A    between atoms: C_21  and  O_22
REMARK    7  A    between atoms: O_22  and  C_23
REMARK    8  A    between atoms: C_23  and  C_24
REMARK    9  A    between atoms: C_29  and  O_40
REMARK   10  A    between atoms: C_35  and  O_40
REMARK                            x       y       z     vdW  Elec       q    Type
REMARK                         _______ _______ _______ _____ _____    ______ ____
ROOT
ATOM      1  C   UNL A   1     -24.897   1.321  27.579  0.00  0.00    +0.089 C 
ATOM      2  C   UNL A   1     -25.388   0.565  28.609  0.00  0.00    +0.249 C 
ATOM      3  C   UNL A   1     -23.477   1.701  27.327  0.00  0.00    +0.132 C 
ATOM      4  N   UNL A   1     -21.134   1.193  27.806  0.00  0.00    -0.147 NA
ATOM      5 CL   UNL A   1     -22.982   2.624  25.969  0.00  0.00    -0.108 Cl
ATOM      6  C   UNL A   1     -23.045   0.252  29.143  0.00  0.00    +0.268 C 
ATOM      7  N   UNL A   1     -24.400   0.016  29.296  0.00  0.00    -0.239 N 
ATOM      8  C   UNL A   1     -22.396   1.098  28.064  0.00  0.00    +0.149 C 
ATOM      9  O   UNL A   1     -22.265  -0.214  29.889  0.00  0.00    -0.268 OA
ENDROOT
BRANCH   1  10
ATOM     10  C   UNL A   1     -25.688   1.614  26.461  0.00  0.00    +0.077 C 
ATOM     11  C   UNL A   1     -26.250   2.920  26.395  0.00  0.00    +0.055 C 
ATOM     12  C   UNL A   1     -27.438   3.091  25.645  0.00  0.00    +0.102 C 
ATOM     13  N   UNL A   1     -28.075   2.089  25.003  0.00  0.00    -0.212 NA
ATOM     14  C   UNL A   1     -27.543   0.849  25.079  0.00  0.00    +0.234 C 
ATOM     15  C   UNL A   1     -26.354   0.576  25.777  0.00  0.00    +0.240 C 
ATOM     16  F   UNL A   1     -25.860  -0.681  25.795  0.00  0.00    -0.227 F 
BRANCH  11  17
ATOM     17  C   UNL A   1     -25.642   4.093  27.123  0.00  0.00    +0.262 C 
ATOM     18  N   UNL A   1     -25.614   5.252  26.449  0.00  0.00    -0.200 NA
ATOM     19  C   UNL A   1     -25.026   6.479  26.963  0.00  0.00    +0.139 C 
ATOM     20  O   UNL A   1     -25.143   3.966  28.243  0.00  0.00    -0.269 OA
ENDBRANCH  11  17
BRANCH  14  21
ATOM     21  O   UNL A   1     -28.193  -0.208  24.477  0.00  0.00    -0.459 OA
BRANCH  21  22
ATOM     22  C   UNL A   1     -29.460   0.005  23.866  0.00  0.00    +0.242 C 
BRANCH  22  23
ATOM     23  C   UNL A   1     -30.065  -1.377  23.573  0.00  0.00    +0.229 C 
ATOM     24  O   UNL A   1     -30.729  -1.878  24.721  0.00  0.00    -0.216 OA
ENDBRANCH  22  23
ENDBRANCH  21  22
ENDBRANCH  14  21
ENDBRANCH   1  10
BRANCH   7  25
ATOM     25  C   UNL A   1     -24.855  -1.012  30.143  0.00  0.00    +0.117 C 
BRANCH  25  26
ATOM     26  C   UNL A   1     -24.973  -2.505  29.788  0.00  0.00    -0.003 C 
ATOM     27  C   UNL A   1     -23.906  -3.173  29.146  0.00  0.00    -0.003 C 
ATOM     28  C   UNL A   1     -23.989  -4.549  28.853  0.00  0.00    -0.000 C 
ATOM     29  C   UNL A   1     -25.137  -5.280  29.205  0.00  0.00    -0.000 C 
ATOM     30  C   UNL A   1     -26.232  -4.611  29.784  0.00  0.00    -0.000 C 
ATOM     31  C   UNL A   1     -26.155  -3.232  30.065  0.00  0.00    -0.003 C 
ENDBRANCH  25  26
BRANCH  25  32
ATOM     32  C   UNL A   1     -25.387  -0.679  31.571  0.00  0.00    +0.095 C 
ATOM     33  C   UNL A   1     -25.189   0.773  32.028  0.00  0.00    +0.021 C 
ATOM     34  C   UNL A   1     -25.336   0.684  33.544  0.00  0.00    +0.020 C 
ATOM     35  C   UNL A   1     -24.829  -0.715  33.905  0.00  0.00    +0.089 C 
ATOM     36  N   UNL A   1     -24.758  -1.481  32.646  0.00  0.00    -0.217 NA
ENDBRANCH  25  32
ENDBRANCH   7  25
BRANCH   2  37
ATOM     37  O   UNL A   1     -26.843   0.201  28.913  0.00  0.00    -0.460 OA
BRANCH  37  39
ATOM     38  C   UNL A   1     -29.265   0.631  28.305  0.00  0.00    +0.037 C 
ATOM     39  C   UNL A   1     -28.096   1.036  28.990  0.00  0.00    +0.141 C 
ATOM     40  C   UNL A   1     -30.406   1.462  28.261  0.00  0.00    +0.003 C 
ATOM     41  C   UNL A   1     -28.119   2.283  29.725  0.00  0.00    +0.037 C 
ATOM     42  C   UNL A   1     -29.276   3.103  29.644  0.00  0.00    +0.003 C 
ATOM     43  C   UNL A   1     -30.408   2.697  28.908  0.00  0.00    +0.000 C 
ENDBRANCH  37  39
ENDBRANCH   2  37
TORSDOF 10
