MODEL 1211
MODEL 1
REMARK VINA RESULT:    -7.885      0.000      0.000
REMARK INTER + INTRA:         -13.238
REMARK INTER:                 -12.033
REMARK INTRA:                  -1.205
REMARK UNBOUND:                -1.205
REMARK  Name = No_1211-gen_results/8p0m/2024-11-27-11-27-31/
REMARK  9 active torsions:
REMARK  status: ('A' for Active; 'I' for Inactive)
REMARK    1  A    between atoms: C_1  and  C_2
REMARK    2  A    between atoms: C_1  and  N_8
REMARK    3  A    between atoms: C_5  and  C_9
REMARK    4  A    between atoms: C_13  and  C_15
REMARK    5  A    between atoms: C_19  and  C_21
REMARK    6  A    between atoms: N_22  and  C_24
REMARK    7  A    between atoms: C_24  and  C_25
REMARK    8  A    between atoms: C_28  and  C_31
REMARK    9  A    between atoms: N_33  and  C_34
REMARK                            x       y       z     vdW  Elec       q    Type
REMARK                         _______ _______ _______ _____ _____    ______ ____
ROOT
ATOM      1  C   UNL A   1     -11.870  -0.816  40.088  0.00  0.00    +0.055 A 
ATOM      2  C   UNL A   1     -12.382  -1.869  40.035  0.00  0.00    +0.005 A 
ATOM      3  C   UNL A   1     -12.284  -2.719  38.833  0.00  0.00    +0.000 A 
ATOM      4  C   UNL A   1     -11.562  -2.192  37.762  0.00  0.00    +0.004 A 
ATOM      5  C   UNL A   1     -11.006  -0.948  37.883  0.00  0.00    +0.046 A 
ATOM      6  C   UNL A   1     -11.211  -0.147  39.040  0.00  0.00    +0.008 A 
ENDROOT
BRANCH   1   8
ATOM      7  N   UNL A   1     -13.021   0.315  41.827  0.00  0.00    -0.197 NA
ATOM      8  C   UNL A   1     -12.145   0.141  41.299  0.00  0.00    +0.265 C 
ATOM      9  O   UNL A   1     -11.078   0.820  41.660  0.00  0.00    -0.268 OA
BRANCH   7  10
ATOM     10  C   UNL A   1     -13.643   0.998  42.855  0.00  0.00    +0.142 C 
BRANCH  10  11
ATOM     11  C   UNL A   1     -14.827   0.837  43.039  0.00  0.00    -0.001 A 
ATOM     12  C   UNL A   1     -15.402   0.048  43.901  0.00  0.00    -0.003 A 
ATOM     13  C   UNL A   1     -16.863  -0.117  44.101  0.00  0.00    +0.004 A 
ATOM     14  C   UNL A   1     -17.707   0.705  43.301  0.00  0.00    +0.071 A 
ATOM     15  C   UNL A   1     -17.105   1.581  42.435  0.00  0.00    +0.004 A 
ATOM     16  C   UNL A   1     -15.765   1.712  42.293  0.00  0.00    -0.003 A 
BRANCH  14  17
ATOM     17  C   UNL A   1     -19.129   0.608  43.390  0.00  0.00    +0.419 C 
ATOM     18  F   UNL A   1     -19.712   0.169  42.527  0.00  0.00    -0.166 F 
ATOM     19  F   UNL A   1     -19.480  -0.085  44.588  0.00  0.00    -0.166 F 
ATOM     20  F   UNL A   1     -19.701   1.899  43.681  0.00  0.00    -0.166 F 
ENDBRANCH  14  17
ENDBRANCH  10  11
ENDBRANCH   7  10
ENDBRANCH   1   8
BRANCH   5  21
ATOM     21  C   UNL A   1     -10.306  -0.340  36.726  0.00  0.00    +0.218 C 
ATOM     22  N   UNL A   1      -9.304  -0.260  36.552  0.00  0.00    -0.239 NA
ATOM     23  F   UNL A   1     -11.128   0.546  36.115  0.00  0.00    -0.184 F 
BRANCH  22  24
ATOM     24  C   UNL A   1      -8.586   0.365  35.477  0.00  0.00    +0.154 C 
BRANCH  24  25
ATOM     25  C   UNL A   1      -7.356  -0.126  35.072  0.00  0.00    +0.002 A 
ATOM     26  C   UNL A   1      -7.253  -1.253  34.478  0.00  0.00    -0.002 A 
ATOM     27  C   UNL A   1      -6.017  -1.986  34.542  0.00  0.00    +0.004 A 
ATOM     28  C   UNL A   1      -4.870  -1.290  34.924  0.00  0.00    +0.055 A 
ATOM     29  C   UNL A   1      -4.979  -0.040  35.456  0.00  0.00    +0.004 A 
ATOM     30  C   UNL A   1      -6.245   0.563  35.651  0.00  0.00    -0.002 A 
BRANCH  28  31
ATOM     31  C   UNL A   1      -3.585  -1.940  34.757  0.00  0.00    +0.269 C 
ATOM     32  O   UNL A   1      -3.034  -2.411  35.687  0.00  0.00    -0.268 OA
ATOM     33  N   UNL A   1      -3.120  -2.006  33.485  0.00  0.00    -0.174 NA
BRANCH  33  34
ATOM     34  C   UNL A   1      -1.903  -2.627  33.182  0.00  0.00    +0.089 C 
ATOM     35  C   UNL A   1      -1.095  -2.668  32.549  0.00  0.00    +0.019 C 
ENDBRANCH  33  34
ENDBRANCH  28  31
ENDBRANCH  24  25
ENDBRANCH  22  24
ENDBRANCH   5  21
TORSDOF 9
ENDMDL
ENDMDL
