MODEL 1212
MODEL 1
REMARK VINA RESULT:    -4.444      0.000      0.000
REMARK INTER + INTRA:          -4.444
REMARK INTER:                  -4.444
REMARK INTRA:                   0.000
REMARK UNBOUND:                 0.000
REMARK  Name = No_1212-gen_results/8p0m/2024-11-27-11-27-31/
REMARK  0 active torsions:
REMARK  status: ('A' for Active; 'I' for Inactive)
REMARK                            x       y       z     vdW  Elec       q    Type
REMARK                         _______ _______ _______ _____ _____    ______ ____
ROOT
ATOM      1  C   UNL A   1      -9.210  -9.234  19.948  0.00  0.00    +0.011 A 
ATOM      2  C   UNL A   1      -8.347  -9.782  19.693  0.00  0.00    +0.058 A 
ATOM      3  C   UNL A   1     -10.338  -9.304  19.006  0.00  0.00    +0.001 A 
ATOM      4  C   UNL A   1     -10.295 -10.188  17.888  0.00  0.00    +0.000 A 
ATOM      5  C   UNL A   1      -8.069 -10.801  18.644  0.00  0.00    +0.011 A 
ATOM      6  C   UNL A   1      -9.089 -10.888  17.745  0.00  0.00    +0.001 A 
ATOM      7 CL   UNL A   1      -6.952  -9.719  20.850  0.00  0.00    -0.082 Cl
ENDROOT
TORSDOF 0
ENDMDL
ENDMDL
