MODEL 1213
MODEL 1
REMARK VINA RESULT:    -4.429      0.000      0.000
REMARK INTER + INTRA:          -4.429
REMARK INTER:                  -4.429
REMARK INTRA:                   0.000
REMARK UNBOUND:                 0.000
REMARK  Name = No_1213-gen_results/8p0m/2024-11-27-11-27-31/
REMARK  0 active torsions:
REMARK  status: ('A' for Active; 'I' for Inactive)
REMARK                            x       y       z     vdW  Elec       q    Type
REMARK                         _______ _______ _______ _____ _____    ______ ____
ROOT
ATOM      1  C   UNL A   1     -24.934  -5.192  28.993  0.00  0.00    +0.001 A 
ATOM      2  C   UNL A   1     -24.084  -4.352  28.812  0.00  0.00    +0.011 A 
ATOM      3  C   UNL A   1     -24.226  -3.017  29.188  0.00  0.00    +0.058 A 
ATOM      4  C   UNL A   1     -25.477  -2.579  29.776  0.00  0.00    +0.011 A 
ATOM      5  C   UNL A   1     -26.437  -3.576  29.949  0.00  0.00    +0.001 A 
ATOM      6  C   UNL A   1     -26.222  -4.815  29.553  0.00  0.00    +0.000 A 
ATOM      7 CL   UNL A   1     -23.057  -1.784  28.955  0.00  0.00    -0.082 Cl
ENDROOT
TORSDOF 0
ENDMDL
ENDMDL
