MODEL 1214
MODEL 1
REMARK VINA RESULT:    -6.193      0.000      0.000
REMARK INTER + INTRA:          -7.389
REMARK INTER:                  -6.917
REMARK INTRA:                  -0.472
REMARK UNBOUND:                -0.472
REMARK  Name = No_1214-gen_results/8p0m/2024-11-27-11-27-31/
REMARK  2 active torsions:
REMARK  status: ('A' for Active; 'I' for Inactive)
REMARK    1  A    between atoms: C_3  and  C_12
REMARK    2  A    between atoms: C_8  and  C_16
REMARK                            x       y       z     vdW  Elec       q    Type
REMARK                         _______ _______ _______ _____ _____    ______ ____
ROOT
ATOM      1  F   UNL A   1      -6.823   0.431   7.977  0.00  0.00    -0.204 F 
ATOM      2  C   UNL A   1      -7.611   0.928   8.642  0.00  0.00    +0.147 A 
ATOM      3  C   UNL A   1      -7.614   0.561   9.876  0.00  0.00    +0.118 A 
ATOM      4  C   UNL A   1      -8.510   1.109  10.922  0.00  0.00    +0.009 A 
ATOM      5  C   UNL A   1      -8.544   0.813  12.334  0.00  0.00    +0.000 A 
ATOM      6  C   UNL A   1      -9.432   1.404  13.234  0.00  0.00    +0.000 A 
ATOM      7  C   UNL A   1      -8.497   1.977   8.236  0.00  0.00    +0.031 A 
ATOM      8  C   UNL A   1      -9.358   2.613   9.143  0.00  0.00    +0.046 A 
ATOM      9  C   UNL A   1      -9.420   2.218  10.554  0.00  0.00    +0.002 A 
ATOM     10  C   UNL A   1     -10.352   2.364  12.665  0.00  0.00    -0.000 A 
ATOM     11  C   UNL A   1     -10.311   2.796  11.385  0.00  0.00    -0.000 A 
ENDROOT
BRANCH   3  12
ATOM     12  C   UNL A   1      -6.734  -0.506  10.465  0.00  0.00    +0.413 C 
ATOM     13  N   UNL A   1      -5.711  -0.609  10.704  0.00  0.00    -0.053 NA
ATOM     14  N   UNL A   1      -7.397  -1.805  10.175  0.00  0.00    +0.216 NA
ATOM     15  C   UNL A   1      -4.857   0.516  10.923  0.00  0.00    +0.321 C 
ENDBRANCH   3  12
BRANCH   8  16
ATOM     16  C   UNL A   1     -10.290   3.658   8.676  0.00  0.00    +0.341 C 
ATOM     17  F   UNL A   1     -10.109   4.494   7.915  0.00  0.00    -0.193 F 
ATOM     18  F   UNL A   1     -11.452   2.934   8.310  0.00  0.00    -0.193 F 
ENDBRANCH   8  16
TORSDOF 2
ENDMDL
ENDMDL
