REMARK  Name = outputs/IAG933/test6/raw/output_1215_IAG933_linker_design_.xyz
REMARK  14 active torsions:
REMARK  status: ('A' for Active; 'I' for Inactive)
REMARK    1  A    between atoms: C_1  and  C_2
REMARK    2  A    between atoms: C_1  and  C_8
REMARK    3  A    between atoms: C_1  and  N_36
REMARK    4  A    between atoms: C_13  and  C_32
REMARK    5  A    between atoms: C_14  and  C_15
REMARK    6  A    between atoms: C_21  and  O_22
REMARK    7  A    between atoms: O_22  and  C_23
REMARK    8  A    between atoms: C_23  and  C_24
REMARK    9  A    between atoms: C_30  and  C_37
REMARK   10  A    between atoms: C_32  and  O_38
REMARK   11  A    between atoms: C_32  and  C_43
REMARK   12  A    between atoms: C_35  and  N_36
REMARK   13  A    between atoms: C_35  and  C_37
REMARK   14  A    between atoms: N_36  and  O_38
REMARK                            x       y       z     vdW  Elec       q    Type
REMARK                         _______ _______ _______ _____ _____    ______ ____
ROOT
ATOM      1  N   UNL A   1     -25.175  -0.097  28.989  0.00  0.00    -0.161 NA
ENDROOT
BRANCH   1   2
ATOM      2  C   UNL A   1     -24.855  -1.012  30.143  0.00  0.00    +0.122 C 
BRANCH   2   3
ATOM      3  C   UNL A   1     -24.973  -2.505  29.788  0.00  0.00    -0.004 C 
ATOM      4  C   UNL A   1     -23.906  -3.173  29.146  0.00  0.00    -0.003 C 
ATOM      5  C   UNL A   1     -23.989  -4.549  28.853  0.00  0.00    -0.000 C 
ATOM      6  C   UNL A   1     -25.137  -5.280  29.205  0.00  0.00    -0.000 C 
ATOM      7  C   UNL A   1     -26.232  -4.611  29.784  0.00  0.00    -0.000 C 
ATOM      8  C   UNL A   1     -26.155  -3.232  30.065  0.00  0.00    -0.003 C 
ENDBRANCH   2   3
BRANCH   2   9
ATOM      9  C   UNL A   1     -25.387  -0.679  31.571  0.00  0.00    +0.094 C 
ATOM     10  C   UNL A   1     -25.189   0.773  32.028  0.00  0.00    +0.021 C 
ATOM     11  C   UNL A   1     -25.336   0.684  33.544  0.00  0.00    +0.020 C 
ATOM     12  C   UNL A   1     -24.829  -0.715  33.905  0.00  0.00    +0.089 C 
ATOM     13  N   UNL A   1     -24.758  -1.481  32.646  0.00  0.00    -0.218 NA
ENDBRANCH   2   9
ENDBRANCH   1   2
BRANCH   1  14
ATOM     14  C   UNL A   1     -26.591   0.334  29.044  0.00  0.00    +0.106 C 
BRANCH  14  15
ATOM     15  C   UNL A   1     -28.076  -0.005  28.743  0.00  0.00    +0.047 C 
BRANCH  15  18
ATOM     16  C   UNL A   1     -29.682  -2.922  30.398  0.00  0.00    +0.042 C 
ATOM     17  C   UNL A   1     -31.361  -1.714  29.154  0.00  0.00    +0.048 C 
ATOM     18  C   UNL A   1     -29.052  -0.914  29.221  0.00  0.00    -0.014 C 
ATOM     19  C   UNL A   1     -31.004  -2.839  29.905  0.00  0.00    +0.196 C 
ATOM     20  O   UNL A   1     -31.869  -3.879  30.154  0.00  0.00    -0.287 OA
ATOM     21  C   UNL A   1     -30.376  -0.745  28.809  0.00  0.00    +0.034 C 
ATOM     22  C   UNL A   1     -28.721  -1.961  30.085  0.00  0.00    -0.001 C 
ATOM     23 BR   UNL A   1     -30.733   0.729  27.597  0.00  0.00    -0.049 Br
ENDBRANCH  15  18
ENDBRANCH  14  15
ENDBRANCH   1  14
BRANCH   1  24
ATOM     24  O   UNL A   1     -24.189   0.326  28.239  0.00  0.00    -0.279 OA
BRANCH  24  25
ATOM     25  C   UNL A   1     -24.370   1.259  27.161  0.00  0.00    +0.177 C 
BRANCH  25  26
ATOM     26  C   UNL A   1     -25.688   1.614  26.461  0.00  0.00    +0.046 C 
ATOM     27  C   UNL A   1     -26.250   2.920  26.395  0.00  0.00    +0.075 C 
ATOM     28  C   UNL A   1     -27.438   3.091  25.645  0.00  0.00    +0.106 C 
ATOM     29  N   UNL A   1     -28.075   2.089  25.003  0.00  0.00    -0.208 NA
ATOM     30  C   UNL A   1     -27.543   0.849  25.079  0.00  0.00    +0.253 C 
ATOM     31  C   UNL A   1     -26.354   0.576  25.777  0.00  0.00    +0.192 C 
ATOM     32  F   UNL A   1     -25.860  -0.681  25.795  0.00  0.00    -0.200 F 
BRANCH  27  33
ATOM     33  C   UNL A   1     -25.642   4.093  27.123  0.00  0.00    +0.266 C 
ATOM     34  N   UNL A   1     -25.614   5.252  26.449  0.00  0.00    -0.200 NA
ATOM     35  C   UNL A   1     -25.026   6.479  26.963  0.00  0.00    +0.139 C 
ATOM     36  O   UNL A   1     -25.143   3.966  28.243  0.00  0.00    -0.268 OA
ENDBRANCH  27  33
BRANCH  30  37
ATOM     37  O   UNL A   1     -28.193  -0.208  24.477  0.00  0.00    -0.456 OA
BRANCH  37  38
ATOM     38  C   UNL A   1     -29.460   0.005  23.866  0.00  0.00    +0.243 C 
BRANCH  38  39
ATOM     39  C   UNL A   1     -30.065  -1.377  23.573  0.00  0.00    +0.229 C 
ATOM     40  O   UNL A   1     -30.729  -1.878  24.721  0.00  0.00    -0.216 OA
ENDBRANCH  38  39
ENDBRANCH  37  38
ENDBRANCH  30  37
ENDBRANCH  25  26
BRANCH  25  43
ATOM     41  C   UNL A   1     -21.786   1.459  27.459  0.00  0.00    +0.021 C 
ATOM     42 CL   UNL A   1     -22.885   2.512  25.163  0.00  0.00    -0.112 Cl
ATOM     43  C   UNL A   1     -22.990   1.344  26.562  0.00  0.00    +0.113 C 
ENDBRANCH  25  43
ENDBRANCH  24  25
ENDBRANCH   1  24
TORSDOF 14
