MODEL 1215
MODEL 1
REMARK VINA RESULT:    -7.542      0.000      0.000
REMARK INTER + INTRA:         -10.430
REMARK INTER:                  -9.306
REMARK INTRA:                  -1.123
REMARK UNBOUND:                -1.123
REMARK  Name = No_1215-gen_results/8p0m/2024-11-27-11-27-31/
REMARK  4 active torsions:
REMARK  status: ('A' for Active; 'I' for Inactive)
REMARK    1  A    between atoms: C_3  and  C_17
REMARK    2  A    between atoms: C_6  and  C_7
REMARK    3  A    between atoms: C_7  and  N_8
REMARK    4  A    between atoms: C_10  and  C_11
REMARK                            x       y       z     vdW  Elec       q    Type
REMARK                         _______ _______ _______ _____ _____    ______ ____
ROOT
ATOM      1  C   UNL A   1     -25.418   2.669  26.135  0.00  0.00    +0.000 A 
ATOM      2  C   UNL A   1     -26.475   2.453  25.588  0.00  0.00    -0.000 A 
ATOM      3  C   UNL A   1     -26.766   1.269  24.911  0.00  0.00    -0.000 A 
ATOM      4  C   UNL A   1     -25.739   0.251  24.795  0.00  0.00    -0.000 A 
ATOM      5  C   UNL A   1     -24.529   0.577  25.450  0.00  0.00    +0.000 A 
ATOM      6  C   UNL A   1     -24.346   1.722  26.057  0.00  0.00    +0.031 A 
ENDROOT
BRANCH   3   7
ATOM      7  C   UNL A   1     -28.067   0.947  24.226  0.00  0.00    -0.000 A 
ATOM      8  C   UNL A   1     -28.928   1.978  23.894  0.00  0.00    -0.000 A 
ATOM      9  C   UNL A   1     -30.189   1.614  23.331  0.00  0.00    +0.000 A 
ATOM     10  C   UNL A   1     -30.633   0.324  23.176  0.00  0.00    +0.000 A 
ATOM     11  C   UNL A   1     -28.519  -0.388  24.126  0.00  0.00    -0.000 A 
ATOM     12  C   UNL A   1     -29.797  -0.703  23.581  0.00  0.00    +0.000 A 
ENDBRANCH   3   7
BRANCH   6  13
ATOM     13  C   UNL A   1     -22.993   1.940  26.636  0.00  0.00    +0.279 C 
ATOM     14  F   UNL A   1     -22.048   2.161  25.896  0.00  0.00    -0.208 F 
BRANCH  13  15
ATOM     15  N   UNL A   1     -22.798   1.993  27.928  0.00  0.00    -0.165 NA
ATOM     16  C   UNL A   1     -23.763   1.496  28.858  0.00  0.00    +0.267 C 
ATOM     17  O   UNL A   1     -23.845   2.312  29.939  0.00  0.00    -0.268 OA
BRANCH  16  18
ATOM     18  C   UNL A   1     -24.019   0.182  28.822  0.00  0.00    +0.055 A 
ATOM     19  C   UNL A   1     -25.365  -0.178  28.906  0.00  0.00    +0.005 A 
ATOM     20  C   UNL A   1     -25.680  -1.589  29.001  0.00  0.00    +0.000 A 
ATOM     21  C   UNL A   1     -24.608  -2.532  29.067  0.00  0.00    +0.000 A 
ATOM     22  C   UNL A   1     -23.280  -2.075  29.030  0.00  0.00    +0.000 A 
ATOM     23  C   UNL A   1     -23.002  -0.750  28.980  0.00  0.00    +0.005 A 
ENDBRANCH  16  18
ENDBRANCH  13  15
ENDBRANCH   6  13
TORSDOF 4
ENDMDL
ENDMDL
