MODEL 1217
MODEL 1
REMARK VINA RESULT:    -4.340      0.000      0.000
REMARK INTER + INTRA:          -4.340
REMARK INTER:                  -4.340
REMARK INTRA:                   0.000
REMARK UNBOUND:                 0.000
REMARK  Name = No_1217-gen_results/8p0m/2024-11-27-11-27-31/
REMARK  0 active torsions:
REMARK  status: ('A' for Active; 'I' for Inactive)
REMARK                            x       y       z     vdW  Elec       q    Type
REMARK                         _______ _______ _______ _____ _____    ______ ____
ROOT
ATOM      1  C   UNL A   1     -24.948  -5.341  28.999  0.00  0.00    +0.000 A 
ATOM      2  C   UNL A   1     -24.187  -4.677  28.698  0.00  0.00    +0.000 A 
ATOM      3  C   UNL A   1     -26.110  -4.668  29.592  0.00  0.00    +0.000 A 
ATOM      4  C   UNL A   1     -26.112  -3.367  29.886  0.00  0.00    +0.000 A 
ATOM      5  C   UNL A   1     -23.959  -3.270  28.920  0.00  0.00    +0.000 A 
ATOM      6  C   UNL A   1     -25.039  -2.668  29.495  0.00  0.00    +0.000 A 
ENDROOT
TORSDOF 0
ENDMDL
ENDMDL
