MODEL 1218
MODEL 1
REMARK VINA RESULT:    -5.316      0.000      0.000
REMARK INTER + INTRA:          -5.781
REMARK INTER:                  -5.627
REMARK INTRA:                  -0.154
REMARK UNBOUND:                -0.154
REMARK  Name = No_1218-gen_results/8p0m/2024-11-27-11-27-31/
REMARK  1 active torsions:
REMARK  status: ('A' for Active; 'I' for Inactive)
REMARK    1  A    between atoms: C_4  and  C_7
REMARK                            x       y       z     vdW  Elec       q    Type
REMARK                         _______ _______ _______ _____ _____    ______ ____
ROOT
ATOM      1  C   UNL A   1     -26.605  -4.014  29.819  0.00  0.00    -0.000 A 
ATOM      2  C   UNL A   1     -26.042  -4.874  29.587  0.00  0.00    -0.000 A 
ATOM      3  C   UNL A   1     -25.892  -2.696  29.615  0.00  0.00    -0.000 A 
ATOM      4  C   UNL A   1     -24.618  -2.686  29.010  0.00  0.00    -0.000 A 
ATOM      5  C   UNL A   1     -24.742  -5.135  28.928  0.00  0.00    -0.000 A 
ATOM      6  C   UNL A   1     -24.060  -3.945  28.718  0.00  0.00    -0.000 A 
ENDROOT
BRANCH   4   7
ATOM      7  C   UNL A   1     -23.893  -1.478  28.809  0.00  0.00    -0.005 C 
ATOM      8  C   UNL A   1     -22.704  -1.292  29.206  0.00  0.00    -0.026 C 
ATOM      9  C   UNL A   1     -21.920  -0.090  28.871  0.00  0.00    +0.031 C 
ENDBRANCH   4   7
TORSDOF 1
ENDMDL
ENDMDL
