MODEL 1219
MODEL 1
REMARK VINA RESULT:    -5.387      0.000      0.000
REMARK INTER + INTRA:          -5.861
REMARK INTER:                  -5.702
REMARK INTRA:                  -0.159
REMARK UNBOUND:                -0.159
REMARK  Name = No_1219-gen_results/8p0m/2024-11-27-11-27-31/
REMARK  1 active torsions:
REMARK  status: ('A' for Active; 'I' for Inactive)
REMARK    1  A    between atoms: C_4  and  C_7
REMARK                            x       y       z     vdW  Elec       q    Type
REMARK                         _______ _______ _______ _____ _____    ______ ____
ROOT
ATOM      1  C   UNL A   1     -24.740  -5.293  28.965  0.00  0.00    -0.000 A 
ATOM      2  C   UNL A   1     -25.697  -5.112  29.368  0.00  0.00    -0.000 A 
ATOM      3  C   UNL A   1     -23.925  -4.110  28.647  0.00  0.00    +0.004 A 
ATOM      4  C   UNL A   1     -24.370  -2.805  29.007  0.00  0.00    +0.071 A 
ATOM      5  C   UNL A   1     -26.364  -3.884  29.880  0.00  0.00    -0.000 A 
ATOM      6  C   UNL A   1     -25.642  -2.764  29.594  0.00  0.00    +0.004 A 
ENDROOT
BRANCH   4   7
ATOM      7  C   UNL A   1     -23.718  -1.572  28.944  0.00  0.00    +0.419 C 
ATOM      8  F   UNL A   1     -24.006  -0.879  29.980  0.00  0.00    -0.166 F 
ATOM      9  F   UNL A   1     -22.401  -1.599  28.917  0.00  0.00    -0.166 F 
ATOM     10  F   UNL A   1     -24.143  -0.817  27.878  0.00  0.00    -0.166 F 
ENDBRANCH   4   7
TORSDOF 1
ENDMDL
ENDMDL
