MODEL 1220
MODEL 1
REMARK VINA RESULT:    -7.329      0.000      0.000
REMARK INTER + INTRA:         -11.255
REMARK INTER:                  -9.900
REMARK INTRA:                  -1.355
REMARK UNBOUND:                -1.355
REMARK  Name = No_1220-gen_results/8p0m/2024-11-27-11-27-31/
REMARK  6 active torsions:
REMARK  status: ('A' for Active; 'I' for Inactive)
REMARK    1  A    between atoms: C_1  and  C_2
REMARK    2  A    between atoms: C_1  and  C_8
REMARK    3  A    between atoms: C_5  and  C_14
REMARK    4  A    between atoms: C_11  and  N_17
REMARK    5  A    between atoms: N_17  and  C_18
REMARK    6  A    between atoms: N_17  and  C_24
REMARK                            x       y       z     vdW  Elec       q    Type
REMARK                         _______ _______ _______ _____ _____    ______ ____
ROOT
ATOM      1  C   UNL A   1     -25.760   1.024  26.551  0.00  0.00    -0.018 A 
ATOM      2  C   UNL A   1     -24.736   0.575  26.620  0.00  0.00    -0.003 A 
ATOM      3  C   UNL A   1     -24.333  -0.259  27.687  0.00  0.00    +0.015 A 
ATOM      4  C   UNL A   1     -25.277  -0.541  28.675  0.00  0.00    +0.056 A 
ATOM      5  C   UNL A   1     -26.717   0.829  27.727  0.00  0.00    -0.003 A 
ATOM      6  C   UNL A   1     -26.428   0.022  28.686  0.00  0.00    +0.015 A 
ENDROOT
BRANCH   1   7
ATOM      7  C   UNL A   1     -26.146   2.117  25.619  0.00  0.00    +0.053 C 
BRANCH   7   8
ATOM      8  C   UNL A   1     -27.194   1.925  25.048  0.00  0.00    -0.018 A 
ATOM      9  C   UNL A   1     -27.444   0.818  24.260  0.00  0.00    -0.004 A 
ATOM     10  C   UNL A   1     -28.653   0.580  23.494  0.00  0.00    +0.004 A 
ATOM     11  C   UNL A   1     -29.690   1.538  23.545  0.00  0.00    +0.057 A 
ATOM     12  C   UNL A   1     -29.437   2.703  24.354  0.00  0.00    +0.004 A 
ATOM     13  C   UNL A   1     -28.267   2.925  25.042  0.00  0.00    -0.004 A 
BRANCH  11  14
ATOM     14  C   UNL A   1     -30.903   1.416  22.803  0.00  0.00    +0.284 C 
ATOM     15  N   UNL A   1     -31.357   2.251  22.089  0.00  0.00    -0.084 NA
ATOM     16  O   UNL A   1     -31.629   0.374  23.086  0.00  0.00    -0.267 OA
ENDBRANCH  11  14
ENDBRANCH   7   8
ENDBRANCH   1   7
BRANCH   4  17
ATOM     17  N   UNL A   1     -24.922  -1.446  29.751  0.00  0.00    -0.265 N 
BRANCH  17  18
ATOM     18  C   UNL A   1     -25.110  -2.678  29.546  0.00  0.00    +0.056 A 
ATOM     19  C   UNL A   1     -26.063  -3.369  29.864  0.00  0.00    +0.015 A 
ATOM     20  C   UNL A   1     -26.167  -4.813  29.580  0.00  0.00    +0.001 A 
ATOM     21  C   UNL A   1     -25.059  -5.343  28.941  0.00  0.00    +0.000 A 
ATOM     22  C   UNL A   1     -23.940  -3.256  28.896  0.00  0.00    +0.015 A 
ATOM     23  C   UNL A   1     -23.998  -4.609  28.620  0.00  0.00    +0.001 A 
ENDBRANCH  17  18
BRANCH  17  24
ATOM     24  C   UNL A   1     -25.143  -0.700  30.918  0.00  0.00    +0.065 C 
ATOM     25  C   UNL A   1     -24.703  -0.892  32.068  0.00  0.00    -0.009 C 
ATOM     26  C   UNL A   1     -24.687  -0.418  33.018  0.00  0.00    +0.032 C 
ENDBRANCH  17  24
ENDBRANCH   4  17
TORSDOF 6
ENDMDL
ENDMDL
