MODEL 1221
MODEL 1
REMARK VINA RESULT:    -5.378      0.000      0.000
REMARK INTER + INTRA:          -6.185
REMARK INTER:                  -6.007
REMARK INTRA:                  -0.178
REMARK UNBOUND:                -0.178
REMARK  Name = No_1221-gen_results/8p0m/2024-11-27-11-27-31/
REMARK  2 active torsions:
REMARK  status: ('A' for Active; 'I' for Inactive)
REMARK    1  A    between atoms: C_2  and  C_8
REMARK    2  A    between atoms: C_8  and  C_10
REMARK                            x       y       z     vdW  Elec       q    Type
REMARK                         _______ _______ _______ _____ _____    ______ ____
ROOT
ATOM      1  C   UNL A   1     -24.701  -0.676  27.839  0.00  0.00    +0.001 A 
ATOM      2  C   UNL A   1     -24.286  -1.432  28.686  0.00  0.00    +0.015 A 
ATOM      3  C   UNL A   1     -23.033  -1.250  29.261  0.00  0.00    +0.001 A 
ATOM      4  C   UNL A   1     -22.169  -0.181  28.831  0.00  0.00    -0.004 A 
ATOM      5  C   UNL A   1     -22.717   0.631  27.830  0.00  0.00    -0.022 A 
ATOM      6  C   UNL A   1     -21.957   1.783  27.421  0.00  0.00    +0.031 C 
ATOM      7  C   UNL A   1     -23.975   0.442  27.320  0.00  0.00    -0.004 A 
ENDROOT
BRANCH   2   8
ATOM      8  C   UNL A   1     -25.013  -2.659  29.211  0.00  0.00    +0.081 C 
ATOM      9  N   UNL A   1     -25.813  -2.734  29.833  0.00  0.00    -0.153 NA
BRANCH   8  10
ATOM     10  C   UNL A   1     -24.293  -4.042  28.912  0.00  0.00    +0.048 C 
ATOM     11  C   UNL A   1     -24.787  -5.258  28.922  0.00  0.00    +0.007 C 
ENDBRANCH   8  10
ENDBRANCH   2   8
TORSDOF 2
ENDMDL
ENDMDL
