MODEL 1222
MODEL 1
REMARK VINA RESULT:    -7.649      0.000      0.000
REMARK INTER + INTRA:         -16.067
REMARK INTER:                 -12.120
REMARK INTRA:                  -3.947
REMARK UNBOUND:                -3.947
REMARK  Name = No_1222-gen_results/8p0m/2024-11-27-11-27-31/
REMARK  10 active torsions:
REMARK  status: ('A' for Active; 'I' for Inactive)
REMARK    1  A    between atoms: C_2  and  C_22
REMARK    2  A    between atoms: C_6  and  O_7
REMARK    3  A    between atoms: O_7  and  C_8
REMARK    4  A    between atoms: C_8  and  C_9
REMARK    5  A    between atoms: C_8  and  C_26
REMARK    6  A    between atoms: C_9  and  C_10
REMARK    7  A    between atoms: C_15  and  C_16
REMARK    8  A    between atoms: C_26  and  C_28
REMARK    9  A    between atoms: C_28  and  C_29
REMARK   10  A    between atoms: C_29  and  C_30
REMARK                            x       y       z     vdW  Elec       q    Type
REMARK                         _______ _______ _______ _____ _____    ______ ____
ROOT
ATOM      1  C   UNL A   1     -23.832   0.820  28.698  0.00  0.00    +0.188 C 
ENDROOT
BRANCH   1   2
ATOM      2  C   UNL A   1     -22.467   0.184  29.095  0.00  0.00    +0.132 C 
ATOM      3  N   UNL A   1     -21.479   0.414  28.224  0.00  0.00    -0.129 NA
BRANCH   2   4
ATOM      4  C   UNL A   1     -22.538  -1.339  29.338  0.00  0.00    +0.027 C 
BRANCH   4   5
ATOM      5  C   UNL A   1     -23.615  -2.012  28.568  0.00  0.00    +0.028 C 
BRANCH   5   6
ATOM      6  C   UNL A   1     -24.269  -2.911  29.330  0.00  0.00    -0.022 A 
ATOM      7  C   UNL A   1     -25.412  -2.604  29.981  0.00  0.00    -0.004 A 
ATOM      8  C   UNL A   1     -26.495  -3.512  29.931  0.00  0.00    -0.000 A 
ATOM      9  C   UNL A   1     -26.268  -4.716  29.704  0.00  0.00    -0.000 A 
ATOM     10  C   UNL A   1     -25.089  -5.171  29.038  0.00  0.00    -0.000 A 
ATOM     11  C   UNL A   1     -24.129  -4.282  28.913  0.00  0.00    -0.004 A 
ENDBRANCH   5   6
ENDBRANCH   4   5
ENDBRANCH   2   4
ENDBRANCH   1   2
BRANCH   1  12
ATOM     12  O   UNL A   1     -24.219   1.521  29.794  0.00  0.00    -0.477 OA
BRANCH  12  18
ATOM     13  C   UNL A   1     -24.516   0.371  31.962  0.00  0.00    +0.043 A 
ATOM     14  C   UNL A   1     -25.306  -0.046  32.777  0.00  0.00    +0.083 A 
ATOM     15  C   UNL A   1     -26.671  -0.058  32.513  0.00  0.00    +0.007 A 
ATOM     16  C   UNL A   1     -27.131   0.358  31.626  0.00  0.00    +0.003 A 
ATOM     17  C   UNL A   1     -26.333   0.960  30.523  0.00  0.00    +0.037 A 
ATOM     18  C   UNL A   1     -25.039   0.969  30.743  0.00  0.00    +0.139 A 
BRANCH  14  19
ATOM     19  C   UNL A   1     -24.768  -0.647  34.119  0.00  0.00    +0.388 C 
ATOM     20  O   UNL A   1     -24.010  -1.308  34.257  0.00  0.00    -0.241 OA
ATOM     21  O   UNL A   1     -25.620  -0.260  35.119  0.00  0.00    -0.241 OA
ENDBRANCH  14  19
ENDBRANCH  12  18
ENDBRANCH   1  12
BRANCH   1  22
ATOM     22  C   UNL A   1     -23.830   1.504  27.552  0.00  0.00    +0.071 C 
BRANCH  22  23
ATOM     23  C   UNL A   1     -24.712   1.347  26.674  0.00  0.00    -0.018 A 
ATOM     24  C   UNL A   1     -24.858   0.271  25.963  0.00  0.00    -0.004 A 
ATOM     25  C   UNL A   1     -25.795   0.062  24.909  0.00  0.00    +0.001 A 
ATOM     26  C   UNL A   1     -26.720   1.120  24.705  0.00  0.00    +0.011 A 
ATOM     27  C   UNL A   1     -26.693   2.253  25.490  0.00  0.00    +0.057 A 
ATOM     28  C   UNL A   1     -25.756   2.413  26.431  0.00  0.00    +0.007 A 
ATOM     29 CL   UNL A   1     -27.877   3.476  25.170  0.00  0.00    -0.082 Cl
BRANCH  28  30
ATOM     30  C   UNL A   1     -25.699   3.677  27.211  0.00  0.00    +0.001 A 
ATOM     31  C   UNL A   1     -24.911   4.680  26.767  0.00  0.00    +0.000 A 
ATOM     32  C   UNL A   1     -25.038   5.713  26.962  0.00  0.00    +0.000 A 
ATOM     33  C   UNL A   1     -26.477   3.880  28.338  0.00  0.00    +0.000 A 
ATOM     34  C   UNL A   1     -26.579   5.192  28.853  0.00  0.00    +0.000 A 
ATOM     35  C   UNL A   1     -25.782   6.187  28.221  0.00  0.00    +0.000 A 
ENDBRANCH  28  30
ENDBRANCH  22  23
ENDBRANCH   1  22
TORSDOF 10
ENDMDL
ENDMDL
