MODEL 1223
MODEL 1
REMARK VINA RESULT:    -5.495      0.000      0.000
REMARK INTER + INTRA:          -6.671
REMARK INTER:                  -6.459
REMARK INTRA:                  -0.213
REMARK UNBOUND:                -0.213
REMARK  Name = No_1223-gen_results/8p0m/2024-11-27-11-27-31/
REMARK  3 active torsions:
REMARK  status: ('A' for Active; 'I' for Inactive)
REMARK    1  A    between atoms: C_1  and  C_2
REMARK    2  A    between atoms: C_1  and  N_8
REMARK    3  A    between atoms: C_5  and  C_9
REMARK                            x       y       z     vdW  Elec       q    Type
REMARK                         _______ _______ _______ _____ _____    ______ ____
ROOT
ATOM      1  C   UNL A   1     -29.820 -10.670  30.279  0.00  0.00    +0.002 A 
ATOM      2  C   UNL A   1     -29.879 -10.039  31.510  0.00  0.00    -0.002 A 
ATOM      3  C   UNL A   1     -29.045 -10.317  32.654  0.00  0.00    +0.004 A 
ATOM      4  C   UNL A   1     -28.063 -11.330  32.545  0.00  0.00    +0.057 A 
ATOM      5  C   UNL A   1     -27.951 -12.019  31.309  0.00  0.00    +0.004 A 
ATOM      6  C   UNL A   1     -28.766 -11.664  30.278  0.00  0.00    -0.002 A 
ENDROOT
BRANCH   4   7
ATOM      7  C   UNL A   1     -27.205 -11.688  33.649  0.00  0.00    +0.284 C 
ATOM      8  O   UNL A   1     -26.835 -12.852  33.857  0.00  0.00    -0.267 OA
ATOM      9  N   UNL A   1     -26.887 -10.778  34.621  0.00  0.00    -0.084 NA
ENDBRANCH   4   7
BRANCH   1  10
ATOM     10  C   UNL A   1     -30.483 -10.374  29.312  0.00  0.00    +0.151 C 
BRANCH  10  11
ATOM     11  N   UNL A   1     -30.543 -11.253  28.187  0.00  0.00    -0.269 NA
ATOM     12  C   UNL A   1     -30.255 -10.852  26.915  0.00  0.00    +0.068 C 
ATOM     13  C   UNL A   1     -29.922 -11.912  25.895  0.00  0.00    +0.053 C 
ENDBRANCH  10  11
ENDBRANCH   1  10
TORSDOF 3
ENDMDL
ENDMDL
