REMARK  Name = outputs/IAG933/test6/raw/output_1223_IAG933_linker_design_.xyz
REMARK  9 active torsions:
REMARK  status: ('A' for Active; 'I' for Inactive)
REMARK    1  A    between atoms: C_1  and  C_2
REMARK    2  A    between atoms: C_1  and  C_8
REMARK    3  A    between atoms: C_1  and  N_30
REMARK    4  A    between atoms: C_13  and  C_34
REMARK    5  A    between atoms: C_14  and  C_15
REMARK    6  A    between atoms: C_21  and  O_22
REMARK    7  A    between atoms: O_22  and  C_23
REMARK    8  A    between atoms: C_23  and  C_24
REMARK    9  A    between atoms: C_37  and  C_39
REMARK                            x       y       z     vdW  Elec       q    Type
REMARK                         _______ _______ _______ _____ _____    ______ ____
ROOT
ATOM      1  N   UNL A   1     -24.178  -0.072  29.259  0.00  0.00    -0.175 N 
ATOM      2  F   UNL A   1     -20.801   0.472  28.454  0.00  0.00    -0.224 F 
ATOM      3  O   UNL A   1     -22.369  -0.323  30.265  0.00  0.00    -0.270 OA
ATOM      4  C   UNL A   1     -22.053   0.775  28.331  0.00  0.00    +0.271 C 
ATOM      5  C   UNL A   1     -24.556   1.262  27.152  0.00  0.00    +0.087 C 
ATOM      6  N   UNL A   1     -24.836   0.577  28.328  0.00  0.00    -0.179 NA
ATOM      7  C   UNL A   1     -22.901   0.116  29.326  0.00  0.00    +0.280 C 
ATOM      8  F   UNL A   1     -21.182   2.385  27.029  0.00  0.00    -0.233 F 
ATOM      9  C   UNL A   1     -23.397   1.653  26.502  0.00  0.00    +0.144 C 
ATOM     10  C   UNL A   1     -22.207   1.651  27.185  0.00  0.00    +0.213 C 
ENDROOT
BRANCH   5  11
ATOM     11  C   UNL A   1     -25.688   1.614  26.461  0.00  0.00    +0.053 C 
ATOM     12  C   UNL A   1     -26.250   2.920  26.395  0.00  0.00    +0.078 C 
ATOM     13  C   UNL A   1     -27.438   3.091  25.645  0.00  0.00    +0.107 C 
ATOM     14  N   UNL A   1     -28.075   2.089  25.003  0.00  0.00    -0.208 NA
ATOM     15  C   UNL A   1     -27.543   0.849  25.079  0.00  0.00    +0.253 C 
ATOM     16  C   UNL A   1     -26.354   0.576  25.777  0.00  0.00    +0.194 C 
ATOM     17  F   UNL A   1     -25.860  -0.681  25.795  0.00  0.00    -0.199 F 
BRANCH  12  18
ATOM     18  C   UNL A   1     -25.642   4.093  27.123  0.00  0.00    +0.267 C 
ATOM     19  N   UNL A   1     -25.614   5.252  26.449  0.00  0.00    -0.200 NA
ATOM     20  C   UNL A   1     -25.026   6.479  26.963  0.00  0.00    +0.139 C 
ATOM     21  O   UNL A   1     -25.143   3.966  28.243  0.00  0.00    -0.268 OA
ENDBRANCH  12  18
BRANCH  15  22
ATOM     22  O   UNL A   1     -28.193  -0.208  24.477  0.00  0.00    -0.456 OA
BRANCH  22  23
ATOM     23  C   UNL A   1     -29.460   0.005  23.866  0.00  0.00    +0.243 C 
BRANCH  23  24
ATOM     24  C   UNL A   1     -30.065  -1.377  23.573  0.00  0.00    +0.229 C 
ATOM     25  O   UNL A   1     -30.729  -1.878  24.721  0.00  0.00    -0.216 OA
ENDBRANCH  23  24
ENDBRANCH  22  23
ENDBRANCH  15  22
ENDBRANCH   5  11
BRANCH   9  28
ATOM     26  F   UNL A   1     -22.664   2.868  24.650  0.00  0.00    -0.198 F 
ATOM     27  F   UNL A   1     -24.078   1.150  24.383  0.00  0.00    -0.198 F 
ATOM     28  C   UNL A   1     -23.407   1.935  25.085  0.00  0.00    +0.327 C 
ENDBRANCH   9  28
BRANCH   1  29
ATOM     29  C   UNL A   1     -24.855  -1.012  30.143  0.00  0.00    +0.137 C 
BRANCH  29  30
ATOM     30  C   UNL A   1     -24.973  -2.505  29.788  0.00  0.00    -0.001 C 
ATOM     31  C   UNL A   1     -23.906  -3.173  29.146  0.00  0.00    -0.003 C 
ATOM     32  C   UNL A   1     -23.989  -4.549  28.853  0.00  0.00    -0.000 C 
ATOM     33  C   UNL A   1     -25.137  -5.280  29.205  0.00  0.00    -0.000 C 
ATOM     34  C   UNL A   1     -26.232  -4.611  29.784  0.00  0.00    -0.000 C 
ATOM     35  C   UNL A   1     -26.155  -3.232  30.065  0.00  0.00    -0.003 C 
ENDBRANCH  29  30
BRANCH  29  36
ATOM     36  C   UNL A   1     -25.387  -0.679  31.571  0.00  0.00    +0.097 C 
ATOM     37  C   UNL A   1     -25.189   0.773  32.028  0.00  0.00    +0.021 C 
ATOM     38  C   UNL A   1     -25.336   0.684  33.544  0.00  0.00    +0.020 C 
ATOM     39  C   UNL A   1     -24.829  -0.715  33.905  0.00  0.00    +0.089 C 
ATOM     40  N   UNL A   1     -24.758  -1.481  32.646  0.00  0.00    -0.217 NA
ENDBRANCH  29  36
ENDBRANCH   1  29
TORSDOF 9
