MODEL 1225
MODEL 1
REMARK VINA RESULT:    -5.417      0.000      0.000
REMARK INTER + INTRA:          -6.289
REMARK INTER:                  -6.050
REMARK INTRA:                  -0.239
REMARK UNBOUND:                -0.239
REMARK  Name = No_1225-gen_results/8p0m/2024-11-27-11-27-31/
REMARK  2 active torsions:
REMARK  status: ('A' for Active; 'I' for Inactive)
REMARK    1  A    between atoms: C_2  and  C_3
REMARK    2  A    between atoms: C_3  and  C_4
REMARK                            x       y       z     vdW  Elec       q    Type
REMARK                         _______ _______ _______ _____ _____    ______ ____
ROOT
ATOM      1  C   UNL A   1     -24.143  -4.175  28.710  0.00  0.00    -0.004 A 
ATOM      2  C   UNL A   1     -24.337  -3.037  29.071  0.00  0.00    -0.018 A 
ATOM      3  C   UNL A   1     -24.951  -5.250  29.152  0.00  0.00    -0.000 A 
ATOM      4  C   UNL A   1     -26.202  -4.918  29.630  0.00  0.00    -0.000 A 
ATOM      5  C   UNL A   1     -26.542  -3.592  29.888  0.00  0.00    -0.000 A 
ATOM      6  C   UNL A   1     -25.585  -2.589  29.612  0.00  0.00    -0.004 A 
ENDROOT
BRANCH   2   7
ATOM      7  C   UNL A   1     -23.346  -2.068  28.957  0.00  0.00    +0.052 C 
BRANCH   7   8
ATOM      8  C   UNL A   1     -23.511  -0.607  29.204  0.00  0.00    -0.026 C 
ATOM      9  C   UNL A   1     -22.449   0.362  29.210  0.00  0.00    -0.030 C 
ATOM     10  C   UNL A   1     -21.222  -0.091  28.679  0.00  0.00    +0.030 C 
ENDBRANCH   7   8
ENDBRANCH   2   7
TORSDOF 2
ENDMDL
ENDMDL
