MODEL 1226
MODEL 1
REMARK VINA RESULT:    -5.795      0.000      0.000
REMARK INTER + INTRA:          -6.762
REMARK INTER:                  -6.473
REMARK INTRA:                  -0.289
REMARK UNBOUND:                -0.289
REMARK  Name = No_1226-gen_results/8p0m/2024-11-27-11-27-31/
REMARK  2 active torsions:
REMARK  status: ('A' for Active; 'I' for Inactive)
REMARK    1  A    between atoms: C_2  and  C_11
REMARK    2  A    between atoms: C_3  and  C_7
REMARK                            x       y       z     vdW  Elec       q    Type
REMARK                         _______ _______ _______ _____ _____    ______ ____
ROOT
ATOM      1  C   UNL A   1     -28.437 -11.756  31.207  0.00  0.00    +0.010 A 
ATOM      2  C   UNL A   1     -28.270 -11.449  32.201  0.00  0.00    +0.080 A 
ATOM      3  C   UNL A   1     -29.363 -11.018  30.437  0.00  0.00    +0.072 A 
ATOM      4  C   UNL A   1     -30.047  -9.936  30.955  0.00  0.00    +0.004 A 
ATOM      5  C   UNL A   1     -28.856 -10.345  32.986  0.00  0.00    +0.007 A 
ATOM      6  C   UNL A   1     -29.750  -9.614  32.286  0.00  0.00    +0.000 A 
ENDROOT
BRANCH   3   7
ATOM      7  C   UNL A   1     -29.664 -11.327  28.998  0.00  0.00    +0.419 C 
ATOM      8  F   UNL A   1     -30.123 -10.257  28.487  0.00  0.00    -0.166 F 
ATOM      9  F   UNL A   1     -28.570 -11.743  28.364  0.00  0.00    -0.166 F 
ATOM     10  F   UNL A   1     -30.662 -12.249  28.882  0.00  0.00    -0.166 F 
ENDBRANCH   3   7
BRANCH   2  11
ATOM     11  C   UNL A   1     -27.152 -12.175  33.106  0.00  0.00    +0.388 C 
ATOM     12  O   UNL A   1     -27.249 -12.262  34.291  0.00  0.00    -0.241 OA
ATOM     13  O   UNL A   1     -26.365 -13.003  32.531  0.00  0.00    -0.241 OA
ENDBRANCH   2  11
TORSDOF 2
ENDMDL
ENDMDL
