MODEL 1228
MODEL 1
REMARK VINA RESULT:    -6.976      0.000      0.000
REMARK INTER + INTRA:         -11.140
REMARK INTER:                  -9.015
REMARK INTRA:                  -2.125
REMARK UNBOUND:                -2.125
REMARK  Name = No_1228-gen_results/8p0m/2024-11-27-11-27-31/
REMARK  5 active torsions:
REMARK  status: ('A' for Active; 'I' for Inactive)
REMARK    1  A    between atoms: C_5  and  C_8
REMARK    2  A    between atoms: C_7  and  C_11
REMARK    3  A    between atoms: C_15  and  C_17
REMARK    4  A    between atoms: C_18  and  C_19
REMARK    5  A    between atoms: C_19  and  C_21
REMARK                            x       y       z     vdW  Elec       q    Type
REMARK                         _______ _______ _______ _____ _____    ______ ____
ROOT
ATOM      1  C   UNL A   1     -24.521  -2.583  29.158  0.00  0.00    +0.001 A 
ATOM      2  C   UNL A   1     -23.976  -3.604  28.730  0.00  0.00    +0.000 A 
ATOM      3  C   UNL A   1     -24.591  -4.921  28.963  0.00  0.00    +0.000 A 
ATOM      4  C   UNL A   1     -25.566  -4.967  29.318  0.00  0.00    -0.000 A 
ATOM      5  C   UNL A   1     -25.789  -2.593  29.704  0.00  0.00    -0.000 A 
ATOM      6  C   UNL A   1     -26.372  -3.834  29.892  0.00  0.00    -0.000 A 
ENDROOT
BRANCH   1  13
ATOM      7 CL   UNL A   1     -22.723  -1.207  31.089  0.00  0.00    -0.082 Cl
ATOM      8  C   UNL A   1     -22.805  -0.793  29.710  0.00  0.00    +0.058 A 
ATOM      9  C   UNL A   1     -22.290   0.426  29.296  0.00  0.00    +0.012 A 
ATOM     10  C   UNL A   1     -22.859   1.219  28.297  0.00  0.00    +0.007 A 
ATOM     11  C   UNL A   1     -23.806   0.640  27.363  0.00  0.00    +0.080 A 
ATOM     12  C   UNL A   1     -24.309  -0.607  27.722  0.00  0.00    +0.007 A 
ATOM     13  C   UNL A   1     -23.878  -1.239  28.835  0.00  0.00    +0.011 A 
BRANCH  11  14
ATOM     14  C   UNL A   1     -24.212   1.412  26.226  0.00  0.00    +0.388 C 
ATOM     15  O   UNL A   1     -24.207   2.463  25.896  0.00  0.00    -0.241 OA
ATOM     16  O   UNL A   1     -24.566   0.567  25.144  0.00  0.00    -0.241 OA
ENDBRANCH  11  14
ENDBRANCH   1  13
BRANCH   5  17
ATOM     17  C   UNL A   1     -26.468  -1.429  30.225  0.00  0.00    -0.004 C 
ATOM     18  C   UNL A   1     -26.391  -1.156  31.521  0.00  0.00    -0.019 C 
BRANCH  18  19
ATOM     19  C   UNL A   1     -25.819   0.040  32.018  0.00  0.00    +0.087 C 
ATOM     20  C   UNL A   1     -25.564   1.172  31.216  0.00  0.00    +0.013 C 
BRANCH  19  21
ATOM     21  C   UNL A   1     -25.447   0.123  33.412  0.00  0.00    +0.211 C 
ATOM     22  O   UNL A   1     -24.643  -0.688  33.903  0.00  0.00    -0.288 OA
ENDBRANCH  19  21
ENDBRANCH  18  19
ENDBRANCH   5  17
TORSDOF 5
ENDMDL
ENDMDL
