REMARK  Name = No_1229-gen_results/8p0m/2024-11-27-11-27-31/
REMARK  2 active torsions:
REMARK  status: ('A' for Active; 'I' for Inactive)
REMARK    1  A    between atoms: C_2  and  C_7
REMARK    2  A    between atoms: N_8  and  C_9
REMARK                            x       y       z     vdW  Elec       q    Type
REMARK                         _______ _______ _______ _____ _____    ______ ____
ROOT
ATOM      1  C   UNL A   1     -30.042  -0.769  29.653  0.00  0.00    +0.270 C 
ATOM      2  N   UNL A   1     -30.697   0.239  30.202  0.00  0.00    -0.157 NA
ATOM      3  O   UNL A   1     -30.543  -1.639  29.051  0.00  0.00    -0.268 OA
ENDROOT
BRANCH   1   5
ATOM      4  C   UNL A   1     -28.016  -0.814  28.878  0.00  0.00    +0.005 A 
ATOM      5  C   UNL A   1     -28.469  -0.785  29.829  0.00  0.00    +0.055 A 
ATOM      6  C   UNL A   1     -26.504  -0.778  28.877  0.00  0.00    +0.000 A 
ATOM      7  C   UNL A   1     -25.810  -0.853  30.103  0.00  0.00    +0.000 A 
ATOM      8  C   UNL A   1     -27.991  -0.892  31.226  0.00  0.00    +0.005 A 
ATOM      9  C   UNL A   1     -26.604  -0.868  31.265  0.00  0.00    +0.000 A 
ENDBRANCH   1   5
BRANCH   2  10
ATOM     10  C   UNL A   1     -31.355   1.015  29.809  0.00  0.00    +0.155 A 
ATOM     11  C   UNL A   1     -31.745   1.971  29.808  0.00  0.00    +0.036 A 
ATOM     12  N   UNL A   1     -32.151   0.387  28.713  0.00  0.00    -0.227 NA
ATOM     13  C   UNL A   1     -32.732   2.865  29.184  0.00  0.00    +0.004 A 
ATOM     14  C   UNL A   1     -33.088   0.976  27.991  0.00  0.00    +0.100 A 
ATOM     15  C   UNL A   1     -33.420   2.239  28.210  0.00  0.00    +0.021 A 
ENDBRANCH   2  10
TORSDOF 2
