MODEL 1229
MODEL 1
REMARK VINA RESULT:    -6.996      0.000      0.000
REMARK INTER + INTRA:          -8.178
REMARK INTER:                  -7.814
REMARK INTRA:                  -0.363
REMARK UNBOUND:                -0.363
REMARK  Name = No_1229-gen_results/8p0m/2024-11-27-11-27-31/
REMARK  2 active torsions:
REMARK  status: ('A' for Active; 'I' for Inactive)
REMARK    1  A    between atoms: C_2  and  C_7
REMARK    2  A    between atoms: N_8  and  C_9
REMARK                            x       y       z     vdW  Elec       q    Type
REMARK                         _______ _______ _______ _____ _____    ______ ____
ROOT
ATOM      1  C   UNL A   1     -23.153  -0.673  29.058  0.00  0.00    +0.270 C 
ATOM      2  N   UNL A   1     -24.190  -1.492  29.092  0.00  0.00    -0.157 NA
ATOM      3  O   UNL A   1     -22.268  -0.688  29.824  0.00  0.00    -0.268 OA
ENDROOT
BRANCH   1   5
ATOM      4  C   UNL A   1     -22.251   0.986  27.989  0.00  0.00    +0.005 A 
ATOM      5  C   UNL A   1     -23.119   0.396  27.891  0.00  0.00    +0.055 A 
ATOM      6  C   UNL A   1     -22.046   2.025  26.909  0.00  0.00    +0.000 A 
ATOM      7  C   UNL A   1     -23.061   2.236  25.952  0.00  0.00    +0.000 A 
ATOM      8  C   UNL A   1     -24.324   0.431  27.032  0.00  0.00    +0.005 A 
ATOM      9  C   UNL A   1     -24.175   1.380  26.030  0.00  0.00    +0.000 A 
ENDBRANCH   1   5
BRANCH   2  10
ATOM     10  C   UNL A   1     -24.296  -2.577  29.052  0.00  0.00    +0.155 A 
ATOM     11  C   UNL A   1     -23.959  -3.522  28.809  0.00  0.00    +0.036 A 
ATOM     12  N   UNL A   1     -25.648  -2.894  29.600  0.00  0.00    -0.227 NA
ATOM     13  C   UNL A   1     -24.302  -4.952  28.790  0.00  0.00    +0.004 A 
ATOM     14  C   UNL A   1     -26.187  -4.096  29.704  0.00  0.00    +0.100 A 
ATOM     15  C   UNL A   1     -25.533  -5.171  29.290  0.00  0.00    +0.021 A 
ENDBRANCH   2  10
TORSDOF 2
ENDMDL
ENDMDL
