MODEL 122
MODEL 1
REMARK VINA RESULT:    -6.054      0.000      0.000
REMARK INTER + INTRA:          -7.443
REMARK INTER:                  -7.115
REMARK INTRA:                  -0.328
REMARK UNBOUND:                -0.328
REMARK  Name = No_122-gen_results/8p0m/2024-11-27-11-27-31/
REMARK  3 active torsions:
REMARK  status: ('A' for Active; 'I' for Inactive)
REMARK    1  A    between atoms: C_3  and  C_4
REMARK    2  A    between atoms: C_8  and  C_9
REMARK    3  A    between atoms: C_10  and  C_11
REMARK                            x       y       z     vdW  Elec       q    Type
REMARK                         _______ _______ _______ _____ _____    ______ ____
ROOT
ATOM      1  C   UNL A   1     -24.308  -3.960  28.595  0.00  0.00    +0.004 C 
ATOM      2  C   UNL A   1     -24.702  -4.721  29.208  0.00  0.00    +0.000 C 
ATOM      3  C   UNL A   1     -24.456  -2.615  29.164  0.00  0.00    +0.022 C 
ATOM      4  C   UNL A   1     -26.075  -4.848  29.543  0.00  0.00    +0.000 C 
ATOM      5  C   UNL A   1     -26.628  -3.611  29.996  0.00  0.00    +0.000 C 
ATOM      6  C   UNL A   1     -25.701  -2.341  29.770  0.00  0.00    +0.004 C 
ENDROOT
BRANCH   3   7
ATOM      7  C   UNL A   1     -23.315  -1.823  29.145  0.00  0.00    -0.026 C 
ATOM      8  C   UNL A   1     -23.355  -0.543  28.468  0.00  0.00    -0.005 C 
BRANCH   8   9
ATOM      9  C   UNL A   1     -22.224   0.326  28.561  0.00  0.00    -0.000 C 
ATOM     10  C   UNL A   1     -22.066   1.456  27.707  0.00  0.00    -0.000 C 
BRANCH  10  11
ATOM     11  C   UNL A   1     -23.079   1.734  26.763  0.00  0.00    -0.000 C 
ATOM     12  C   UNL A   1     -22.771   2.303  25.538  0.00  0.00    -0.000 C 
ENDBRANCH  10  11
ENDBRANCH   8   9
ENDBRANCH   3   7
TORSDOF 3
ENDMDL
ENDMDL
