REMARK  Name = outputs/IAG933/test6/raw/output_123_IAG933_linker_design_.xyz
REMARK  18 active torsions:
REMARK  status: ('A' for Active; 'I' for Inactive)
REMARK    1  A    between atoms: C_1  and  C_2
REMARK    2  A    between atoms: C_1  and  C_8
REMARK    3  A    between atoms: C_1  and  O_31
REMARK    4  A    between atoms: C_14  and  C_15
REMARK    5  A    between atoms: C_15  and  O_18
REMARK    6  A    between atoms: O_18  and  C_35
REMARK    7  A    between atoms: C_21  and  O_22
REMARK    8  A    between atoms: O_22  and  C_23
REMARK    9  A    between atoms: C_23  and  C_24
REMARK   10  A    between atoms: C_29  and  C_38
REMARK   11  A    between atoms: C_29  and  O_41
REMARK   12  A    between atoms: O_31  and  C_42
REMARK   13  A    between atoms: N_34  and  C_40
REMARK   14  A    between atoms: C_35  and  C_40
REMARK   15  A    between atoms: C_35  and  C_43
REMARK   16  A    between atoms: C_38  and  C_42
REMARK   17  A    between atoms: C_39  and  O_41
REMARK   18  A    between atoms: C_42  and  C_43
REMARK                            x       y       z     vdW  Elec       q    Type
REMARK                         _______ _______ _______ _____ _____    ______ ____
ROOT
ATOM      1  C   UNL A   1     -25.176   3.131  29.186  0.00  0.00    +0.186 C 
ENDROOT
BRANCH   1   2
ATOM      2  O   UNL A   1     -25.143   3.966  28.243  0.00  0.00    -0.463 OA
BRANCH   2   3
ATOM      3  C   UNL A   1     -25.642   4.093  27.123  0.00  0.00    +0.222 C 
ATOM      4  N   UNL A   1     -25.614   5.252  26.449  0.00  0.00    -0.236 NA
ATOM      5  C   UNL A   1     -25.026   6.479  26.963  0.00  0.00    +0.155 C 
BRANCH   3   7
ATOM      6  C   UNL A   1     -25.688   1.614  26.461  0.00  0.00    +0.041 C 
ATOM      7  C   UNL A   1     -26.250   2.920  26.395  0.00  0.00    +0.074 C 
ATOM      8  C   UNL A   1     -27.438   3.091  25.645  0.00  0.00    +0.107 C 
ATOM      9  N   UNL A   1     -28.075   2.089  25.003  0.00  0.00    -0.208 NA
ATOM     10  C   UNL A   1     -27.543   0.849  25.079  0.00  0.00    +0.253 C 
ATOM     11  C   UNL A   1     -26.354   0.576  25.777  0.00  0.00    +0.193 C 
ATOM     12  F   UNL A   1     -25.860  -0.681  25.795  0.00  0.00    -0.199 F 
BRANCH  10  13
ATOM     13  O   UNL A   1     -28.193  -0.208  24.477  0.00  0.00    -0.456 OA
BRANCH  13  14
ATOM     14  C   UNL A   1     -29.460   0.005  23.866  0.00  0.00    +0.243 C 
BRANCH  14  15
ATOM     15  C   UNL A   1     -30.065  -1.377  23.573  0.00  0.00    +0.229 C 
ATOM     16  O   UNL A   1     -30.729  -1.878  24.721  0.00  0.00    -0.216 OA
ENDBRANCH  14  15
ENDBRANCH  13  14
ENDBRANCH  10  13
ENDBRANCH   3   7
ENDBRANCH   2   3
ENDBRANCH   1   2
BRANCH   1  17
ATOM     17  C   UNL A   1     -26.157   3.482  30.233  0.00  0.00    +0.118 C 
BRANCH  17  21
ATOM     18  C   UNL A   1     -25.844   5.604  31.390  0.00  0.00    +0.220 C 
ATOM     19  C   UNL A   1     -25.285   3.972  32.560  0.00  0.00    +0.107 C 
ATOM     20  C   UNL A   1     -24.831   5.050  33.258  0.00  0.00    +0.161 C 
ATOM     21  N   UNL A   1     -25.780   4.258  31.335  0.00  0.00    -0.242 NA
ATOM     22  O   UNL A   1     -25.474   6.105  32.633  0.00  0.00    -0.336 OA
ENDBRANCH  17  21
ENDBRANCH   1  17
BRANCH   1  23
ATOM     23  C   UNL A   1     -24.235   2.070  29.388  0.00  0.00    +0.078 C 
BRANCH  23  24
ATOM     24  C   UNL A   1     -23.766   0.610  28.813  0.00  0.00    +0.157 C 
BRANCH  24  26
ATOM     25  O   UNL A   1     -22.330  -0.369  30.366  0.00  0.00    -0.212 OA
ATOM     26  C   UNL A   1     -22.405   0.212  29.201  0.00  0.00    +0.235 C 
BRANCH  26  27
ATOM     27  C   UNL A   1     -21.164   0.256  28.353  0.00  0.00    +0.152 C 
ATOM     28  C   UNL A   1     -20.902  -0.666  28.474  0.00  0.00    +0.038 C 
BRANCH  27  29
ATOM     29  O   UNL A   1     -20.724   1.258  27.629  0.00  0.00    -0.448 OA
BRANCH  29  31
ATOM     30  O   UNL A   1     -22.541   2.521  27.191  0.00  0.00    -0.167 OA
ATOM     31  C   UNL A   1     -21.339   1.940  27.005  0.00  0.00    +0.391 C 
ENDBRANCH  29  31
ENDBRANCH  27  29
ENDBRANCH  26  27
ENDBRANCH  24  26
BRANCH  24  32
ATOM     32  O   UNL A   1     -24.867  -0.160  29.208  0.00  0.00    -0.350 OA
BRANCH  32  33
ATOM     33  C   UNL A   1     -24.855  -1.012  30.143  0.00  0.00    +0.153 C 
BRANCH  33  34
ATOM     34  C   UNL A   1     -24.973  -2.505  29.788  0.00  0.00    +0.006 C 
ATOM     35  C   UNL A   1     -23.906  -3.173  29.146  0.00  0.00    -0.002 C 
ATOM     36  C   UNL A   1     -23.989  -4.549  28.853  0.00  0.00    -0.000 C 
ATOM     37  C   UNL A   1     -25.137  -5.280  29.205  0.00  0.00    -0.000 C 
ATOM     38  C   UNL A   1     -26.232  -4.611  29.784  0.00  0.00    -0.000 C 
ATOM     39  C   UNL A   1     -26.155  -3.232  30.065  0.00  0.00    -0.002 C 
ENDBRANCH  33  34
BRANCH  33  40
ATOM     40  C   UNL A   1     -25.387  -0.679  31.571  0.00  0.00    +0.104 C 
ATOM     41  C   UNL A   1     -25.189   0.773  32.028  0.00  0.00    +0.022 C 
ATOM     42  C   UNL A   1     -25.336   0.684  33.544  0.00  0.00    +0.020 C 
ATOM     43  C   UNL A   1     -24.829  -0.715  33.905  0.00  0.00    +0.089 C 
ATOM     44  N   UNL A   1     -24.758  -1.481  32.646  0.00  0.00    -0.217 NA
ENDBRANCH  33  40
ENDBRANCH  32  33
ENDBRANCH  24  32
ENDBRANCH  23  24
ENDBRANCH   1  23
TORSDOF 18
