REMARK  Name = outputs/IAG933/test6/raw/output_1231_IAG933_linker_design_.xyz
REMARK  14 active torsions:
REMARK  status: ('A' for Active; 'I' for Inactive)
REMARK    1  A    between atoms: C_1  and  C_2
REMARK    2  A    between atoms: C_1  and  C_8
REMARK    3  A    between atoms: C_9  and  C_41
REMARK    4  A    between atoms: C_13  and  C_28
REMARK    5  A    between atoms: C_14  and  C_15
REMARK    6  A    between atoms: C_21  and  O_22
REMARK    7  A    between atoms: O_22  and  C_23
REMARK    8  A    between atoms: C_23  and  C_24
REMARK    9  A    between atoms: C_28  and  C_40
REMARK   10  A    between atoms: N_30  and  N_37
REMARK   11  A    between atoms: C_32  and  C_35
REMARK   12  A    between atoms: N_37  and  C_41
REMARK   13  A    between atoms: C_39  and  C_40
REMARK   14  A    between atoms: C_41  and  C_43
REMARK                            x       y       z     vdW  Elec       q    Type
REMARK                         _______ _______ _______ _____ _____    ______ ____
ROOT
ATOM      1  C   UNL A   1     -24.542   1.271  27.250  0.00  0.00    +0.104 C 
ATOM      2  N   UNL A   1     -24.747   1.538  28.815  0.00  0.00    -0.197 NA
ATOM      3  C   UNL A   1     -24.389   0.335  28.047  0.00  0.00    +0.111 C 
ENDROOT
BRANCH   1   4
ATOM      4  C   UNL A   1     -25.688   1.614  26.461  0.00  0.00    +0.032 C 
ATOM      5  C   UNL A   1     -26.250   2.920  26.395  0.00  0.00    +0.074 C 
ATOM      6  C   UNL A   1     -27.438   3.091  25.645  0.00  0.00    +0.106 C 
ATOM      7  N   UNL A   1     -28.075   2.089  25.003  0.00  0.00    -0.208 NA
ATOM      8  C   UNL A   1     -27.543   0.849  25.079  0.00  0.00    +0.253 C 
ATOM      9  C   UNL A   1     -26.354   0.576  25.777  0.00  0.00    +0.190 C 
ATOM     10  F   UNL A   1     -25.860  -0.681  25.795  0.00  0.00    -0.200 F 
BRANCH   5  11
ATOM     11  C   UNL A   1     -25.642   4.093  27.123  0.00  0.00    +0.266 C 
ATOM     12  N   UNL A   1     -25.614   5.252  26.449  0.00  0.00    -0.200 NA
ATOM     13  C   UNL A   1     -25.026   6.479  26.963  0.00  0.00    +0.139 C 
ATOM     14  O   UNL A   1     -25.143   3.966  28.243  0.00  0.00    -0.268 OA
ENDBRANCH   5  11
BRANCH   8  15
ATOM     15  O   UNL A   1     -28.193  -0.208  24.477  0.00  0.00    -0.456 OA
BRANCH  15  16
ATOM     16  C   UNL A   1     -29.460   0.005  23.866  0.00  0.00    +0.243 C 
BRANCH  16  17
ATOM     17  C   UNL A   1     -30.065  -1.377  23.573  0.00  0.00    +0.229 C 
ATOM     18  O   UNL A   1     -30.729  -1.878  24.721  0.00  0.00    -0.216 OA
ENDBRANCH  16  17
ENDBRANCH  15  16
ENDBRANCH   8  15
ENDBRANCH   1   4
BRANCH   2  19
ATOM     19  N   UNL A   1     -24.923   2.118  30.035  0.00  0.00    -0.114 NA
BRANCH  19  20
ATOM     20  C   UNL A   1     -25.831   1.781  31.114  0.00  0.00    +0.220 C 
ATOM     21  O   UNL A   1     -26.992   1.390  30.502  0.00  0.00    -0.202 OA
BRANCH  20  24
ATOM     22  C   UNL A   1     -26.036   5.329  33.604  0.00  0.00    -0.002 C 
ATOM     23  C   UNL A   1     -27.261   4.705  33.244  0.00  0.00    +0.010 C 
ATOM     24  C   UNL A   1     -26.063   3.140  31.801  0.00  0.00    +0.021 C 
ATOM     25  C   UNL A   1     -27.274   3.630  32.301  0.00  0.00    -0.002 C 
ATOM     26  C   UNL A   1     -24.860   3.836  32.076  0.00  0.00    -0.001 C 
ATOM     27  C   UNL A   1     -24.828   4.892  33.010  0.00  0.00    -0.000 C 
BRANCH  23  29
ATOM     28  O   UNL A   1     -28.150   4.537  35.007  0.00  0.00    -0.215 OA
ATOM     29  C   UNL A   1     -28.557   5.219  33.822  0.00  0.00    +0.209 C 
ENDBRANCH  23  29
ENDBRANCH  20  24
BRANCH  20  31
ATOM     30  C   UNL A   1     -25.387  -0.679  31.571  0.00  0.00    +0.081 C 
ATOM     31  C   UNL A   1     -25.189   0.773  32.028  0.00  0.00    +0.067 C 
ATOM     32  C   UNL A   1     -25.336   0.684  33.544  0.00  0.00    +0.025 C 
ATOM     33  C   UNL A   1     -24.829  -0.715  33.905  0.00  0.00    +0.089 C 
ATOM     34  N   UNL A   1     -24.758  -1.481  32.646  0.00  0.00    -0.219 NA
BRANCH  30  35
ATOM     35  C   UNL A   1     -24.855  -1.012  30.143  0.00  0.00    +0.044 C 
BRANCH  35  36
ATOM     36  C   UNL A   1     -24.973  -2.505  29.788  0.00  0.00    -0.021 C 
ATOM     37  C   UNL A   1     -23.906  -3.173  29.146  0.00  0.00    -0.004 C 
ATOM     38  C   UNL A   1     -23.989  -4.549  28.853  0.00  0.00    -0.000 C 
ATOM     39  C   UNL A   1     -25.137  -5.280  29.205  0.00  0.00    -0.000 C 
ATOM     40  C   UNL A   1     -26.232  -4.611  29.784  0.00  0.00    -0.000 C 
ATOM     41  C   UNL A   1     -26.155  -3.232  30.065  0.00  0.00    -0.004 C 
ENDBRANCH  35  36
ENDBRANCH  30  35
ENDBRANCH  20  31
ENDBRANCH  19  20
ENDBRANCH   2  19
BRANCH   1  42
ATOM     42  C   UNL A   1     -23.229   1.677  26.268  0.00  0.00    +0.082 C 
BRANCH  42  46
ATOM     43  C   UNL A   1     -21.762   1.345  28.039  0.00  0.00    +0.259 C 
ATOM     44  O   UNL A   1     -21.859   0.470  29.270  0.00  0.00    -0.281 OA
ATOM     45  F   UNL A   1     -21.358   2.014  27.475  0.00  0.00    -0.205 F 
ATOM     46  C   UNL A   1     -22.186   1.792  27.117  0.00  0.00    +0.161 C 
ENDBRANCH  42  46
ENDBRANCH   1  42
TORSDOF 14
