MODEL 1231
MODEL 1
REMARK VINA RESULT:    -7.197      0.000      0.000
REMARK INTER + INTRA:          -9.719
REMARK INTER:                  -8.879
REMARK INTRA:                  -0.840
REMARK UNBOUND:                -0.840
REMARK  Name = No_1231-gen_results/8p0m/2024-11-27-11-27-31/
REMARK  4 active torsions:
REMARK  status: ('A' for Active; 'I' for Inactive)
REMARK    1  A    between atoms: C_2  and  C_7
REMARK    2  A    between atoms: C_7  and  C_14
REMARK    3  A    between atoms: C_8  and  C_9
REMARK    4  A    between atoms: C_9  and  C_11
REMARK                            x       y       z     vdW  Elec       q    Type
REMARK                         _______ _______ _______ _____ _____    ______ ____
ROOT
ATOM      1  C   UNL A   1     -24.246  -0.909  29.427  0.00  0.00    -0.006 C 
ATOM      2  C   UNL A   1     -23.808  -0.257  30.362  0.00  0.00    +0.001 C 
ENDROOT
BRANCH   1   4
ATOM      3  C   UNL A   1     -25.844  -2.665  29.760  0.00  0.00    -0.000 A 
ATOM      4  C   UNL A   1     -24.750  -2.308  29.391  0.00  0.00    -0.001 A 
ATOM      5  C   UNL A   1     -23.839  -3.215  28.860  0.00  0.00    -0.000 A 
ATOM      6  C   UNL A   1     -24.155  -4.618  28.777  0.00  0.00    -0.000 A 
ATOM      7  C   UNL A   1     -25.432  -4.948  29.249  0.00  0.00    -0.000 A 
ATOM      8  C   UNL A   1     -26.249  -4.054  29.757  0.00  0.00    -0.000 A 
ENDBRANCH   1   4
BRANCH   1   9
ATOM      9  C   UNL A   1     -24.425  -0.259  28.064  0.00  0.00    -0.019 C 
ATOM     10  C   UNL A   1     -25.162  -0.426  27.368  0.00  0.00    -0.004 C 
ATOM     11  C   UNL A   1     -25.287   0.261  26.057  0.00  0.00    -0.005 C 
ATOM     12  C   UNL A   1     -24.274   1.145  25.825  0.00  0.00    -0.022 C 
ATOM     13  C   UNL A   1     -23.442   0.774  27.550  0.00  0.00    +0.044 C 
ATOM     14  C   UNL A   1     -22.344   1.556  27.431  0.00  0.00    +0.009 C 
ENDBRANCH   1   9
BRANCH   2  15
ATOM     15  C   UNL A   1     -23.741  -0.952  31.721  0.00  0.00    +0.204 C 
ATOM     16 CL   UNL A   1     -22.873  -1.519  32.319  0.00  0.00    -0.098 Cl
BRANCH  15  17
ATOM     17  C   UNL A   1     -24.959  -0.413  32.626  0.00  0.00    +0.384 C 
ATOM     18  O   UNL A   1     -24.768  -0.441  33.778  0.00  0.00    -0.244 OA
ATOM     19  O   UNL A   1     -26.102  -0.078  32.147  0.00  0.00    -0.244 OA
ENDBRANCH  15  17
ENDBRANCH   2  15
TORSDOF 4
ENDMDL
ENDMDL
