MODEL 1233
MODEL 1
REMARK VINA RESULT:    -5.706      0.000      0.000
REMARK INTER + INTRA:          -7.105
REMARK INTER:                  -6.707
REMARK INTRA:                  -0.398
REMARK UNBOUND:                -0.398
REMARK  Name = No_1233-gen_results/8p0m/2024-11-27-11-27-31/
REMARK  3 active torsions:
REMARK  status: ('A' for Active; 'I' for Inactive)
REMARK    1  A    between atoms: C_3  and  C_4
REMARK    2  A    between atoms: C_4  and  C_8
REMARK    3  A    between atoms: C_9  and  C_10
REMARK                            x       y       z     vdW  Elec       q    Type
REMARK                         _______ _______ _______ _____ _____    ______ ____
ROOT
ATOM      1  C   UNL A   1     -25.760  -2.591  29.419  0.00  0.00    -0.004 A 
ATOM      2  C   UNL A   1     -26.247  -3.356  29.956  0.00  0.00    -0.000 A 
ATOM      3  C   UNL A   1     -24.380  -2.934  28.906  0.00  0.00    -0.018 A 
ATOM      4  C   UNL A   1     -26.221  -4.840  29.637  0.00  0.00    -0.000 A 
ATOM      5  C   UNL A   1     -25.027  -5.239  29.067  0.00  0.00    -0.000 A 
ATOM      6  C   UNL A   1     -24.060  -4.329  28.683  0.00  0.00    -0.004 A 
ENDROOT
BRANCH   3   7
ATOM      7  C   UNL A   1     -23.299  -2.039  28.972  0.00  0.00    +0.052 C 
BRANCH   7   8
ATOM      8  C   UNL A   1     -23.161  -1.141  29.884  0.00  0.00    -0.021 C 
ATOM      9  C   UNL A   1     -22.310   0.006  29.726  0.00  0.00    -0.004 C 
BRANCH   9  10
ATOM     10  C   UNL A   1     -21.587   0.178  28.579  0.00  0.00    -0.000 C 
ATOM     11  C   UNL A   1     -21.911   1.279  27.738  0.00  0.00    -0.000 C 
ENDBRANCH   9  10
ENDBRANCH   7   8
ENDBRANCH   3   7
TORSDOF 3
ENDMDL
ENDMDL
