MODEL 1234
MODEL 1
REMARK VINA RESULT:    -7.513      0.000      0.000
REMARK INTER + INTRA:         -14.058
REMARK INTER:                 -11.466
REMARK INTRA:                  -2.592
REMARK UNBOUND:                -2.592
REMARK  Name = No_1234-gen_results/8p0m/2024-11-27-11-27-31/
REMARK  9 active torsions:
REMARK  status: ('A' for Active; 'I' for Inactive)
REMARK    1  A    between atoms: C_1  and  C_2
REMARK    2  A    between atoms: C_1  and  C_8
REMARK    3  A    between atoms: C_4  and  C_17
REMARK    4  A    between atoms: C_5  and  C_14
REMARK    5  A    between atoms: C_11  and  C_29
REMARK    6  A    between atoms: C_14  and  C_15
REMARK    7  A    between atoms: C_15  and  C_20
REMARK    8  A    between atoms: C_20  and  O_21
REMARK    9  A    between atoms: O_21  and  C_22
REMARK                            x       y       z     vdW  Elec       q    Type
REMARK                         _______ _______ _______ _____ _____    ______ ____
ROOT
ATOM      1  C   UNL A   1     -27.057   0.507  25.550  0.00  0.00    -0.018 A 
ATOM      2  C   UNL A   1     -26.943   1.615  26.325  0.00  0.00    +0.002 A 
ATOM      3  C   UNL A   1     -25.660   2.249  26.704  0.00  0.00    +0.075 A 
ATOM      4  C   UNL A   1     -24.462   1.622  26.228  0.00  0.00    -0.016 A 
ATOM      5  C   UNL A   1     -24.620   0.430  25.485  0.00  0.00    -0.004 A 
ATOM      6  C   UNL A   1     -25.845  -0.100  25.172  0.00  0.00    -0.004 A 
ENDROOT
BRANCH   3   7
ATOM      7  C   UNL A   1     -25.536   3.427  27.539  0.00  0.00    +0.387 C 
ATOM      8  O   UNL A   1     -25.591   3.140  28.794  0.00  0.00    -0.241 OA
ATOM      9  O   UNL A   1     -25.563   4.517  27.066  0.00  0.00    -0.241 OA
ENDBRANCH   3   7
BRANCH   4  10
ATOM     10  C   UNL A   1     -23.153   2.130  26.497  0.00  0.00    +0.026 C 
ATOM     11  C   UNL A   1     -22.428   2.354  25.126  0.00  0.00    +0.005 C 
BRANCH  10  12
ATOM     12  C   UNL A   1     -22.221   1.542  27.385  0.00  0.00    +0.052 C 
BRANCH  12  13
ATOM     13  C   UNL A   1     -22.691   1.188  28.721  0.00  0.00    +0.206 C 
BRANCH  13  14
ATOM     14  O   UNL A   1     -22.674  -0.047  28.786  0.00  0.00    -0.475 OA
BRANCH  14  15
ATOM     15  C   UNL A   1     -23.766  -0.913  28.827  0.00  0.00    +0.139 A 
ATOM     16  C   UNL A   1     -25.019  -0.449  29.164  0.00  0.00    +0.037 A 
ATOM     17  C   UNL A   1     -26.112  -1.299  29.315  0.00  0.00    +0.004 A 
ATOM     18  C   UNL A   1     -25.817  -2.739  29.365  0.00  0.00    +0.012 A 
ATOM     19  C   UNL A   1     -24.564  -3.212  28.985  0.00  0.00    +0.061 A 
ATOM     20  C   UNL A   1     -23.492  -2.279  28.768  0.00  0.00    +0.048 A 
ATOM     21 CL   UNL A   1     -24.239  -4.875  28.866  0.00  0.00    -0.082 Cl
ENDBRANCH  14  15
ENDBRANCH  13  14
ENDBRANCH  12  13
ENDBRANCH  10  12
ENDBRANCH   4  10
BRANCH   1  22
ATOM     22  C   UNL A   1     -28.112  -0.002  25.249  0.00  0.00    +0.053 C 
BRANCH  22  23
ATOM     23  C   UNL A   1     -29.044   0.820  24.358  0.00  0.00    -0.018 A 
ATOM     24  C   UNL A   1     -30.152   0.317  23.981  0.00  0.00    -0.004 A 
ATOM     25  C   UNL A   1     -30.980   0.583  23.243  0.00  0.00    +0.004 A 
ATOM     26  C   UNL A   1     -30.717   1.935  22.558  0.00  0.00    +0.071 A 
ATOM     27  C   UNL A   1     -29.608   2.611  22.899  0.00  0.00    +0.004 A 
ATOM     28  C   UNL A   1     -28.703   2.056  23.778  0.00  0.00    -0.004 A 
BRANCH  26  29
ATOM     29  C   UNL A   1     -31.750   2.497  21.580  0.00  0.00    +0.419 C 
ATOM     30  F   UNL A   1     -31.368   2.948  20.692  0.00  0.00    -0.166 F 
ATOM     31  F   UNL A   1     -32.460   3.413  22.317  0.00  0.00    -0.166 F 
ATOM     32  F   UNL A   1     -32.625   1.462  21.341  0.00  0.00    -0.166 F 
ENDBRANCH  26  29
ENDBRANCH  22  23
ENDBRANCH   1  22
TORSDOF 9
ENDMDL
ENDMDL
