REMARK  Name = No_1235-gen_results/8p0m/2024-11-27-11-27-31/
REMARK  0 active torsions:
REMARK  status: ('A' for Active; 'I' for Inactive)
REMARK                            x       y       z     vdW  Elec       q    Type
REMARK                         _______ _______ _______ _____ _____    ______ ____
ROOT
ATOM      1  C   UNL A   1     -28.016  -0.814  28.878  0.00  0.00    +0.000 A 
ATOM      2  C   UNL A   1     -27.064  -0.119  28.608  0.00  0.00    -0.004 A 
ATOM      3  C   UNL A   1     -27.001   0.691  27.491  0.00  0.00    -0.000 A 
ATOM      4  C   UNL A   1     -25.855   1.482  27.083  0.00  0.00    -0.000 A 
ATOM      5  C   UNL A   1     -24.690   1.453  27.881  0.00  0.00    -0.000 A 
ATOM      6  C   UNL A   1     -24.738   0.601  29.042  0.00  0.00    -0.004 A 
ATOM      7  C   UNL A   1     -25.823  -0.169  29.389  0.00  0.00    -0.017 A 
ATOM      8  C   UNL A   1     -29.245  -0.068  29.194  0.00  0.00    -0.000 A 
ATOM      9  C   UNL A   1     -30.331  -0.831  29.688  0.00  0.00    +0.000 A 
ATOM     10  C   UNL A   1     -30.123  -2.144  30.104  0.00  0.00    +0.000 A 
ATOM     11  C   UNL A   1     -28.897  -2.744  30.123  0.00  0.00    +0.000 A 
ATOM     12  C   UNL A   1     -27.815  -2.061  29.614  0.00  0.00    +0.005 A 
ATOM     13  C   UNL A   1     -26.469  -2.599  29.736  0.00  0.00    +0.037 C 
ATOM     14  C   UNL A   1     -26.198  -3.854  30.049  0.00  0.00    +0.017 C 
ATOM     15  C   UNL A   1     -25.343  -1.592  29.559  0.00  0.00    +0.062 C 
ATOM     16  N   UNL A   1     -25.012  -4.353  29.655  0.00  0.00    -0.096 NA
ENDROOT
TORSDOF 0
