MODEL 1236
MODEL 1
REMARK VINA RESULT:    -7.217      0.000      0.000
REMARK INTER + INTRA:          -8.635
REMARK INTER:                  -8.061
REMARK INTRA:                  -0.574
REMARK UNBOUND:                -0.574
REMARK  Name = No_1236-gen_results/8p0m/2024-11-27-11-27-31/
REMARK  2 active torsions:
REMARK  status: ('A' for Active; 'I' for Inactive)
REMARK    1  A    between atoms: C_2  and  C_8
REMARK    2  A    between atoms: C_8  and  C_9
REMARK                            x       y       z     vdW  Elec       q    Type
REMARK                         _______ _______ _______ _____ _____    ______ ____
ROOT
ATOM      1  C   UNL A   1     -22.984  -0.992  29.299  0.00  0.00    +0.045 C 
ATOM      2  C   UNL A   1     -22.806  -0.362  30.704  0.00  0.00    +0.009 C 
ENDROOT
BRANCH   1   4
ATOM      3  C   UNL A   1     -24.053   0.184  27.437  0.00  0.00    -0.002 A 
ATOM      4  C   UNL A   1     -23.116   0.118  28.199  0.00  0.00    -0.018 A 
ATOM      5  C   UNL A   1     -21.988   0.909  28.095  0.00  0.00    -0.002 A 
ATOM      6  C   UNL A   1     -21.948   1.879  27.055  0.00  0.00    +0.029 A 
ATOM      7  C   UNL A   1     -23.086   2.031  26.338  0.00  0.00    +0.140 A 
ATOM      8  C   UNL A   1     -24.135   1.255  26.534  0.00  0.00    +0.029 A 
ATOM      9  F   UNL A   1     -23.061   2.974  25.397  0.00  0.00    -0.204 F 
ENDBRANCH   1   4
BRANCH   1  10
ATOM     10  C   UNL A   1     -23.855  -2.063  29.325  0.00  0.00    -0.018 A 
ATOM     11  C   UNL A   1     -23.849  -3.047  28.906  0.00  0.00    -0.002 A 
ATOM     12  C   UNL A   1     -24.903  -4.112  29.050  0.00  0.00    +0.029 A 
ATOM     13  C   UNL A   1     -25.228  -1.859  30.108  0.00  0.00    -0.002 A 
ATOM     14  C   UNL A   1     -26.187  -2.754  30.225  0.00  0.00    +0.029 A 
ATOM     15  C   UNL A   1     -25.992  -3.997  29.630  0.00  0.00    +0.140 A 
ATOM     16  F   UNL A   1     -26.932  -4.947  29.735  0.00  0.00    -0.204 F 
ENDBRANCH   1  10
TORSDOF 2
ENDMDL
ENDMDL
