MODEL 1237
MODEL 1
REMARK VINA RESULT:    -8.143      0.000      0.000
REMARK INTER + INTRA:         -14.036
REMARK INTER:                 -11.476
REMARK INTRA:                  -2.560
REMARK UNBOUND:                -2.560
REMARK  Name = No_1237-gen_results/8p0m/2024-11-27-11-27-31/
REMARK  7 active torsions:
REMARK  status: ('A' for Active; 'I' for Inactive)
REMARK    1  A    between atoms: C_2  and  C_5
REMARK    2  A    between atoms: C_6  and  C_15
REMARK    3  A    between atoms: N_8  and  C_18
REMARK    4  A    between atoms: C_18  and  C_19
REMARK    5  A    between atoms: C_19  and  N_21
REMARK    6  A    between atoms: N_21  and  C_22
REMARK    7  A    between atoms: N_21  and  C_28
REMARK                            x       y       z     vdW  Elec       q    Type
REMARK                         _______ _______ _______ _____ _____    ______ ____
ROOT
ATOM      1  C   UNL A   1     -22.377   0.315  28.576  0.00  0.00    +0.265 C 
ATOM      2  N   UNL A   1     -22.636   0.407  29.705  0.00  0.00    -0.199 NA
ATOM      3  O   UNL A   1     -21.134   0.349  28.165  0.00  0.00    -0.268 OA
ENDROOT
BRANCH   1   5
ATOM      4  C   UNL A   1     -24.096   0.258  27.026  0.00  0.00    +0.005 A 
ATOM      5  C   UNL A   1     -23.443   0.892  27.557  0.00  0.00    +0.055 A 
ATOM      6  C   UNL A   1     -24.990   0.900  26.104  0.00  0.00    +0.001 A 
ATOM      7  C   UNL A   1     -25.125   2.227  26.023  0.00  0.00    +0.006 A 
ATOM      8  C   UNL A   1     -24.271   2.967  26.775  0.00  0.00    +0.080 A 
ATOM      9  C   UNL A   1     -23.401   2.324  27.578  0.00  0.00    +0.011 A 
ATOM     10  C   UNL A   1     -25.907  -0.029  25.252  0.00  0.00    +0.011 A 
ATOM     11  C   UNL A   1     -27.144   0.276  24.924  0.00  0.00    +0.058 A 
ATOM     12  C   UNL A   1     -27.650   1.473  25.384  0.00  0.00    +0.011 A 
ATOM     13  C   UNL A   1     -26.643   2.507  25.706  0.00  0.00    +0.001 A 
ATOM     14 CL   UNL A   1     -28.057  -0.739  23.984  0.00  0.00    -0.082 Cl
BRANCH   8  15
ATOM     15  C   UNL A   1     -24.432   4.447  26.774  0.00  0.00    +0.388 C 
ATOM     16  O   UNL A   1     -24.893   5.100  27.583  0.00  0.00    -0.241 OA
ATOM     17  O   UNL A   1     -24.153   4.895  25.479  0.00  0.00    -0.241 OA
ENDBRANCH   8  15
ENDBRANCH   1   5
BRANCH   2  18
ATOM     18  C   UNL A   1     -23.991   0.556  30.263  0.00  0.00    +0.152 C 
BRANCH  18  19
ATOM     19  C   UNL A   1     -24.466  -0.652  30.826  0.00  0.00    +0.179 C 
ATOM     20 CL   UNL A   1     -24.213  -0.975  31.944  0.00  0.00    -0.090 Cl
BRANCH  19  21
ATOM     21  N   UNL A   1     -25.531  -1.391  29.973  0.00  0.00    -0.273 N 
BRANCH  21  22
ATOM     22  C   UNL A   1     -26.687  -0.818  29.698  0.00  0.00    +0.052 A 
ATOM     23  C   UNL A   1     -27.055  -0.432  28.817  0.00  0.00    +0.015 A 
ATOM     24  C   UNL A   1     -28.343   0.265  28.605  0.00  0.00    +0.001 A 
ATOM     25  C   UNL A   1     -29.182   0.349  29.712  0.00  0.00    +0.000 A 
ATOM     26  C   UNL A   1     -28.733  -0.088  30.912  0.00  0.00    +0.001 A 
ATOM     27  C   UNL A   1     -27.551  -0.606  30.991  0.00  0.00    +0.015 A 
ENDBRANCH  21  22
BRANCH  21  28
ATOM     28  C   UNL A   1     -25.418  -2.760  29.789  0.00  0.00    +0.052 A 
ATOM     29  C   UNL A   1     -24.145  -3.012  29.047  0.00  0.00    +0.015 A 
ATOM     30  C   UNL A   1     -23.961  -4.249  28.614  0.00  0.00    +0.001 A 
ATOM     31  C   UNL A   1     -24.908  -5.245  28.894  0.00  0.00    +0.000 A 
ATOM     32  C   UNL A   1     -26.097  -4.926  29.553  0.00  0.00    +0.001 A 
ATOM     33  C   UNL A   1     -26.272  -3.644  29.983  0.00  0.00    +0.015 A 
ENDBRANCH  21  28
ENDBRANCH  19  21
ENDBRANCH  18  19
ENDBRANCH   2  18
TORSDOF 7
ENDMDL
ENDMDL
