REMARK  Name = outputs/IAG933/test6/raw/output_1237_IAG933_linker_design_.xyz
REMARK  14 active torsions:
REMARK  status: ('A' for Active; 'I' for Inactive)
REMARK    1  A    between atoms: C_1  and  C_2
REMARK    2  A    between atoms: C_1  and  C_8
REMARK    3  A    between atoms: C_1  and  C_39
REMARK    4  A    between atoms: C_13  and  N_34
REMARK    5  A    between atoms: C_14  and  C_15
REMARK    6  A    between atoms: C_21  and  O_22
REMARK    7  A    between atoms: O_22  and  C_23
REMARK    8  A    between atoms: C_23  and  C_24
REMARK    9  A    between atoms: C_29  and  O_32
REMARK   10  A    between atoms: C_29  and  C_39
REMARK   11  A    between atoms: C_31  and  C_36
REMARK   12  A    between atoms: O_32  and  C_40
REMARK   13  A    between atoms: C_36  and  C_39
REMARK   14  A    between atoms: C_38  and  C_42
REMARK                            x       y       z     vdW  Elec       q    Type
REMARK                         _______ _______ _______ _____ _____    ______ ____
ROOT
ATOM      1  C   UNL A   1     -23.286   0.148  28.277  0.00  0.00    +0.025 C 
ENDROOT
BRANCH   1   2
ATOM      2  C   UNL A   1     -23.537   1.661  27.790  0.00  0.00    +0.091 C 
ATOM      3  N   UNL A   1     -24.596   1.485  27.022  0.00  0.00    -0.305 N 
ATOM      4  C   UNL A   1     -23.152   1.812  26.358  0.00  0.00    +0.091 C 
BRANCH   3   5
ATOM      5  C   UNL A   1     -25.688   1.614  26.461  0.00  0.00    +0.086 C 
ATOM      6  C   UNL A   1     -26.250   2.920  26.395  0.00  0.00    +0.090 C 
ATOM      7  C   UNL A   1     -27.438   3.091  25.645  0.00  0.00    +0.108 C 
ATOM      8  N   UNL A   1     -28.075   2.089  25.003  0.00  0.00    -0.208 NA
ATOM      9  C   UNL A   1     -27.543   0.849  25.079  0.00  0.00    +0.255 C 
ATOM     10  C   UNL A   1     -26.354   0.576  25.777  0.00  0.00    +0.206 C 
ATOM     11  F   UNL A   1     -25.860  -0.681  25.795  0.00  0.00    -0.198 F 
BRANCH   6  12
ATOM     12  C   UNL A   1     -25.642   4.093  27.123  0.00  0.00    +0.268 C 
ATOM     13  N   UNL A   1     -25.614   5.252  26.449  0.00  0.00    -0.200 NA
ATOM     14  C   UNL A   1     -25.026   6.479  26.963  0.00  0.00    +0.139 C 
ATOM     15  O   UNL A   1     -25.143   3.966  28.243  0.00  0.00    -0.268 OA
ENDBRANCH   6  12
BRANCH   9  16
ATOM     16  O   UNL A   1     -28.193  -0.208  24.477  0.00  0.00    -0.456 OA
BRANCH  16  17
ATOM     17  C   UNL A   1     -29.460   0.005  23.866  0.00  0.00    +0.243 C 
BRANCH  17  18
ATOM     18  C   UNL A   1     -30.065  -1.377  23.573  0.00  0.00    +0.229 C 
ATOM     19  O   UNL A   1     -30.729  -1.878  24.721  0.00  0.00    -0.216 OA
ENDBRANCH  17  18
ENDBRANCH  16  17
ENDBRANCH   9  16
ENDBRANCH   3   5
BRANCH   4  21
ATOM     20  C   UNL A   1     -20.907   1.097  27.357  0.00  0.00    +0.002 C 
ATOM     21  C   UNL A   1     -21.626   1.483  26.113  0.00  0.00    +0.021 C 
ENDBRANCH   4  21
ENDBRANCH   1   2
BRANCH   1  22
ATOM     22  C   UNL A   1     -24.750  -0.033  28.953  0.00  0.00    +0.051 C 
BRANCH  22  23
ATOM     23  C   UNL A   1     -24.855  -1.012  30.143  0.00  0.00    +0.042 C 
BRANCH  23  24
ATOM     24  C   UNL A   1     -24.973  -2.505  29.788  0.00  0.00    -0.021 C 
ATOM     25  C   UNL A   1     -23.906  -3.173  29.146  0.00  0.00    -0.004 C 
ATOM     26  C   UNL A   1     -23.989  -4.549  28.853  0.00  0.00    -0.000 C 
ATOM     27  C   UNL A   1     -25.137  -5.280  29.205  0.00  0.00    -0.000 C 
ATOM     28  C   UNL A   1     -26.232  -4.611  29.784  0.00  0.00    -0.000 C 
ATOM     29  C   UNL A   1     -26.155  -3.232  30.065  0.00  0.00    -0.004 C 
ENDBRANCH  23  24
BRANCH  23  30
ATOM     30  C   UNL A   1     -25.387  -0.679  31.571  0.00  0.00    +0.077 C 
ATOM     31  C   UNL A   1     -25.189   0.773  32.028  0.00  0.00    +0.019 C 
ATOM     32  C   UNL A   1     -25.336   0.684  33.544  0.00  0.00    +0.020 C 
ATOM     33  C   UNL A   1     -24.829  -0.715  33.905  0.00  0.00    +0.089 C 
ATOM     34  N   UNL A   1     -24.758  -1.481  32.646  0.00  0.00    -0.219 NA
ENDBRANCH  23  30
ENDBRANCH  22  23
BRANCH  22  35
ATOM     35  C   UNL A   1     -26.208  -0.251  28.368  0.00  0.00    +0.206 C 
BRANCH  35  36
ATOM     36  O   UNL A   1     -27.369   0.203  29.203  0.00  0.00    -0.475 OA
BRANCH  36  41
ATOM     37  C   UNL A   1     -30.549   1.025  27.231  0.00  0.00    +0.003 C 
ATOM     38  C   UNL A   1     -30.100   2.876  28.761  0.00  0.00    +0.003 C 
ATOM     39  C   UNL A   1     -28.979   2.158  29.255  0.00  0.00    +0.037 C 
ATOM     40  C   UNL A   1     -30.894   2.301  27.731  0.00  0.00    +0.000 C 
ATOM     41  C   UNL A   1     -28.618   0.891  28.742  0.00  0.00    +0.139 C 
ATOM     42  C   UNL A   1     -29.430   0.310  27.720  0.00  0.00    +0.037 C 
ENDBRANCH  36  41
ENDBRANCH  35  36
ENDBRANCH  22  35
ENDBRANCH   1  22
TORSDOF 14
