REMARK  Name = No_1238-gen_results/8p0m/2024-11-27-11-27-31/
REMARK  5 active torsions:
REMARK  status: ('A' for Active; 'I' for Inactive)
REMARK    1  A    between atoms: C_1  and  C_2
REMARK    2  A    between atoms: C_1  and  C_8
REMARK    3  A    between atoms: C_5  and  C_10
REMARK    4  A    between atoms: C_9  and  C_13
REMARK    5  A    between atoms: C_14  and  C_15
REMARK                            x       y       z     vdW  Elec       q    Type
REMARK                         _______ _______ _______ _____ _____    ______ ____
ROOT
ATOM      1  C   UNL A   1     -27.064  -0.119  28.608  0.00  0.00    -0.018 A 
ATOM      2  C   UNL A   1     -26.876   1.133  28.913  0.00  0.00    -0.004 A 
ATOM      3  C   UNL A   1     -25.688   1.952  28.567  0.00  0.00    +0.002 A 
ATOM      4  C   UNL A   1     -24.639   1.283  27.875  0.00  0.00    +0.030 A 
ATOM      5  C   UNL A   1     -24.807  -0.051  27.604  0.00  0.00    +0.002 A 
ATOM      6  C   UNL A   1     -25.902  -0.767  27.951  0.00  0.00    -0.004 A 
ENDROOT
BRANCH   4   7
ATOM      7  C   UNL A   1     -23.450   1.991  27.465  0.00  0.00    +0.160 C 
ATOM      8  N   UNL A   1     -23.143   2.658  26.625  0.00  0.00    -0.136 NA
ATOM      9 CL   UNL A   1     -22.015   1.582  28.543  0.00  0.00    -0.059 Cl
ENDBRANCH   4   7
BRANCH   1  10
ATOM     10  C   UNL A   1     -28.016  -0.814  28.878  0.00  0.00    +0.052 C 
BRANCH  10  11
ATOM     11  C   UNL A   1     -28.639  -0.512  30.240  0.00  0.00    -0.021 C 
ATOM     12  C   UNL A   1     -29.654  -1.114  30.635  0.00  0.00    -0.004 C 
BRANCH  12  13
ATOM     13  C   UNL A   1     -30.227  -2.176  29.878  0.00  0.00    -0.000 C 
ATOM     14  C   UNL A   1     -31.346  -2.891  30.402  0.00  0.00    -0.000 C 
BRANCH  14  15
ATOM     15  C   UNL A   1     -31.894  -2.504  31.601  0.00  0.00    -0.000 C 
ATOM     16  C   UNL A   1     -31.428  -1.526  32.387  0.00  0.00    -0.000 C 
ENDBRANCH  14  15
ENDBRANCH  12  13
ENDBRANCH  10  11
ENDBRANCH   1  10
TORSDOF 5
