MODEL 1238
MODEL 1
REMARK VINA RESULT:    -5.907      0.000      0.000
REMARK INTER + INTRA:          -9.138
REMARK INTER:                  -7.634
REMARK INTRA:                  -1.504
REMARK UNBOUND:                -1.504
REMARK  Name = No_1238-gen_results/8p0m/2024-11-27-11-27-31/
REMARK  5 active torsions:
REMARK  status: ('A' for Active; 'I' for Inactive)
REMARK    1  A    between atoms: C_1  and  C_2
REMARK    2  A    between atoms: C_1  and  C_8
REMARK    3  A    between atoms: C_5  and  C_10
REMARK    4  A    between atoms: C_9  and  C_13
REMARK    5  A    between atoms: C_14  and  C_15
REMARK                            x       y       z     vdW  Elec       q    Type
REMARK                         _______ _______ _______ _____ _____    ______ ____
ROOT
ATOM      1  C   UNL A   1     -23.675   0.106  29.071  0.00  0.00    -0.018 A 
ATOM      2  C   UNL A   1     -24.962  -0.079  29.141  0.00  0.00    -0.004 A 
ATOM      3  C   UNL A   1     -25.658  -1.387  29.219  0.00  0.00    +0.002 A 
ATOM      4  C   UNL A   1     -24.833  -2.546  29.166  0.00  0.00    +0.030 A 
ATOM      5  C   UNL A   1     -23.481  -2.358  29.033  0.00  0.00    +0.002 A 
ATOM      6  C   UNL A   1     -22.885  -1.145  28.950  0.00  0.00    -0.004 A 
ENDROOT
BRANCH   4   7
ATOM      7  C   UNL A   1     -25.403  -3.869  29.262  0.00  0.00    +0.160 C 
ATOM      8  N   UNL A   1     -26.313  -4.338  29.705  0.00  0.00    -0.136 NA
ATOM      9 CL   UNL A   1     -24.262  -5.147  28.588  0.00  0.00    -0.059 Cl
ENDBRANCH   4   7
BRANCH   1  10
ATOM     10  C   UNL A   1     -23.078   1.155  29.003  0.00  0.00    +0.052 C 
BRANCH  10  11
ATOM     11  C   UNL A   1     -22.171   1.275  27.779  0.00  0.00    -0.021 C 
ATOM     12  C   UNL A   1     -22.551   1.856  26.746  0.00  0.00    -0.004 C 
BRANCH  12  13
ATOM     13  C   UNL A   1     -23.812   2.516  26.689  0.00  0.00    -0.000 C 
ATOM     14  C   UNL A   1     -24.870   1.950  25.914  0.00  0.00    -0.000 C 
BRANCH  14  15
ATOM     15  C   UNL A   1     -24.676   0.744  25.286  0.00  0.00    -0.000 C 
ATOM     16  C   UNL A   1     -25.397  -0.364  25.495  0.00  0.00    -0.000 C 
ENDBRANCH  14  15
ENDBRANCH  12  13
ENDBRANCH  10  11
ENDBRANCH   1  10
TORSDOF 5
ENDMDL
ENDMDL
