MODEL 123
MODEL 1
REMARK VINA RESULT:    -5.415      0.000      0.000
REMARK INTER + INTRA:          -6.307
REMARK INTER:                  -6.048
REMARK INTRA:                  -0.258
REMARK UNBOUND:                -0.258
REMARK  Name = No_123-gen_results/8p0m/2024-11-27-11-27-31/
REMARK  2 active torsions:
REMARK  status: ('A' for Active; 'I' for Inactive)
REMARK    1  A    between atoms: C_1  and  C_8
REMARK    2  A    between atoms: C_5  and  C_12
REMARK                            x       y       z     vdW  Elec       q    Type
REMARK                         _______ _______ _______ _____ _____    ______ ____
ROOT
ATOM      1  C   UNL A   1     -23.175  -1.427  29.745  0.00  0.00    +0.058 C 
ATOM      2  C   UNL A   1     -23.227  -0.556  28.907  0.00  0.00    +0.017 C 
ATOM      3  C   UNL A   1     -22.198   0.358  28.680  0.00  0.00    +0.030 C 
ATOM      4  C   UNL A   1     -22.181   1.454  27.693  0.00  0.00    +0.017 C 
ATOM      5  C   UNL A   1     -23.245   1.449  26.741  0.00  0.00    +0.111 C 
ATOM      6  C   UNL A   1     -24.277   0.520  26.904  0.00  0.00    +0.080 C 
ATOM      7  C   UNL A   1     -24.283  -0.416  27.880  0.00  0.00    +0.170 C 
ATOM      8  O   UNL A   1     -25.253  -1.317  27.978  0.00  0.00    -0.292 OA
ENDROOT
BRANCH   1   9
ATOM      9  C   UNL A   1     -23.586  -0.926  31.114  0.00  0.00    +0.265 C 
ATOM     10  N   UNL A   1     -24.578  -0.621  31.402  0.00  0.00    -0.200 NA
ATOM     11  O   UNL A   1     -22.539  -1.035  32.019  0.00  0.00    -0.268 OA
ATOM     12  C   UNL A   1     -24.961  -0.129  32.806  0.00  0.00    +0.139 C 
ENDBRANCH   1   9
BRANCH   5  13
ATOM     13  C   UNL A   1     -23.260   2.527  25.763  0.00  0.00    +0.365 C 
ATOM     14  O   UNL A   1     -24.098   3.350  25.796  0.00  0.00    -0.246 OA
ATOM     15  O   UNL A   1     -22.444   2.551  24.726  0.00  0.00    -0.246 OA
ENDBRANCH   5  13
TORSDOF 2
ENDMDL
ENDMDL
