REMARK  Name = No_124-gen_results/8p0m/2024-11-27-11-27-31/
REMARK  8 active torsions:
REMARK  status: ('A' for Active; 'I' for Inactive)
REMARK    1  A    between atoms: C_3  and  C_14
REMARK    2  A    between atoms: C_14  and  C_15
REMARK    3  A    between atoms: C_15  and  C_17
REMARK    4  A    between atoms: C_16  and  C_19
REMARK    5  A    between atoms: C_17  and  C_18
REMARK    6  A    between atoms: C_18  and  N_20
REMARK    7  A    between atoms: C_19  and  C_22
REMARK    8  A    between atoms: N_20  and  C_21
REMARK                            x       y       z     vdW  Elec       q    Type
REMARK                         _______ _______ _______ _____ _____    ______ ____
ROOT
ATOM      1  C   UNL A   1     -25.200   2.394  28.034  0.00  0.00    -0.042 C 
ATOM      2  C   UNL A   1     -24.217   2.842  28.376  0.00  0.00    -0.029 C 
ENDROOT
BRANCH   1   3
ATOM      3  C   UNL A   1     -25.655   1.386  27.113  0.00  0.00    +0.048 C 
BRANCH   3   6
ATOM      4  C   UNL A   1     -28.016  -0.814  28.878  0.00  0.00    +0.016 A 
ATOM      5  C   UNL A   1     -27.064  -0.119  28.608  0.00  0.00    -0.003 A 
ATOM      6  C   UNL A   1     -26.972   0.714  27.506  0.00  0.00    -0.018 A 
ATOM      7  C   UNL A   1     -28.105   0.774  26.642  0.00  0.00    +0.002 A 
ATOM      8  C   UNL A   1     -29.201   0.104  27.053  0.00  0.00    +0.068 A 
ATOM      9  C   UNL A   1     -29.210  -0.603  28.185  0.00  0.00    +0.074 A 
ATOM     10  C   UNL A   1     -30.375   0.223  26.167  0.00  0.00    +0.253 C 
ATOM     11  N   UNL A   1     -31.350  -0.393  26.433  0.00  0.00    -0.231 N 
ATOM     12  O   UNL A   1     -30.148   0.554  24.928  0.00  0.00    -0.270 OA
ATOM     13  C   UNL A   1     -31.700  -0.929  27.730  0.00  0.00    +0.339 C 
ATOM     14  N   UNL A   1     -30.472  -1.191  28.522  0.00  0.00    -0.188 NA
ATOM     15  F   UNL A   1     -32.673  -1.564  28.012  0.00  0.00    -0.189 F 
ATOM     16  C   UNL A   1     -32.618  -0.401  25.554  0.00  0.00    +0.119 C 
ENDBRANCH   3   6
ENDBRANCH   1   3
BRANCH   1  17
ATOM     17  C   UNL A   1     -26.391   3.383  28.377  0.00  0.00    +0.044 C 
BRANCH  17  18
ATOM     18  C   UNL A   1     -26.164   4.493  29.171  0.00  0.00    +0.103 C 
BRANCH  18  19
ATOM     19  N   UNL A   1     -26.929   5.254  29.444  0.00  0.00    -0.251 N 
ATOM     20  C   UNL A   1     -28.346   5.078  29.109  0.00  0.00    +0.307 C 
ATOM     21  O   UNL A   1     -28.642   4.130  28.343  0.00  0.00    -0.265 OA
BRANCH  19  22
ATOM     22  C   UNL A   1     -26.745   6.313  30.245  0.00  0.00    +0.054 A 
ATOM     23  C   UNL A   1     -27.663   7.282  30.690  0.00  0.00    +0.015 A 
ATOM     24  C   UNL A   1     -25.381   6.869  30.040  0.00  0.00    +0.015 A 
ATOM     25  C   UNL A   1     -24.986   7.968  30.886  0.00  0.00    +0.001 A 
ATOM     26  C   UNL A   1     -27.271   8.378  31.512  0.00  0.00    +0.001 A 
ATOM     27  C   UNL A   1     -25.858   8.814  31.464  0.00  0.00    +0.000 A 
ENDBRANCH  19  22
ENDBRANCH  18  19
ENDBRANCH  17  18
ENDBRANCH   1  17
BRANCH   2  28
ATOM     28  C   UNL A   1     -22.968   1.947  28.090  0.00  0.00    +0.052 C 
BRANCH  28  29
ATOM     29  C   UNL A   1     -22.754   0.882  29.007  0.00  0.00    -0.018 A 
ATOM     30  C   UNL A   1     -21.880  -0.082  28.726  0.00  0.00    -0.004 A 
ATOM     31  C   UNL A   1     -23.148   1.027  30.358  0.00  0.00    -0.004 A 
ATOM     32  C   UNL A   1     -23.132  -0.168  31.183  0.00  0.00    -0.000 A 
ATOM     33  C   UNL A   1     -21.761  -1.237  29.521  0.00  0.00    -0.000 A 
ATOM     34  C   UNL A   1     -22.294  -1.173  30.796  0.00  0.00    -0.000 A 
ENDBRANCH  28  29
ENDBRANCH   2  28
TORSDOF 8
