MODEL 1240
MODEL 1
REMARK VINA RESULT:    -5.283      0.000      0.000
REMARK INTER + INTRA:          -6.422
REMARK INTER:                  -6.210
REMARK INTRA:                  -0.211
REMARK UNBOUND:                -0.211
REMARK  Name = No_1240-gen_results/8p0m/2024-11-27-11-27-31/
REMARK  3 active torsions:
REMARK  status: ('A' for Active; 'I' for Inactive)
REMARK    1  A    between atoms: C_6  and  O_7
REMARK    2  A    between atoms: O_7  and  C_9
REMARK    3  A    between atoms: C_10  and  C_11
REMARK                            x       y       z     vdW  Elec       q    Type
REMARK                         _______ _______ _______ _____ _____    ______ ____
ROOT
ATOM      1  C   UNL A   1     -24.407  -0.291  27.586  0.00  0.00    +0.038 A 
ATOM      2  C   UNL A   1     -24.434   0.633  26.806  0.00  0.00    +0.015 A 
ATOM      3  C   UNL A   1     -23.382   1.539  26.728  0.00  0.00    +0.058 A 
ATOM      4  C   UNL A   1     -22.246   1.431  27.606  0.00  0.00    +0.015 A 
ATOM      5  C   UNL A   1     -22.306   0.348  28.492  0.00  0.00    +0.038 A 
ATOM      6  C   UNL A   1     -23.333  -0.471  28.538  0.00  0.00    +0.145 A 
ATOM      7 CL   UNL A   1     -23.307   2.900  25.646  0.00  0.00    -0.082 Cl
ENDROOT
BRANCH   6   8
ATOM      8  O   UNL A   1     -23.330  -1.476  29.455  0.00  0.00    -0.450 OA
BRANCH   8   9
ATOM      9  C   UNL A   1     -23.962  -2.634  29.179  0.00  0.00    +0.179 C 
ATOM     10  C   UNL A   1     -24.902  -3.032  29.759  0.00  0.00    +0.041 C 
BRANCH  10  11
ATOM     11  C   UNL A   1     -25.591  -4.301  29.423  0.00  0.00    +0.003 C 
ATOM     12  C   UNL A   1     -24.733  -5.282  28.888  0.00  0.00    +0.000 C 
ENDBRANCH  10  11
ENDBRANCH   8   9
ENDBRANCH   6   8
TORSDOF 3
ENDMDL
ENDMDL
