REMARK  Name = No_1241-gen_results/8p0m/2024-11-27-11-27-31/
REMARK  1 active torsions:
REMARK  status: ('A' for Active; 'I' for Inactive)
REMARK    1  A    between atoms: C_5  and  C_15
REMARK                            x       y       z     vdW  Elec       q    Type
REMARK                         _______ _______ _______ _____ _____    ______ ____
ROOT
ATOM      1  C   UNL A   1     -28.016  -0.814  28.878  0.00  0.00    -0.000 A 
ATOM      2  C   UNL A   1     -27.064  -0.119  28.608  0.00  0.00    -0.000 A 
ATOM      3  C   UNL A   1     -25.765  -0.390  29.036  0.00  0.00    -0.000 A 
ATOM      4  C   UNL A   1     -24.552   0.406  28.765  0.00  0.00    +0.004 A 
ATOM      5  C   UNL A   1     -24.696   1.448  27.799  0.00  0.00    +0.071 A 
ATOM      6  C   UNL A   1     -26.001   1.678  27.297  0.00  0.00    +0.004 A 
ATOM      7  C   UNL A   1     -27.074   0.968  27.650  0.00  0.00    -0.000 A 
ATOM      8  C   UNL A   1     -27.972  -1.623  30.149  0.00  0.00    -0.000 A 
ATOM      9  C   UNL A   1     -26.681  -2.137  30.518  0.00  0.00    -0.000 A 
ATOM     10  C   UNL A   1     -25.555  -1.402  30.100  0.00  0.00    -0.000 A 
ATOM     11  C   UNL A   1     -28.334   1.282  26.940  0.00  0.00    -0.000 A 
ATOM     12  C   UNL A   1     -28.381   1.835  25.804  0.00  0.00    -0.000 A 
ATOM     13  C   UNL A   1     -27.209   2.733  25.422  0.00  0.00    -0.000 A 
ATOM     14  C   UNL A   1     -25.997   2.639  26.161  0.00  0.00    -0.000 A 
ENDROOT
BRANCH   5  15
ATOM     15  C   UNL A   1     -23.476   2.208  27.436  0.00  0.00    +0.419 C 
ATOM     16  F   UNL A   1     -22.927   2.745  28.419  0.00  0.00    -0.166 F 
ATOM     17  F   UNL A   1     -22.540   1.493  26.703  0.00  0.00    -0.166 F 
ATOM     18  F   UNL A   1     -23.763   3.345  26.701  0.00  0.00    -0.166 F 
ENDBRANCH   5  15
TORSDOF 1
