MODEL 1241
MODEL 1
REMARK VINA RESULT:    -7.025      0.000      0.000
REMARK INTER + INTRA:          -7.538
REMARK INTER:                  -7.436
REMARK INTRA:                  -0.103
REMARK UNBOUND:                -0.103
REMARK  Name = No_1241-gen_results/8p0m/2024-11-27-11-27-31/
REMARK  1 active torsions:
REMARK  status: ('A' for Active; 'I' for Inactive)
REMARK    1  A    between atoms: C_5  and  C_15
REMARK                            x       y       z     vdW  Elec       q    Type
REMARK                         _______ _______ _______ _____ _____    ______ ____
ROOT
ATOM      1  C   UNL A   1     -24.802   2.154  25.979  0.00  0.00    -0.000 A 
ATOM      2  C   UNL A   1     -24.677   1.214  26.729  0.00  0.00    -0.000 A 
ATOM      3  C   UNL A   1     -25.598   0.170  26.817  0.00  0.00    -0.000 A 
ATOM      4  C   UNL A   1     -25.532  -1.004  27.708  0.00  0.00    +0.004 A 
ATOM      5  C   UNL A   1     -24.299  -1.188  28.404  0.00  0.00    +0.071 A 
ATOM      6  C   UNL A   1     -23.324  -0.170  28.256  0.00  0.00    +0.004 A 
ATOM      7  C   UNL A   1     -23.484   0.913  27.493  0.00  0.00    -0.000 A 
ATOM      8  C   UNL A   1     -26.194   2.562  25.570  0.00  0.00    -0.000 A 
ATOM      9  C   UNL A   1     -27.138   1.489  25.411  0.00  0.00    -0.000 A 
ATOM     10  C   UNL A   1     -26.932   0.333  26.189  0.00  0.00    -0.000 A 
ATOM     11  C   UNL A   1     -22.315   1.813  27.375  0.00  0.00    -0.000 A 
ATOM     12  C   UNL A   1     -21.122   1.446  27.578  0.00  0.00    -0.000 A 
ATOM     13  C   UNL A   1     -20.912   0.271  28.528  0.00  0.00    -0.000 A 
ATOM     14  C   UNL A   1     -22.019  -0.561  28.854  0.00  0.00    -0.000 A 
ENDROOT
BRANCH   5  15
ATOM     15  C   UNL A   1     -24.166  -2.407  29.237  0.00  0.00    +0.419 C 
ATOM     16  F   UNL A   1     -23.418  -3.266  28.727  0.00  0.00    -0.166 F 
ATOM     17  F   UNL A   1     -23.793  -2.177  30.553  0.00  0.00    -0.166 F 
ATOM     18  F   UNL A   1     -25.337  -3.142  29.285  0.00  0.00    -0.166 F 
ENDBRANCH   5  15
TORSDOF 1
ENDMDL
ENDMDL
