MODEL 1242
MODEL 1
REMARK VINA RESULT:    -6.566      0.000      0.000
REMARK INTER + INTRA:          -7.243
REMARK INTER:                  -6.950
REMARK INTRA:                  -0.293
REMARK UNBOUND:                -0.293
REMARK  Name = No_1242-gen_results/8p0m/2024-11-27-11-27-31/
REMARK  1 active torsions:
REMARK  status: ('A' for Active; 'I' for Inactive)
REMARK    1  A    between atoms: C_3  and  C_4
REMARK                            x       y       z     vdW  Elec       q    Type
REMARK                         _______ _______ _______ _____ _____    ______ ____
ROOT
ATOM      1  C   UNL A   1     -23.664   0.532  27.399  0.00  0.00    +0.011 A 
ATOM      2  C   UNL A   1     -24.350  -0.414  27.710  0.00  0.00    +0.001 A 
ATOM      3  C   UNL A   1     -23.973  -1.360  28.663  0.00  0.00    +0.000 A 
ATOM      4  C   UNL A   1     -22.271   0.607  27.935  0.00  0.00    +0.058 A 
ATOM      5  C   UNL A   1     -21.835  -0.220  28.932  0.00  0.00    +0.011 A 
ATOM      6  C   UNL A   1     -22.656  -1.307  29.339  0.00  0.00    +0.001 A 
ATOM      7 CL   UNL A   1     -21.251   1.905  27.465  0.00  0.00    -0.082 Cl
ENDROOT
BRANCH   3   8
ATOM      8  C   UNL A   1     -24.739  -2.546  29.093  0.00  0.00    +0.000 A 
ATOM      9  C   UNL A   1     -26.090  -2.539  29.594  0.00  0.00    +0.000 A 
ATOM     10  C   UNL A   1     -26.729  -3.738  29.964  0.00  0.00    +0.000 A 
ATOM     11  C   UNL A   1     -26.192  -5.012  29.599  0.00  0.00    +0.000 A 
ATOM     12  C   UNL A   1     -24.247  -3.899  28.837  0.00  0.00    +0.000 A 
ATOM     13  C   UNL A   1     -24.950  -5.037  29.100  0.00  0.00    +0.000 A 
ENDBRANCH   3   8
TORSDOF 1
ENDMDL
ENDMDL
