REMARK  Name = outputs/IAG933/test6/raw/output_1243_IAG933_linker_design_.xyz
REMARK  13 active torsions:
REMARK  status: ('A' for Active; 'I' for Inactive)
REMARK    1  A    between atoms: C_1  and  C_2
REMARK    2  A    between atoms: C_1  and  C_8
REMARK    3  A    between atoms: C_1  and  C_42
REMARK    4  A    between atoms: C_14  and  C_15
REMARK    5  A    between atoms: C_15  and  O_18
REMARK    6  A    between atoms: O_18  and  C_39
REMARK    7  A    between atoms: C_21  and  O_22
REMARK    8  A    between atoms: O_22  and  C_23
REMARK    9  A    between atoms: C_23  and  C_24
REMARK   10  A    between atoms: C_29  and  C_31
REMARK   11  A    between atoms: C_29  and  O_38
REMARK   12  A    between atoms: C_32  and  C_39
REMARK   13  A    between atoms: O_38  and  C_39
REMARK                            x       y       z     vdW  Elec       q    Type
REMARK                         _______ _______ _______ _____ _____    ______ ____
ROOT
ATOM      1  C   UNL A   1     -25.124   3.051  29.301  0.00  0.00    +0.314 C 
ENDROOT
BRANCH   1   3
ATOM      2  C   UNL A   1     -21.733   0.323  28.699  0.00  0.00    +0.029 C 
ATOM      3  C   UNL A   1     -24.112   1.747  29.156  0.00  0.00    +0.046 C 
ATOM      4  C   UNL A   1     -22.130   1.401  27.932  0.00  0.00    +0.140 C 
ATOM      5  C   UNL A   1     -22.642  -0.224  29.581  0.00  0.00    -0.002 C 
ATOM      6  C   UNL A   1     -23.888   0.140  29.680  0.00  0.00    -0.015 C 
ATOM      7  C   UNL A   1     -23.249   2.095  28.210  0.00  0.00    +0.031 C 
ATOM      8  F   UNL A   1     -21.402   1.880  26.927  0.00  0.00    -0.204 F 
BRANCH   6   9
ATOM      9  C   UNL A   1     -24.855  -1.012  30.143  0.00  0.00    +0.060 C 
BRANCH   9  10
ATOM     10  C   UNL A   1     -24.973  -2.505  29.788  0.00  0.00    -0.017 C 
ATOM     11  C   UNL A   1     -23.906  -3.173  29.146  0.00  0.00    -0.004 C 
ATOM     12  C   UNL A   1     -23.989  -4.549  28.853  0.00  0.00    -0.000 C 
ATOM     13  C   UNL A   1     -25.137  -5.280  29.205  0.00  0.00    -0.000 C 
ATOM     14  C   UNL A   1     -26.232  -4.611  29.784  0.00  0.00    -0.000 C 
ATOM     15  C   UNL A   1     -26.155  -3.232  30.065  0.00  0.00    -0.004 C 
ENDBRANCH   9  10
BRANCH   9  16
ATOM     16  C   UNL A   1     -25.387  -0.679  31.571  0.00  0.00    +0.081 C 
ATOM     17  C   UNL A   1     -25.189   0.773  32.028  0.00  0.00    +0.019 C 
ATOM     18  C   UNL A   1     -25.336   0.684  33.544  0.00  0.00    +0.020 C 
ATOM     19  C   UNL A   1     -24.829  -0.715  33.905  0.00  0.00    +0.089 C 
ATOM     20  N   UNL A   1     -24.758  -1.481  32.646  0.00  0.00    -0.219 NA
ENDBRANCH   9  16
ENDBRANCH   6   9
ENDBRANCH   1   3
BRANCH   1  21
ATOM     21  O   UNL A   1     -25.143   3.966  28.243  0.00  0.00    -0.433 OA
BRANCH  21  22
ATOM     22  C   UNL A   1     -25.642   4.093  27.123  0.00  0.00    +0.224 C 
ATOM     23  N   UNL A   1     -25.614   5.252  26.449  0.00  0.00    -0.236 NA
ATOM     24  C   UNL A   1     -25.026   6.479  26.963  0.00  0.00    +0.155 C 
BRANCH  22  26
ATOM     25  C   UNL A   1     -25.688   1.614  26.461  0.00  0.00    +0.041 C 
ATOM     26  C   UNL A   1     -26.250   2.920  26.395  0.00  0.00    +0.074 C 
ATOM     27  C   UNL A   1     -27.438   3.091  25.645  0.00  0.00    +0.107 C 
ATOM     28  N   UNL A   1     -28.075   2.089  25.003  0.00  0.00    -0.208 NA
ATOM     29  C   UNL A   1     -27.543   0.849  25.079  0.00  0.00    +0.253 C 
ATOM     30  C   UNL A   1     -26.354   0.576  25.777  0.00  0.00    +0.193 C 
ATOM     31  F   UNL A   1     -25.860  -0.681  25.795  0.00  0.00    -0.199 F 
BRANCH  29  32
ATOM     32  O   UNL A   1     -28.193  -0.208  24.477  0.00  0.00    -0.456 OA
BRANCH  32  33
ATOM     33  C   UNL A   1     -29.460   0.005  23.866  0.00  0.00    +0.243 C 
BRANCH  33  34
ATOM     34  C   UNL A   1     -30.065  -1.377  23.573  0.00  0.00    +0.229 C 
ATOM     35  O   UNL A   1     -30.729  -1.878  24.721  0.00  0.00    -0.216 OA
ENDBRANCH  33  34
ENDBRANCH  32  33
ENDBRANCH  29  32
ENDBRANCH  22  26
ENDBRANCH  21  22
ENDBRANCH   1  21
BRANCH   1  36
ATOM     36  O   UNL A   1     -25.769   3.128  30.308  0.00  0.00    -0.312 OA
BRANCH  36  37
ATOM     37  C   UNL A   1     -27.155   3.024  30.070  0.00  0.00    +0.173 C 
BRANCH  37  39
ATOM     38  C   UNL A   1     -29.085   6.271  28.868  0.00  0.00    +0.041 C 
ATOM     39  C   UNL A   1     -27.461   4.530  29.719  0.00  0.00    +0.016 C 
ATOM     40  C   UNL A   1     -30.520   5.569  26.949  0.00  0.00    +0.022 C 
ATOM     41  N   UNL A   1     -29.486   3.859  28.358  0.00  0.00    -0.309 N 
ATOM     42  C   UNL A   1     -29.802   2.437  28.699  0.00  0.00    +0.112 C 
ATOM     43  C   UNL A   1     -30.489   6.312  28.276  0.00  0.00    +0.008 C 
ATOM     44  C   UNL A   1     -29.757   4.261  26.945  0.00  0.00    +0.090 C 
ATOM     45  C   UNL A   1     -28.677   4.813  28.936  0.00  0.00    +0.023 C 
ENDBRANCH  37  39
ENDBRANCH  36  37
ENDBRANCH   1  36
TORSDOF 13
