MODEL 1243
MODEL 1
REMARK VINA RESULT:    -7.910      0.000      0.000
REMARK INTER + INTRA:         -13.335
REMARK INTER:                 -10.684
REMARK INTRA:                  -2.651
REMARK UNBOUND:                -2.651
REMARK  Name = No_1243-gen_results/8p0m/2024-11-27-11-27-31/
REMARK  6 active torsions:
REMARK  status: ('A' for Active; 'I' for Inactive)
REMARK    1  A    between atoms: C_3  and  C_7
REMARK    2  A    between atoms: C_6  and  N_13
REMARK    3  A    between atoms: C_8  and  C_29
REMARK    4  A    between atoms: C_29  and  C_30
REMARK    5  A    between atoms: C_30  and  C_32
REMARK    6  A    between atoms: C_30  and  C_34
REMARK                            x       y       z     vdW  Elec       q    Type
REMARK                         _______ _______ _______ _____ _____    ______ ____
ROOT
ATOM      1  C   UNL A   1     -12.567   1.488  34.476  0.00  0.00    +0.000 A 
ATOM      2  C   UNL A   1     -11.853   1.359  33.712  0.00  0.00    +0.001 A 
ATOM      3  C   UNL A   1     -12.037   2.176  35.660  0.00  0.00    +0.001 A 
ATOM      4  C   UNL A   1     -10.738   2.439  35.815  0.00  0.00    +0.015 A 
ATOM      5  C   UNL A   1     -10.423   1.538  33.655  0.00  0.00    +0.015 A 
ATOM      6  C   UNL A   1      -9.946   2.155  34.774  0.00  0.00    +0.054 A 
ENDROOT
BRANCH   6   7
ATOM      7  N   UNL A   1      -8.527   2.406  34.879  0.00  0.00    -0.249 N 
ATOM      8  C   UNL A   1      -7.968   3.468  34.703  0.00  0.00    +0.307 C 
ATOM      9  O   UNL A   1      -8.522   4.468  34.426  0.00  0.00    -0.265 OA
ATOM     10  C   UNL A   1      -6.548   3.314  34.415  0.00  0.00    +0.303 C 
ATOM     11  N   UNL A   1      -5.896   2.573  34.706  0.00  0.00    -0.268 N 
ATOM     12  O   UNL A   1      -6.116   4.240  33.485  0.00  0.00    -0.265 OA
ATOM     13  C   UNL A   1      -4.414   2.359  34.457  0.00  0.00    +0.099 C 
ATOM     14  C   UNL A   1      -3.954   1.212  34.502  0.00  0.00    +0.048 C 
ATOM     15  C   UNL A   1      -4.536   0.245  34.464  0.00  0.00    -0.023 A 
ATOM     16  C   UNL A   1      -5.998   0.175  34.811  0.00  0.00    -0.006 A 
ATOM     17  C   UNL A   1      -6.667   1.325  34.511  0.00  0.00    +0.118 C 
ATOM     18  C   UNL A   1      -7.924   1.621  35.186  0.00  0.00    +0.123 C 
ATOM     19  C   UNL A   1      -6.678  -1.114  34.936  0.00  0.00    -0.003 A 
ATOM     20  C   UNL A   1      -6.198  -2.183  34.495  0.00  0.00    -0.000 A 
ATOM     21  C   UNL A   1      -4.751  -2.271  34.288  0.00  0.00    -0.000 A 
ATOM     22  C   UNL A   1      -4.022  -1.190  34.392  0.00  0.00    -0.004 A 
ENDBRANCH   6   7
BRANCH   3  23
ATOM     23  C   UNL A   1     -13.057   2.497  36.754  0.00  0.00    -0.004 A 
ATOM     24  C   UNL A   1     -12.960   2.313  37.880  0.00  0.00    -0.022 A 
ATOM     25  C   UNL A   1     -14.036   2.605  38.854  0.00  0.00    -0.004 A 
ATOM     26  C   UNL A   1     -14.281   3.151  36.299  0.00  0.00    -0.000 A 
ATOM     27  C   UNL A   1     -15.280   3.623  37.114  0.00  0.00    -0.000 A 
ATOM     28  C   UNL A   1     -15.153   3.276  38.417  0.00  0.00    -0.000 A 
BRANCH  24  29
ATOM     29  C   UNL A   1     -11.845   1.565  38.609  0.00  0.00    +0.030 C 
ATOM     30  C   UNL A   1     -11.279   2.401  39.562  0.00  0.00    +0.005 C 
BRANCH  29  31
ATOM     31  C   UNL A   1     -11.746   0.344  38.741  0.00  0.00    +0.048 C 
BRANCH  31  32
ATOM     32  C   UNL A   1     -11.964  -0.163  39.941  0.00  0.00    -0.022 C 
ATOM     33  C   UNL A   1     -12.200  -1.528  40.288  0.00  0.00    -0.005 C 
ENDBRANCH  31  32
BRANCH  31  34
ATOM     34  C   UNL A   1     -11.410  -0.631  37.816  0.00  0.00    -0.022 C 
ATOM     35  C   UNL A   1     -10.195  -0.762  37.215  0.00  0.00    -0.005 C 
ENDBRANCH  31  34
ENDBRANCH  29  31
ENDBRANCH  24  29
ENDBRANCH   3  23
TORSDOF 6
ENDMDL
ENDMDL
