REMARK  Name = outputs/IAG933/test6/raw/output_1244_IAG933_linker_design_.xyz
REMARK  9 active torsions:
REMARK  status: ('A' for Active; 'I' for Inactive)
REMARK    1  A    between atoms: C_1  and  C_2
REMARK    2  A    between atoms: C_1  and  C_8
REMARK    3  A    between atoms: C_1  and  O_39
REMARK    4  A    between atoms: C_21  and  O_22
REMARK    5  A    between atoms: O_22  and  C_23
REMARK    6  A    between atoms: C_23  and  C_24
REMARK    7  A    between atoms: C_28  and  C_36
REMARK    8  A    between atoms: N_33  and  C_38
REMARK    9  A    between atoms: O_39  and  C_59
REMARK                            x       y       z     vdW  Elec       q    Type
REMARK                         _______ _______ _______ _____ _____    ______ ____
ROOT
ATOM      1  C   UNL A   1     -25.688   1.614  26.461  0.00  0.00    +0.092 C 
ATOM      2  C   UNL A   1     -26.250   2.920  26.395  0.00  0.00    +0.057 C 
ATOM      3  C   UNL A   1     -25.642   4.093  27.123  0.00  0.00    +0.218 C 
ATOM      4  N   UNL A   1     -25.614   5.252  26.449  0.00  0.00    -0.236 NA
ATOM      5  C   UNL A   1     -25.026   6.479  26.963  0.00  0.00    +0.155 C 
ATOM      6  O   UNL A   1     -25.143   3.966  28.243  0.00  0.00    -0.460 OA
ATOM      7  C   UNL A   1     -27.438   3.091  25.645  0.00  0.00    +0.102 C 
ATOM      8  N   UNL A   1     -28.075   2.089  25.003  0.00  0.00    -0.212 NA
ATOM      9  C   UNL A   1     -27.543   0.849  25.079  0.00  0.00    +0.234 C 
ATOM     10  C   UNL A   1     -26.354   0.576  25.777  0.00  0.00    +0.244 C 
ATOM     11  F   UNL A   1     -25.860  -0.681  25.795  0.00  0.00    -0.227 F 
ATOM     12  C   UNL A   1     -25.742   3.716  29.527  0.00  0.00    +0.190 C 
ATOM     13  N   UNL A   1     -21.797   0.536  28.857  0.00  0.00    -0.237 NA
ATOM     14  C   UNL A   1     -21.272   1.275  27.853  0.00  0.00    +0.133 C 
ATOM     15  C   UNL A   1     -22.120   1.766  26.922  0.00  0.00    +0.053 C 
ATOM     16  C   UNL A   1     -24.800   2.336  29.575  0.00  0.00    +0.021 C 
ATOM     17  C   UNL A   1     -23.478   1.637  27.272  0.00  0.00    -0.020 C 
ATOM     18  C   UNL A   1     -23.841   1.445  28.610  0.00  0.00    +0.048 C 
ATOM     19  C   UNL A   1     -24.291   1.628  26.212  0.00  0.00    -0.023 C 
ATOM     20  C   UNL A   1     -23.151   0.502  29.223  0.00  0.00    +0.220 C 
ENDROOT
BRANCH  12  27
ATOM     21  C   UNL A   1     -32.211   3.557  32.218  0.00  0.00    +0.124 C 
ATOM     22  C   UNL A   1     -28.524   5.298  31.019  0.00  0.00    +0.178 C 
ATOM     23  C   UNL A   1     -33.874   5.922  31.432  0.00  0.00    +0.035 C 
ATOM     24  N   UNL A   1     -27.671   6.148  30.838  0.00  0.00    -0.251 NA
ATOM     25  C   UNL A   1     -32.599   5.819  30.820  0.00  0.00    +0.034 C 
ATOM     26  C   UNL A   1     -31.614   4.945  31.180  0.00  0.00    +0.137 C 
ATOM     27  C   UNL A   1     -26.538   3.911  30.818  0.00  0.00    +0.051 C 
ATOM     28  N   UNL A   1     -32.316   2.200  31.547  0.00  0.00    -0.216 NA
ATOM     29  C   UNL A   1     -33.774   3.807  32.597  0.00  0.00    +0.057 C 
ATOM     30  C   UNL A   1     -33.748   5.287  32.978  0.00  0.00    +0.154 C 
ATOM     31  C   UNL A   1     -28.988   2.852  30.598  0.00  0.00    +0.103 C 
ATOM     32  O   UNL A   1     -29.968   5.544  31.002  0.00  0.00    -0.342 OA
ATOM     33  O   UNL A   1     -30.554   0.835  31.038  0.00  0.00    -0.525 OA
ATOM     34  C   UNL A   1     -26.468   6.034  31.612  0.00  0.00    +0.074 C 
ATOM     35  N   UNL A   1     -30.415   2.803  30.017  0.00  0.00    -0.268 N 
ATOM     36  O   UNL A   1     -34.013   6.186  33.917  0.00  0.00    -0.223 OA
ATOM     37  C   UNL A   1     -31.198   1.927  30.784  0.00  0.00    +0.166 C 
ATOM     38  C   UNL A   1     -27.986   3.997  30.824  0.00  0.00    +0.067 C 
ATOM     39  C   UNL A   1     -25.987   4.754  31.829  0.00  0.00    +0.021 C 
ATOM     40  O   UNL A   1     -30.672   3.423  28.852  0.00  0.00    -0.419 OA
BRANCH  24  41
ATOM     41  C   UNL A   1     -28.040   7.136  29.773  0.00  0.00    +0.074 C 
ATOM     42  C   UNL A   1     -28.875   8.249  30.429  0.00  0.00    +0.019 C 
ENDBRANCH  24  41
ENDBRANCH  12  27
BRANCH   9  43
ATOM     43  O   UNL A   1     -28.193  -0.208  24.477  0.00  0.00    -0.459 OA
BRANCH  43  44
ATOM     44  C   UNL A   1     -29.460   0.005  23.866  0.00  0.00    +0.242 C 
BRANCH  44  45
ATOM     45  C   UNL A   1     -30.065  -1.377  23.573  0.00  0.00    +0.229 C 
ATOM     46  O   UNL A   1     -30.729  -1.878  24.721  0.00  0.00    -0.216 OA
ENDBRANCH  44  45
ENDBRANCH  43  44
ENDBRANCH   9  43
BRANCH  20  47
ATOM     47  O   UNL A   1     -23.546  -0.501  30.077  0.00  0.00    -0.458 OA
BRANCH  47  48
ATOM     48  C   UNL A   1     -24.855  -1.012  30.143  0.00  0.00    +0.205 C 
BRANCH  48  49
ATOM     49  C   UNL A   1     -24.973  -2.505  29.788  0.00  0.00    +0.019 C 
ATOM     50  C   UNL A   1     -23.906  -3.173  29.146  0.00  0.00    -0.001 C 
ATOM     51  C   UNL A   1     -23.989  -4.549  28.853  0.00  0.00    -0.000 C 
ATOM     52  C   UNL A   1     -25.137  -5.280  29.205  0.00  0.00    -0.000 C 
ATOM     53  C   UNL A   1     -26.232  -4.611  29.784  0.00  0.00    -0.000 C 
ATOM     54  C   UNL A   1     -26.155  -3.232  30.065  0.00  0.00    -0.001 C 
ENDBRANCH  48  49
BRANCH  48  55
ATOM     55  C   UNL A   1     -25.387  -0.679  31.571  0.00  0.00    +0.117 C 
ATOM     56  C   UNL A   1     -25.189   0.773  32.028  0.00  0.00    +0.023 C 
ATOM     57  C   UNL A   1     -25.336   0.684  33.544  0.00  0.00    +0.020 C 
ATOM     58  C   UNL A   1     -24.829  -0.715  33.905  0.00  0.00    +0.089 C 
ATOM     59  N   UNL A   1     -24.758  -1.481  32.646  0.00  0.00    -0.215 NA
ENDBRANCH  48  55
ENDBRANCH  47  48
ENDBRANCH  20  47
TORSDOF 9
