MODEL 1244
MODEL 1
REMARK VINA RESULT:    -7.031      0.000      0.000
REMARK INTER + INTRA:         -11.526
REMARK INTER:                  -9.909
REMARK INTRA:                  -1.618
REMARK UNBOUND:                -1.618
REMARK  Name = No_1244-gen_results/8p0m/2024-11-27-11-27-31/
REMARK  7 active torsions:
REMARK  status: ('A' for Active; 'I' for Inactive)
REMARK    1  A    between atoms: C_2  and  C_22
REMARK    2  A    between atoms: C_6  and  O_9
REMARK    3  A    between atoms: O_9  and  C_11
REMARK    4  A    between atoms: C_14  and  C_30
REMARK    5  A    between atoms: C_23  and  C_24
REMARK    6  A    between atoms: N_28  and  C_29
REMARK    7  A    between atoms: C_32  and  C_33
REMARK                            x       y       z     vdW  Elec       q    Type
REMARK                         _______ _______ _______ _____ _____    ______ ____
ROOT
ATOM      1  C   UNL A   1     -29.630 -10.360   9.835  0.00  0.00    +0.041 A 
ATOM      2  C   UNL A   1     -28.953  -9.482   9.352  0.00  0.00    +0.054 A 
ATOM      3  C   UNL A   1     -29.268  -8.127   9.443  0.00  0.00    -0.017 A 
ATOM      4  C   UNL A   1     -30.500  -7.731  10.099  0.00  0.00    -0.022 A 
ATOM      5  C   UNL A   1     -30.966  -6.449  10.239  0.00  0.00    +0.031 C 
ATOM      6  C   UNL A   1     -30.910 -10.103  10.438  0.00  0.00    +0.141 A 
ATOM      7  C   UNL A   1     -31.340  -8.796  10.573  0.00  0.00    +0.032 A 
ATOM      8  C   UNL A   1     -31.159  -5.695   9.008  0.00  0.00    +0.030 C 
ATOM      9  C   UNL A   1     -30.193  -5.743   7.990  0.00  0.00    -0.031 C 
ATOM     10  C   UNL A   1     -29.061  -6.005   8.286  0.00  0.00    -0.011 C 
ATOM     11  C   UNL A   1     -28.593  -7.235   8.870  0.00  0.00    +0.050 C 
ENDROOT
BRANCH   2  12
ATOM     12  C   UNL A   1     -27.622  -9.727   8.706  0.00  0.00    +0.269 C 
ATOM     13  O   UNL A   1     -26.730  -9.915   9.363  0.00  0.00    -0.268 OA
ATOM     14  N   UNL A   1     -27.546 -10.247   7.415  0.00  0.00    -0.174 NA
BRANCH  14  15
ATOM     15  C   UNL A   1     -26.380 -10.573   6.727  0.00  0.00    +0.089 C 
ATOM     16  C   UNL A   1     -26.368 -11.776   6.317  0.00  0.00    +0.018 C 
BRANCH  16  17
ATOM     17  C   UNL A   1     -25.535 -12.509   5.912  0.00  0.00    -0.003 C 
ATOM     18  C   UNL A   1     -25.345 -13.930   6.139  0.00  0.00    -0.026 C 
ATOM     19  C   UNL A   1     -26.322 -14.583   6.853  0.00  0.00    +0.031 C 
ENDBRANCH  16  17
ENDBRANCH  14  15
ENDBRANCH   2  12
BRANCH  10  20
ATOM     20  C   UNL A   1     -28.007  -5.369   7.328  0.00  0.00    +0.204 C 
ATOM     21  O   UNL A   1     -26.812  -5.895   7.395  0.00  0.00    -0.215 OA
ENDBRANCH  10  20
BRANCH   6  22
ATOM     22  O   UNL A   1     -31.717 -11.080  10.951  0.00  0.00    -0.451 OA
BRANCH  22  23
ATOM     23  C   UNL A   1     -32.270 -12.032  10.152  0.00  0.00    +0.319 C 
ATOM     24  C   UNL A   1     -32.772 -13.123  10.884  0.00  0.00    +0.222 C 
ATOM     25  O   UNL A   1     -31.970 -14.067  11.050  0.00  0.00    -0.313 OA
ATOM     26  C   UNL A   1     -30.863 -14.193  10.877  0.00  0.00    +0.333 C 
ATOM     27  C   UNL A   1     -30.314 -13.912   9.760  0.00  0.00    +0.217 C 
ATOM     28  C   UNL A   1     -31.003 -14.042   8.792  0.00  0.00    +0.232 C 
ATOM     29  C   UNL A   1     -31.807 -12.875   8.286  0.00  0.00    +0.217 C 
ATOM     30  O   UNL A   1     -32.419 -11.958   8.863  0.00  0.00    -0.310 OA
ATOM     31  F   UNL A   1     -29.094 -14.717   9.576  0.00  0.00    -0.200 F 
ATOM     32  F   UNL A   1     -30.513 -15.514  11.239  0.00  0.00    -0.194 F 
ATOM     33  O   UNL A   1     -30.241 -14.394   7.517  0.00  0.00    -0.286 OA
BRANCH  26  34
ATOM     34  C   UNL A   1     -30.171 -13.399  12.114  0.00  0.00    +0.275 C 
ATOM     35  O   UNL A   1     -29.759 -14.071  13.041  0.00  0.00    -0.282 OA
ENDBRANCH  26  34
ENDBRANCH  22  23
ENDBRANCH   6  22
TORSDOF 7
ENDMDL
ENDMDL
