MODEL 1245
MODEL 1
REMARK VINA RESULT:    -7.110      0.000      0.000
REMARK INTER + INTRA:          -8.749
REMARK INTER:                  -8.356
REMARK INTRA:                  -0.393
REMARK UNBOUND:                -0.393
REMARK  Name = No_1245-gen_results/8p0m/2024-11-27-11-27-31/
REMARK  3 active torsions:
REMARK  status: ('A' for Active; 'I' for Inactive)
REMARK    1  A    between atoms: C_1  and  C_2
REMARK    2  A    between atoms: C_1  and  N_8
REMARK    3  A    between atoms: C_5  and  C_14
REMARK                            x       y       z     vdW  Elec       q    Type
REMARK                         _______ _______ _______ _____ _____    ______ ____
ROOT
ATOM      1  C   UNL A   1     -24.020  -0.485  28.850  0.00  0.00    -0.006 A 
ATOM      2  C   UNL A   1     -22.823   0.155  28.846  0.00  0.00    -0.003 A 
ATOM      3  C   UNL A   1     -22.390   1.124  27.815  0.00  0.00    +0.004 A 
ATOM      4  C   UNL A   1     -23.303   1.378  26.740  0.00  0.00    +0.071 A 
ATOM      5  C   UNL A   1     -24.508   0.640  26.741  0.00  0.00    +0.004 A 
ATOM      6  C   UNL A   1     -24.842  -0.245  27.733  0.00  0.00    -0.003 A 
ENDROOT
BRANCH   4   7
ATOM      7  C   UNL A   1     -22.995   2.229  25.624  0.00  0.00    +0.419 C 
ATOM      8  F   UNL A   1     -23.489   3.172  25.650  0.00  0.00    -0.166 F 
ATOM      9  F   UNL A   1     -21.595   2.271  25.484  0.00  0.00    -0.166 F 
ATOM     10  F   UNL A   1     -23.458   1.584  24.515  0.00  0.00    -0.166 F 
ENDBRANCH   4   7
BRANCH   1  11
ATOM     11  C   UNL A   1     -24.360  -1.277  29.698  0.00  0.00    +0.099 C 
BRANCH  11  12
ATOM     12  N   UNL A   1     -24.646  -2.474  29.380  0.00  0.00    -0.269 NA
ATOM     13  C   UNL A   1     -23.858  -3.287  28.843  0.00  0.00    +0.072 C 
ATOM     14  C   UNL A   1     -24.193  -4.700  28.797  0.00  0.00    +0.017 C 
ATOM     15  C   UNL A   1     -25.949  -3.078  29.822  0.00  0.00    +0.072 C 
ATOM     16  C   UNL A   1     -26.252  -4.388  29.719  0.00  0.00    +0.017 C 
ATOM     17  C   UNL A   1     -25.361  -5.196  29.098  0.00  0.00    +0.003 C 
ENDBRANCH  11  12
ENDBRANCH   1  11
TORSDOF 3
ENDMDL
ENDMDL
