REMARK  Name = No_1246-gen_results/8p0m/2024-11-27-11-27-31/
REMARK  5 active torsions:
REMARK  status: ('A' for Active; 'I' for Inactive)
REMARK    1  A    between atoms: C_4  and  C_11
REMARK    2  A    between atoms: N_17  and  C_19
REMARK    3  A    between atoms: C_22  and  C_24
REMARK    4  A    between atoms: N_27  and  C_28
REMARK    5  A    between atoms: C_29  and  C_30
REMARK                            x       y       z     vdW  Elec       q    Type
REMARK                         _______ _______ _______ _____ _____    ______ ____
ROOT
ATOM      1  C   UNL A   1     -24.593   1.594  27.997  0.00  0.00    +0.033 A 
ATOM      2  C   UNL A   1     -25.057   1.529  26.750  0.00  0.00    +0.004 A 
ATOM      3  C   UNL A   1     -24.678   2.608  28.692  0.00  0.00    +0.152 A 
ATOM      4  N   UNL A   1     -24.874   3.837  28.062  0.00  0.00    -0.227 NA
ATOM      5  C   UNL A   1     -25.114   2.678  25.977  0.00  0.00    +0.021 A 
ATOM      6  C   UNL A   1     -25.028   3.876  26.714  0.00  0.00    +0.100 A 
ATOM      7  N   UNL A   1     -24.436   2.829  30.062  0.00  0.00    -0.194 NA
ENDROOT
BRANCH   1  11
ATOM      8  C   UNL A   1     -28.016  -0.814  28.878  0.00  0.00    +0.007 A 
ATOM      9  C   UNL A   1     -27.064  -0.119  28.608  0.00  0.00    +0.001 A 
ATOM     10  C   UNL A   1     -25.792  -0.430  29.076  0.00  0.00    +0.000 A 
ATOM     11  C   UNL A   1     -24.546   0.349  28.823  0.00  0.00    +0.003 A 
ATOM     12  C   UNL A   1     -23.241   0.022  29.332  0.00  0.00    +0.000 A 
ATOM     13  C   UNL A   1     -23.193  -1.282  29.897  0.00  0.00    +0.000 A 
ATOM     14  C   UNL A   1     -27.870  -1.914  29.864  0.00  0.00    +0.035 A 
ATOM     15  C   UNL A   1     -26.631  -2.326  30.299  0.00  0.00    +0.007 A 
ATOM     16  C   UNL A   1     -25.512  -1.573  29.965  0.00  0.00    +0.001 A 
ATOM     17  C   UNL A   1     -24.212  -1.970  30.328  0.00  0.00    +0.000 A 
ATOM     18 BR   UNL A   1     -29.434  -2.902  30.298  0.00  0.00    -0.049 Br
ENDBRANCH   1  11
BRANCH   7  19
ATOM     19  C   UNL A   1     -25.492   2.908  31.045  0.00  0.00    +0.072 A 
ATOM     20  C   UNL A   1     -25.175   2.668  32.316  0.00  0.00    +0.017 A 
ATOM     21  C   UNL A   1     -26.792   3.036  30.586  0.00  0.00    +0.021 A 
ATOM     22  C   UNL A   1     -27.835   2.942  31.525  0.00  0.00    +0.057 A 
ATOM     23  C   UNL A   1     -26.185   2.651  33.334  0.00  0.00    +0.002 A 
ATOM     24  C   UNL A   1     -27.501   2.736  32.889  0.00  0.00    +0.005 A 
BRANCH  22  25
ATOM     25  C   UNL A   1     -29.236   3.074  31.149  0.00  0.00    +0.269 C 
ATOM     26  O   UNL A   1     -29.941   2.143  31.456  0.00  0.00    -0.268 OA
ATOM     27  N   UNL A   1     -29.613   4.060  30.363  0.00  0.00    -0.174 NA
BRANCH  27  28
ATOM     28  C   UNL A   1     -28.868   5.196  29.936  0.00  0.00    +0.089 C 
ATOM     29  C   UNL A   1     -29.338   6.088  29.138  0.00  0.00    +0.018 C 
BRANCH  29  30
ATOM     30  C   UNL A   1     -30.340   6.764  29.558  0.00  0.00    +0.001 A 
ATOM     31  C   UNL A   1     -30.916   7.741  28.767  0.00  0.00    +0.000 A 
ATOM     32  C   UNL A   1     -32.045   8.532  29.123  0.00  0.00    +0.000 A 
ATOM     33  C   UNL A   1     -32.609   8.217  30.388  0.00  0.00    +0.000 A 
ATOM     34  C   UNL A   1     -32.109   7.261  31.193  0.00  0.00    +0.000 A 
ATOM     35  C   UNL A   1     -31.000   6.557  30.838  0.00  0.00    +0.000 A 
ENDBRANCH  29  30
ENDBRANCH  27  28
ENDBRANCH  22  25
ENDBRANCH   7  19
TORSDOF 5
