MODEL 1246
MODEL 1
REMARK VINA RESULT:    -9.192      0.000      0.000
REMARK INTER + INTRA:         -13.818
REMARK INTER:                 -11.879
REMARK INTRA:                  -1.940
REMARK UNBOUND:                -1.940
REMARK  Name = No_1246-gen_results/8p0m/2024-11-27-11-27-31/
REMARK  5 active torsions:
REMARK  status: ('A' for Active; 'I' for Inactive)
REMARK    1  A    between atoms: C_4  and  C_11
REMARK    2  A    between atoms: N_17  and  C_19
REMARK    3  A    between atoms: C_22  and  C_24
REMARK    4  A    between atoms: N_27  and  C_28
REMARK    5  A    between atoms: C_29  and  C_30
REMARK                            x       y       z     vdW  Elec       q    Type
REMARK                         _______ _______ _______ _____ _____    ______ ____
ROOT
ATOM      1  C   UNL A   1     -25.106  -2.352  30.229  0.00  0.00    +0.033 A 
ATOM      2  C   UNL A   1     -26.041  -3.195  29.794  0.00  0.00    +0.004 A 
ATOM      3  C   UNL A   1     -23.966  -2.317  29.762  0.00  0.00    +0.152 A 
ATOM      4  N   UNL A   1     -23.492  -3.430  29.067  0.00  0.00    -0.227 NA
ATOM      5  C   UNL A   1     -25.670  -4.416  29.254  0.00  0.00    +0.021 A 
ATOM      6  C   UNL A   1     -24.316  -4.490  28.870  0.00  0.00    +0.100 A 
ATOM      7  N   UNL A   1     -22.909  -1.401  29.935  0.00  0.00    -0.194 NA
ENDROOT
BRANCH   1  11
ATOM      8  C   UNL A   1     -27.550   0.482  28.160  0.00  0.00    +0.007 A 
ATOM      9  C   UNL A   1     -26.866  -0.340  28.725  0.00  0.00    +0.001 A 
ATOM     10  C   UNL A   1     -26.377  -0.109  30.006  0.00  0.00    +0.000 A 
ATOM     11  C   UNL A   1     -25.520  -1.035  30.801  0.00  0.00    +0.003 A 
ATOM     12  C   UNL A   1     -25.007  -0.771  32.119  0.00  0.00    +0.000 A 
ATOM     13  C   UNL A   1     -25.617   0.366  32.718  0.00  0.00    +0.000 A 
ATOM     14  C   UNL A   1     -27.730   1.829  28.759  0.00  0.00    +0.035 A 
ATOM     15  C   UNL A   1     -27.346   2.094  30.054  0.00  0.00    +0.007 A 
ATOM     16  C   UNL A   1     -26.599   1.148  30.745  0.00  0.00    +0.001 A 
ATOM     17  C   UNL A   1     -26.225   1.331  32.089  0.00  0.00    +0.000 A 
ATOM     18 BR   UNL A   1     -28.746   3.090  27.766  0.00  0.00    -0.049 Br
ENDBRANCH   1  11
BRANCH   7  19
ATOM     19  C   UNL A   1     -22.590  -0.377  28.967  0.00  0.00    +0.072 A 
ATOM     20  C   UNL A   1     -21.303  -0.137  28.721  0.00  0.00    +0.017 A 
ATOM     21  C   UNL A   1     -23.624   0.418  28.504  0.00  0.00    +0.021 A 
ATOM     22  C   UNL A   1     -23.297   1.522  27.696  0.00  0.00    +0.057 A 
ATOM     23  C   UNL A   1     -20.910   0.918  27.832  0.00  0.00    +0.002 A 
ATOM     24  C   UNL A   1     -21.930   1.754  27.389  0.00  0.00    +0.005 A 
BRANCH  22  25
ATOM     25  C   UNL A   1     -24.309   2.414  27.148  0.00  0.00    +0.269 C 
ATOM     26  O   UNL A   1     -24.567   3.379  27.826  0.00  0.00    -0.268 OA
ATOM     27  N   UNL A   1     -25.000   2.048  26.089  0.00  0.00    -0.174 NA
BRANCH  27  28
ATOM     28  C   UNL A   1     -24.789   0.935  25.226  0.00  0.00    +0.089 C 
ATOM     29  C   UNL A   1     -25.639  -0.020  25.087  0.00  0.00    +0.018 C 
BRANCH  29  30
ATOM     30  C   UNL A   1     -26.776   0.291  24.590  0.00  0.00    +0.001 A 
ATOM     31  C   UNL A   1     -27.680  -0.689  24.223  0.00  0.00    +0.000 A 
ATOM     32  C   UNL A   1     -28.978  -0.456  23.687  0.00  0.00    +0.000 A 
ATOM     33  C   UNL A   1     -29.335   0.915  23.584  0.00  0.00    +0.000 A 
ATOM     34  C   UNL A   1     -28.509   1.914  23.947  0.00  0.00    +0.000 A 
ATOM     35  C   UNL A   1     -27.257   1.652  24.412  0.00  0.00    +0.000 A 
ENDBRANCH  29  30
ENDBRANCH  27  28
ENDBRANCH  22  25
ENDBRANCH   7  19
TORSDOF 5
ENDMDL
ENDMDL
