MODEL 1249
MODEL 1
REMARK VINA RESULT:    -6.939      0.000      0.000
REMARK INTER + INTRA:         -10.480
REMARK INTER:                  -8.968
REMARK INTRA:                  -1.512
REMARK UNBOUND:                -1.512
REMARK  Name = No_1249-gen_results/8p0m/2024-11-27-11-27-31/
REMARK  5 active torsions:
REMARK  status: ('A' for Active; 'I' for Inactive)
REMARK    1  A    between atoms: C_2  and  C_13
REMARK    2  A    between atoms: C_5  and  C_6
REMARK    3  A    between atoms: N_9  and  C_34
REMARK    4  A    between atoms: C_24  and  C_25
REMARK    5  A    between atoms: C_27  and  C_31
REMARK                            x       y       z     vdW  Elec       q    Type
REMARK                         _______ _______ _______ _____ _____    ______ ____
ROOT
ATOM      1  C   UNL A   1     -23.889 -15.658   3.542  0.00  0.00    +0.102 C 
ATOM      2  N   UNL A   1     -23.488 -14.659   2.825  0.00  0.00    -0.289 N 
ATOM      3  C   UNL A   1     -22.787 -13.895   2.808  0.00  0.00    +0.155 A 
ATOM      4  N   UNL A   1     -21.768 -13.733   3.706  0.00  0.00    -0.206 NA
ATOM      5  C   UNL A   1     -21.066 -12.534   3.710  0.00  0.00    +0.223 A 
ATOM      6  N   UNL A   1     -21.176 -11.700   2.690  0.00  0.00    -0.125 NA
ATOM      7  C   UNL A   1     -22.870 -12.705   1.909  0.00  0.00    +0.156 A 
ATOM      8  N   UNL A   1     -22.108 -11.758   1.850  0.00  0.00    -0.142 NA
ATOM      9  C   UNL A   1     -24.352 -14.953   1.496  0.00  0.00    +0.092 C 
ATOM     10  C   UNL A   1     -25.785 -15.172   1.811  0.00  0.00    +0.022 C 
ATOM     11  C   UNL A   1     -26.152 -16.099   2.853  0.00  0.00    +0.008 C 
ATOM     12  C   UNL A   1     -25.185 -16.206   3.837  0.00  0.00    +0.045 C 
ENDROOT
BRANCH   1  14
ATOM     13  C   UNL A   1     -22.499 -17.728   3.560  0.00  0.00    +0.056 A 
ATOM     14  C   UNL A   1     -22.791 -16.704   4.134  0.00  0.00    +0.017 A 
ATOM     15  C   UNL A   1     -22.361 -16.393   5.409  0.00  0.00    +0.056 A 
ATOM     16  C   UNL A   1     -21.495 -17.312   6.064  0.00  0.00    +0.016 A 
ATOM     17  C   UNL A   1     -21.061 -18.356   5.319  0.00  0.00    +0.056 A 
ATOM     18  C   UNL A   1     -21.523 -18.527   4.087  0.00  0.00    +0.016 A 
ATOM     19 CL   UNL A   1     -23.077 -18.019   1.918  0.00  0.00    -0.083 Cl
ATOM     20 CL   UNL A   1     -22.980 -15.009   6.276  0.00  0.00    -0.083 Cl
BRANCH  17  21
ATOM     21  C   UNL A   1     -20.132 -19.205   5.942  0.00  0.00    +0.253 C 
ATOM     22  O   UNL A   1     -18.912 -19.132   5.795  0.00  0.00    -0.270 OA
ATOM     23  N   UNL A   1     -20.578 -20.294   6.656  0.00  0.00    -0.252 N 
ATOM     24  C   UNL A   1     -19.708 -21.174   7.357  0.00  0.00    +0.120 C 
BRANCH  23  25
ATOM     25  C   UNL A   1     -22.017 -20.616   6.791  0.00  0.00    +0.068 C 
ATOM     26  C   UNL A   1     -22.508 -20.521   8.052  0.00  0.00    +0.018 C 
ENDBRANCH  23  25
ENDBRANCH  17  21
ENDBRANCH   1  14
BRANCH  12  27
ATOM     27  C   UNL A   1     -25.583 -16.986   5.036  0.00  0.00    -0.020 A 
ATOM     28  C   UNL A   1     -25.942 -16.502   6.104  0.00  0.00    +0.002 A 
ATOM     29  C   UNL A   1     -26.296 -17.276   7.258  0.00  0.00    +0.080 A 
ATOM     30  C   UNL A   1     -25.361 -18.395   4.906  0.00  0.00    -0.004 A 
ATOM     31  C   UNL A   1     -25.636 -19.271   5.992  0.00  0.00    -0.000 A 
ATOM     32  C   UNL A   1     -26.109 -18.691   7.175  0.00  0.00    +0.007 A 
BRANCH  29  33
ATOM     33  C   UNL A   1     -26.790 -16.656   8.516  0.00  0.00    +0.388 C 
ATOM     34  O   UNL A   1     -27.335 -15.780   8.697  0.00  0.00    -0.241 OA
ATOM     35  O   UNL A   1     -26.080 -17.271   9.614  0.00  0.00    -0.241 OA
ENDBRANCH  29  33
ENDBRANCH  12  27
TORSDOF 5
ENDMDL
ENDMDL
