MODEL 124
MODEL 1
REMARK VINA RESULT:    -6.802      0.000      0.000
REMARK INTER + INTRA:         -14.578
REMARK INTER:                  -9.983
REMARK INTRA:                  -4.595
REMARK UNBOUND:                -4.595
REMARK  Name = No_124-gen_results/8p0m/2024-11-27-11-27-31/
REMARK  8 active torsions:
REMARK  status: ('A' for Active; 'I' for Inactive)
REMARK    1  A    between atoms: C_3  and  C_14
REMARK    2  A    between atoms: C_14  and  C_15
REMARK    3  A    between atoms: C_15  and  C_17
REMARK    4  A    between atoms: C_16  and  C_19
REMARK    5  A    between atoms: C_17  and  C_18
REMARK    6  A    between atoms: C_18  and  N_20
REMARK    7  A    between atoms: C_19  and  C_22
REMARK    8  A    between atoms: N_20  and  C_21
REMARK                            x       y       z     vdW  Elec       q    Type
REMARK                         _______ _______ _______ _____ _____    ______ ____
ROOT
ATOM      1  C   UNL A   1     -23.173  -0.978  29.536  0.00  0.00    -0.042 C 
ATOM      2  C   UNL A   1     -22.982  -0.641  28.471  0.00  0.00    -0.029 C 
ENDROOT
BRANCH   1   3
ATOM      3  C   UNL A   1     -22.686  -0.682  30.858  0.00  0.00    +0.048 C 
BRANCH   3   6
ATOM      4  C   UNL A   1     -25.289  -0.302  33.428  0.00  0.00    +0.016 A 
ATOM      5  C   UNL A   1     -24.354  -0.714  32.782  0.00  0.00    -0.003 A 
ATOM      6  C   UNL A   1     -23.709  -0.013  31.777  0.00  0.00    -0.018 A 
ATOM      7  C   UNL A   1     -24.170   1.310  31.510  0.00  0.00    +0.002 A 
ATOM      8  C   UNL A   1     -25.112   1.790  32.348  0.00  0.00    +0.068 A 
ATOM      9  C   UNL A   1     -25.607   1.055  33.345  0.00  0.00    +0.074 A 
ATOM     10  C   UNL A   1     -25.536   3.178  32.081  0.00  0.00    +0.253 C 
ATOM     11  N   UNL A   1     -26.407   3.640  32.736  0.00  0.00    -0.231 N 
ATOM     12  O   UNL A   1     -25.329   3.638  30.880  0.00  0.00    -0.270 OA
ATOM     13  C   UNL A   1     -26.838   3.181  34.038  0.00  0.00    +0.339 C 
ATOM     14  N   UNL A   1     -26.541   1.735  34.193  0.00  0.00    -0.188 NA
ATOM     15  F   UNL A   1     -27.723   3.627  34.706  0.00  0.00    -0.189 F 
ATOM     16  C   UNL A   1     -26.981   5.055  32.514  0.00  0.00    +0.119 C 
ENDBRANCH   3   6
ENDBRANCH   1   3
BRANCH   1  17
ATOM     17  C   UNL A   1     -23.887  -2.394  29.533  0.00  0.00    +0.044 C 
BRANCH  17  18
ATOM     18  C   UNL A   1     -25.140  -2.539  28.964  0.00  0.00    +0.103 C 
BRANCH  18  19
ATOM     19  N   UNL A   1     -26.103  -2.515  29.521  0.00  0.00    -0.251 N 
ATOM     20  C   UNL A   1     -26.758  -3.743  29.983  0.00  0.00    +0.307 C 
ATOM     21  O   UNL A   1     -26.292  -4.832  29.571  0.00  0.00    -0.265 OA
BRANCH  19  22
ATOM     22  C   UNL A   1     -26.711  -1.424  30.010  0.00  0.00    +0.054 A 
ATOM     23  C   UNL A   1     -27.792  -1.314  30.904  0.00  0.00    +0.015 A 
ATOM     24  C   UNL A   1     -26.700  -0.342  28.990  0.00  0.00    +0.015 A 
ATOM     25  C   UNL A   1     -27.244   0.935  29.382  0.00  0.00    +0.001 A 
ATOM     26  C   UNL A   1     -28.341  -0.054  31.280  0.00  0.00    +0.001 A 
ATOM     27  C   UNL A   1     -28.160   1.087  30.356  0.00  0.00    +0.000 A 
ENDBRANCH  19  22
ENDBRANCH  18  19
ENDBRANCH  17  18
ENDBRANCH   1  17
BRANCH   2  28
ATOM     28  C   UNL A   1     -22.281   0.751  28.354  0.00  0.00    +0.052 C 
BRANCH  28  29
ATOM     29  C   UNL A   1     -22.935   1.697  27.518  0.00  0.00    -0.018 A 
ATOM     30  C   UNL A   1     -22.641   1.766  26.221  0.00  0.00    -0.004 A 
ATOM     31  C   UNL A   1     -24.149   2.288  27.940  0.00  0.00    -0.004 A 
ATOM     32  C   UNL A   1     -24.638   3.417  27.168  0.00  0.00    -0.000 A 
ATOM     33  C   UNL A   1     -23.136   2.793  25.397  0.00  0.00    -0.000 A 
ATOM     34  C   UNL A   1     -24.226   3.501  25.870  0.00  0.00    -0.000 A 
ENDBRANCH  28  29
ENDBRANCH   2  28
TORSDOF 8
ENDMDL
ENDMDL
