REMARK  Name = outputs/IAG933/test6/raw/output_1250_IAG933_linker_design_.xyz
REMARK  12 active torsions:
REMARK  status: ('A' for Active; 'I' for Inactive)
REMARK    1  A    between atoms: C_1  and  C_2
REMARK    2  A    between atoms: C_1  and  C_8
REMARK    3  A    between atoms: C_1  and  C_35
REMARK    4  A    between atoms: C_13  and  C_29
REMARK    5  A    between atoms: C_14  and  C_15
REMARK    6  A    between atoms: C_15  and  O_18
REMARK    7  A    between atoms: O_18  and  C_41
REMARK    8  A    between atoms: C_21  and  O_22
REMARK    9  A    between atoms: O_22  and  C_23
REMARK   10  A    between atoms: C_23  and  C_24
REMARK   11  A    between atoms: C_29  and  N_30
REMARK   12  A    between atoms: C_29  and  C_37
REMARK                            x       y       z     vdW  Elec       q    Type
REMARK                         _______ _______ _______ _____ _____    ______ ____
ROOT
ATOM      1  C   UNL A   1     -24.565   1.430  27.525  0.00  0.00    +0.163 C 
ENDROOT
BRANCH   1   6
ATOM      2  O   UNL A   1     -21.694   2.001  26.076  0.00  0.00    -0.216 OA
ATOM      3  C   UNL A   1     -21.608   0.081  28.774  0.00  0.00    +0.353 C 
ATOM      4  O   UNL A   1     -22.970   0.235  28.834  0.00  0.00    -0.445 OA
ATOM      5  C   UNL A   1     -22.101   1.491  27.216  0.00  0.00    +0.237 C 
ATOM      6  C   UNL A   1     -23.261   1.065  27.736  0.00  0.00    +0.226 C 
ATOM      7  O   UNL A   1     -20.959  -0.892  29.117  0.00  0.00    -0.247 OA
ATOM      8  C   UNL A   1     -21.128   1.093  28.029  0.00  0.00    +0.292 C 
ATOM      9  F   UNL A   1     -19.924   1.651  28.115  0.00  0.00    -0.222 F 
ENDBRANCH   1   6
BRANCH   1  10
ATOM     10  C   UNL A   1     -25.688   1.614  26.461  0.00  0.00    +0.039 C 
ATOM     11  C   UNL A   1     -26.250   2.920  26.395  0.00  0.00    +0.072 C 
ATOM     12  C   UNL A   1     -27.438   3.091  25.645  0.00  0.00    +0.106 C 
ATOM     13  N   UNL A   1     -28.075   2.089  25.003  0.00  0.00    -0.208 NA
ATOM     14  C   UNL A   1     -27.543   0.849  25.079  0.00  0.00    +0.253 C 
ATOM     15  C   UNL A   1     -26.354   0.576  25.777  0.00  0.00    +0.191 C 
ATOM     16  F   UNL A   1     -25.860  -0.681  25.795  0.00  0.00    -0.200 F 
BRANCH  11  17
ATOM     17  C   UNL A   1     -25.642   4.093  27.123  0.00  0.00    +0.222 C 
ATOM     18  N   UNL A   1     -25.614   5.252  26.449  0.00  0.00    -0.236 NA
ATOM     19  C   UNL A   1     -25.026   6.479  26.963  0.00  0.00    +0.155 C 
BRANCH  17  20
ATOM     20  O   UNL A   1     -25.143   3.966  28.243  0.00  0.00    -0.462 OA
BRANCH  20  23
ATOM     21  C   UNL A   1     -25.805   5.021  30.323  0.00  0.00    +0.049 C 
ATOM     22  C   UNL A   1     -26.837   2.783  29.879  0.00  0.00    +0.185 C 
ATOM     23  C   UNL A   1     -25.586   3.673  29.628  0.00  0.00    +0.197 C 
ATOM     24  C   UNL A   1     -27.914   4.558  31.321  0.00  0.00    +0.142 C 
ATOM     25  C   UNL A   1     -27.289   5.346  30.189  0.00  0.00    +0.036 C 
ATOM     26  O   UNL A   1     -27.525   3.177  31.066  0.00  0.00    -0.350 OA
ENDBRANCH  20  23
ENDBRANCH  17  20
ENDBRANCH  11  17
BRANCH  14  27
ATOM     27  O   UNL A   1     -28.193  -0.208  24.477  0.00  0.00    -0.456 OA
BRANCH  27  28
ATOM     28  C   UNL A   1     -29.460   0.005  23.866  0.00  0.00    +0.243 C 
BRANCH  28  29
ATOM     29  C   UNL A   1     -30.065  -1.377  23.573  0.00  0.00    +0.229 C 
ATOM     30  O   UNL A   1     -30.729  -1.878  24.721  0.00  0.00    -0.216 OA
ENDBRANCH  28  29
ENDBRANCH  27  28
ENDBRANCH  14  27
ENDBRANCH   1  10
BRANCH   1  31
ATOM     31  N   UNL A   1     -25.277   1.144  28.738  0.00  0.00    -0.199 NA
ATOM     32  O   UNL A   1     -26.679  -0.574  28.624  0.00  0.00    -0.273 OA
ATOM     33  C   UNL A   1     -25.708  -0.086  29.110  0.00  0.00    +0.247 C 
BRANCH  33  34
ATOM     34  C   UNL A   1     -24.855  -1.012  30.143  0.00  0.00    +0.116 C 
BRANCH  34  35
ATOM     35  C   UNL A   1     -24.973  -2.505  29.788  0.00  0.00    -0.013 C 
ATOM     36  C   UNL A   1     -23.906  -3.173  29.146  0.00  0.00    -0.004 C 
ATOM     37  C   UNL A   1     -23.989  -4.549  28.853  0.00  0.00    -0.000 C 
ATOM     38  C   UNL A   1     -25.137  -5.280  29.205  0.00  0.00    -0.000 C 
ATOM     39  C   UNL A   1     -26.232  -4.611  29.784  0.00  0.00    -0.000 C 
ATOM     40  C   UNL A   1     -26.155  -3.232  30.065  0.00  0.00    -0.004 C 
ENDBRANCH  34  35
BRANCH  34  41
ATOM     41  C   UNL A   1     -25.387  -0.679  31.571  0.00  0.00    +0.086 C 
ATOM     42  C   UNL A   1     -25.189   0.773  32.028  0.00  0.00    +0.020 C 
ATOM     43  C   UNL A   1     -25.336   0.684  33.544  0.00  0.00    +0.020 C 
ATOM     44  C   UNL A   1     -24.829  -0.715  33.905  0.00  0.00    +0.089 C 
ATOM     45  N   UNL A   1     -24.758  -1.481  32.646  0.00  0.00    -0.219 NA
ENDBRANCH  34  41
ENDBRANCH  33  34
ENDBRANCH   1  31
TORSDOF 12
