MODEL 1251
MODEL 1
REMARK VINA RESULT:    -7.398      0.000      0.000
REMARK INTER + INTRA:         -13.129
REMARK INTER:                 -10.858
REMARK INTRA:                  -2.270
REMARK UNBOUND:                -2.270
REMARK  Name = No_1251-gen_results/8p0m/2024-11-27-11-27-31/
REMARK  8 active torsions:
REMARK  status: ('A' for Active; 'I' for Inactive)
REMARK    1  A    between atoms: C_6  and  C_17
REMARK    2  A    between atoms: C_7  and  C_8
REMARK    3  A    between atoms: N_9  and  C_10
REMARK    4  A    between atoms: N_19  and  C_20
REMARK    5  A    between atoms: C_24  and  N_26
REMARK    6  A    between atoms: C_31  and  C_32
REMARK    7  A    between atoms: C_32  and  C_33
REMARK    8  A    between atoms: C_33  and  C_34
REMARK                            x       y       z     vdW  Elec       q    Type
REMARK                         _______ _______ _______ _____ _____    ______ ____
ROOT
ATOM      1  C   UNL A   1     -29.477 -15.440   9.221  0.00  0.00    +0.269 C 
ATOM      2  O   UNL A   1     -29.996 -15.445   8.318  0.00  0.00    -0.268 OA
ATOM      3  N   UNL A   1     -28.051 -15.806   9.178  0.00  0.00    -0.175 NA
ENDROOT
BRANCH   1   9
ATOM      4  F   UNL A   1     -29.308 -15.665  14.001  0.00  0.00    -0.204 F 
ATOM      5  C   UNL A   1     -29.695 -15.085  12.979  0.00  0.00    +0.140 A 
ATOM      6  C   UNL A   1     -29.440 -15.615  11.770  0.00  0.00    +0.034 A 
ATOM      7  C   UNL A   1     -30.439 -13.807  13.108  0.00  0.00    +0.030 A 
ATOM      8  C   UNL A   1     -30.790 -13.081  11.926  0.00  0.00    +0.007 A 
ATOM      9  C   UNL A   1     -29.831 -14.857  10.562  0.00  0.00    +0.062 A 
ATOM     10  C   UNL A   1     -30.490 -13.626  10.647  0.00  0.00    +0.060 A 
BRANCH  10  11
ATOM     11  C   UNL A   1     -31.043 -12.797   9.626  0.00  0.00    +0.269 C 
ATOM     12  N   UNL A   1     -30.469 -11.875   9.094  0.00  0.00    -0.175 NA
ATOM     13  O   UNL A   1     -32.217 -13.264   9.154  0.00  0.00    -0.268 OA
BRANCH  12  14
ATOM     14  C   UNL A   1     -29.148 -11.899   8.845  0.00  0.00    +0.074 A 
ATOM     15  C   UNL A   1     -28.688 -12.118   7.783  0.00  0.00    +0.017 A 
ATOM     16  C   UNL A   1     -27.236 -11.903   7.634  0.00  0.00    +0.001 A 
ATOM     17  C   UNL A   1     -26.525 -11.190   7.812  0.00  0.00    +0.000 A 
ATOM     18  C   UNL A   1     -26.984 -10.387   9.123  0.00  0.00    +0.001 A 
ATOM     19  C   UNL A   1     -28.336 -10.766   9.583  0.00  0.00    +0.017 A 
ENDBRANCH  12  14
ENDBRANCH  10  11
ENDBRANCH   1   9
BRANCH   3  20
ATOM     20  C   UNL A   1     -27.491 -16.331   7.961  0.00  0.00    +0.075 A 
ATOM     21  C   UNL A   1     -27.484 -17.639   7.971  0.00  0.00    +0.017 A 
ATOM     22  C   UNL A   1     -26.456 -18.312   7.373  0.00  0.00    +0.003 A 
ATOM     23  C   UNL A   1     -25.533 -17.682   6.411  0.00  0.00    +0.015 A 
ATOM     24  C   UNL A   1     -25.620 -16.227   6.474  0.00  0.00    +0.049 A 
ATOM     25  C   UNL A   1     -26.464 -15.594   7.291  0.00  0.00    +0.031 A 
BRANCH  24  26
ATOM     26  N   UNL A   1     -24.649 -15.546   5.724  0.00  0.00    -0.307 N 
ATOM     27  C   UNL A   1     -23.539 -15.905   5.372  0.00  0.00    +0.091 C 
ATOM     28  C   UNL A   1     -25.005 -14.161   5.326  0.00  0.00    +0.091 C 
ATOM     29  C   UNL A   1     -24.120 -13.289   5.425  0.00  0.00    +0.021 C 
ATOM     30  C   UNL A   1     -22.396 -14.941   5.176  0.00  0.00    +0.021 C 
ATOM     31  C   UNL A   1     -22.732 -13.573   5.098  0.00  0.00    +0.003 C 
BRANCH  31  32
ATOM     32  C   UNL A   1     -21.721 -12.540   4.905  0.00  0.00    +0.000 C 
BRANCH  32  33
ATOM     33  C   UNL A   1     -21.329 -12.307   3.671  0.00  0.00    +0.000 C 
BRANCH  33  34
ATOM     34  C   UNL A   1     -20.061 -11.927   3.501  0.00  0.00    +0.000 C 
ATOM     35  C   UNL A   1     -19.534 -12.011   2.295  0.00  0.00    +0.000 C 
ENDBRANCH  33  34
ENDBRANCH  32  33
ENDBRANCH  31  32
ENDBRANCH  24  26
ENDBRANCH   3  20
TORSDOF 8
ENDMDL
ENDMDL
