REMARK  Name = No_1251-gen_results/8p0m/2024-11-27-11-27-31/
REMARK  8 active torsions:
REMARK  status: ('A' for Active; 'I' for Inactive)
REMARK    1  A    between atoms: C_6  and  C_17
REMARK    2  A    between atoms: C_7  and  C_8
REMARK    3  A    between atoms: N_9  and  C_10
REMARK    4  A    between atoms: N_19  and  C_20
REMARK    5  A    between atoms: C_24  and  N_26
REMARK    6  A    between atoms: C_31  and  C_32
REMARK    7  A    between atoms: C_32  and  C_33
REMARK    8  A    between atoms: C_33  and  C_34
REMARK                            x       y       z     vdW  Elec       q    Type
REMARK                         _______ _______ _______ _____ _____    ______ ____
ROOT
ATOM      1  C   UNL A   1     -26.100   2.788  30.175  0.00  0.00    +0.269 C 
ATOM      2  O   UNL A   1     -25.564   3.326  30.887  0.00  0.00    -0.268 OA
ATOM      3  N   UNL A   1     -26.985   3.553  29.281  0.00  0.00    -0.175 NA
ENDROOT
BRANCH   1   9
ATOM      4  F   UNL A   1     -28.073  -1.254  28.532  0.00  0.00    -0.204 F 
ATOM      5  C   UNL A   1     -27.061  -0.629  28.872  0.00  0.00    +0.140 A 
ATOM      6  C   UNL A   1     -27.176   0.615  29.369  0.00  0.00    +0.034 A 
ATOM      7  C   UNL A   1     -25.730  -1.269  28.724  0.00  0.00    +0.030 A 
ATOM      8  C   UNL A   1     -24.553  -0.508  29.013  0.00  0.00    +0.007 A 
ATOM      9  C   UNL A   1     -25.947   1.375  29.681  0.00  0.00    +0.062 A 
ATOM     10  C   UNL A   1     -24.675   0.820  29.507  0.00  0.00    +0.060 A 
BRANCH  10  11
ATOM     11  C   UNL A   1     -23.385   1.331  29.843  0.00  0.00    +0.269 C 
ATOM     12  N   UNL A   1     -22.490   1.527  29.054  0.00  0.00    -0.175 NA
ATOM     13  O   UNL A   1     -23.315   1.774  31.115  0.00  0.00    -0.268 OA
BRANCH  12  14
ATOM     14  C   UNL A   1     -22.718   1.954  27.800  0.00  0.00    +0.074 A 
ATOM     15  C   UNL A   1     -23.007   1.239  26.910  0.00  0.00    +0.017 A 
ATOM     16  C   UNL A   1     -23.425   1.885  25.651  0.00  0.00    +0.001 A 
ATOM     17  C   UNL A   1     -24.077   2.596  25.312  0.00  0.00    +0.000 A 
ATOM     18  C   UNL A   1     -24.215   3.697  26.470  0.00  0.00    +0.001 A 
ATOM     19  C   UNL A   1     -23.532   3.303  27.720  0.00  0.00    +0.017 A 
ENDBRANCH  12  14
ENDBRANCH  10  11
ENDBRANCH   1   9
BRANCH   3  20
ATOM     20  C   UNL A   1     -27.221   4.949  29.542  0.00  0.00    +0.075 A 
ATOM     21  C   UNL A   1     -27.640   5.565  28.467  0.00  0.00    +0.017 A 
ATOM     22  C   UNL A   1     -27.262   6.859  28.241  0.00  0.00    +0.003 A 
ATOM     23  C   UNL A   1     -26.704   7.729  29.293  0.00  0.00    +0.015 A 
ATOM     24  C   UNL A   1     -26.272   6.949  30.447  0.00  0.00    +0.049 A 
ATOM     25  C   UNL A   1     -26.413   5.623  30.510  0.00  0.00    +0.031 A 
BRANCH  24  26
ATOM     26  N   UNL A   1     -25.564   7.675  31.417  0.00  0.00    -0.307 N 
ATOM     27  C   UNL A   1     -25.125   8.811  31.377  0.00  0.00    +0.091 C 
ATOM     28  C   UNL A   1     -25.266   6.942  32.673  0.00  0.00    +0.091 C 
ATOM     29  C   UNL A   1     -24.128   7.078  33.162  0.00  0.00    +0.021 C 
ATOM     30  C   UNL A   1     -23.890   9.233  32.133  0.00  0.00    +0.021 C 
ATOM     31  C   UNL A   1     -23.440   8.358  33.144  0.00  0.00    +0.003 C 
BRANCH  31  32
ATOM     32  C   UNL A   1     -22.261   8.652  33.950  0.00  0.00    +0.000 C 
BRANCH  32  33
ATOM     33  C   UNL A   1     -21.102   8.685  33.328  0.00  0.00    +0.000 C 
BRANCH  33  34
ATOM     34  C   UNL A   1     -20.447   9.848  33.332  0.00  0.00    +0.000 C 
ATOM     35  C   UNL A   1     -19.813  10.211  34.430  0.00  0.00    +0.000 C 
ENDBRANCH  33  34
ENDBRANCH  32  33
ENDBRANCH  31  32
ENDBRANCH  24  26
ENDBRANCH   3  20
TORSDOF 8
