MODEL 1252
MODEL 1
REMARK VINA RESULT:    -4.285      0.000      0.000
REMARK INTER + INTRA:          -4.285
REMARK INTER:                  -4.285
REMARK INTRA:                   0.000
REMARK UNBOUND:                 0.000
REMARK  Name = No_1252-gen_results/8p0m/2024-11-27-11-27-31/
REMARK  0 active torsions:
REMARK  status: ('A' for Active; 'I' for Inactive)
REMARK                            x       y       z     vdW  Elec       q    Type
REMARK                         _______ _______ _______ _____ _____    ______ ____
ROOT
ATOM      1  C   UNL A   1     -24.935  -5.363  28.955  0.00  0.00    +0.000 A 
ATOM      2  C   UNL A   1     -24.152  -4.709  28.692  0.00  0.00    +0.000 A 
ATOM      3  C   UNL A   1     -26.068  -4.694  29.594  0.00  0.00    +0.000 A 
ATOM      4  C   UNL A   1     -26.092  -3.337  29.801  0.00  0.00    +0.000 A 
ATOM      5  C   UNL A   1     -23.908  -3.270  28.782  0.00  0.00    +0.000 A 
ATOM      6  C   UNL A   1     -24.999  -2.612  29.399  0.00  0.00    +0.000 A 
ENDROOT
TORSDOF 0
ENDMDL
ENDMDL
