MODEL 1253
MODEL 1
REMARK VINA RESULT:    -7.622      0.000      0.000
REMARK INTER + INTRA:         -10.523
REMARK INTER:                  -9.404
REMARK INTRA:                  -1.119
REMARK UNBOUND:                -1.119
REMARK  Name = No_1253-gen_results/8p0m/2024-11-27-11-27-31/
REMARK  4 active torsions:
REMARK  status: ('A' for Active; 'I' for Inactive)
REMARK    1  A    between atoms: C_1  and  C_2
REMARK    2  A    between atoms: C_5  and  C_16
REMARK    3  A    between atoms: N_8  and  C_9
REMARK    4  A    between atoms: C_15  and  C_20
REMARK                            x       y       z     vdW  Elec       q    Type
REMARK                         _______ _______ _______ _____ _____    ______ ____
ROOT
ATOM      1  C   UNL A   1     -23.823  -0.013  27.831  0.00  0.00    +0.259 C 
ATOM      2  N   UNL A   1     -24.056  -0.822  28.920  0.00  0.00    -0.201 N 
ATOM      3  C   UNL A   1     -23.365  -0.400  30.258  0.00  0.00    +0.259 C 
ATOM      4  O   UNL A   1     -22.883   0.873  27.956  0.00  0.00    -0.269 OA
ATOM      5  O   UNL A   1     -22.166  -0.869  30.492  0.00  0.00    -0.269 OA
ENDROOT
BRANCH   1   6
ATOM      6  C   UNL A   1     -24.794   0.269  27.168  0.00  0.00    +0.054 A 
ATOM      7  C   UNL A   1     -24.980  -0.152  25.866  0.00  0.00    +0.005 A 
ATOM      8  C   UNL A   1     -26.087   0.222  25.005  0.00  0.00    +0.005 A 
ATOM      9  C   UNL A   1     -27.084   1.083  25.516  0.00  0.00    +0.055 A 
ATOM     10  C   UNL A   1     -26.894   1.541  26.868  0.00  0.00    +0.005 A 
ATOM     11  C   UNL A   1     -25.818   1.202  27.653  0.00  0.00    +0.005 A 
BRANCH   9  12
ATOM     12  C   UNL A   1     -28.179   1.574  24.719  0.00  0.00    +0.265 C 
ATOM     13  N   UNL A   1     -29.107   1.284  24.447  0.00  0.00    -0.200 NA
ATOM     14  O   UNL A   1     -27.861   2.909  24.348  0.00  0.00    -0.268 OA
ATOM     15  C   UNL A   1     -29.512   0.065  23.617  0.00  0.00    +0.139 C 
ENDBRANCH   9  12
ENDBRANCH   1   6
BRANCH   2  16
ATOM     16  C   UNL A   1     -24.549  -1.793  29.004  0.00  0.00    +0.061 A 
ATOM     17  C   UNL A   1     -25.692  -2.016  29.506  0.00  0.00    +0.015 A 
ATOM     18  C   UNL A   1     -26.291  -3.292  29.807  0.00  0.00    +0.001 A 
ATOM     19  C   UNL A   1     -25.507  -4.401  29.399  0.00  0.00    +0.000 A 
ATOM     20  C   UNL A   1     -24.273  -4.284  28.867  0.00  0.00    +0.001 A 
ATOM     21  C   UNL A   1     -23.763  -3.044  28.693  0.00  0.00    +0.015 A 
ENDBRANCH   2  16
BRANCH   3  22
ATOM     22  C   UNL A   1     -24.018   0.493  30.947  0.00  0.00    +0.054 A 
ATOM     23  C   UNL A   1     -24.240   1.618  30.753  0.00  0.00    +0.004 A 
ATOM     24  C   UNL A   1     -25.029   2.568  31.517  0.00  0.00    +0.000 A 
ATOM     25  C   UNL A   1     -25.592   2.009  32.665  0.00  0.00    +0.000 A 
ATOM     26  C   UNL A   1     -24.656  -0.107  32.197  0.00  0.00    +0.004 A 
ATOM     27  C   UNL A   1     -25.415   0.714  33.022  0.00  0.00    +0.000 A 
ENDBRANCH   3  22
TORSDOF 4
ENDMDL
ENDMDL
