REMARK  Name = No_1254-gen_results/8p0m/2024-11-27-11-27-31/
REMARK  1 active torsions:
REMARK  status: ('A' for Active; 'I' for Inactive)
REMARK    1  A    between atoms: C_3  and  C_4
REMARK                            x       y       z     vdW  Elec       q    Type
REMARK                         _______ _______ _______ _____ _____    ______ ____
ROOT
ATOM      1  C   UNL A   1     -24.546   0.349  28.823  0.00  0.00    +0.017 C 
ATOM      2  C   UNL A   1     -23.241   0.022  29.332  0.00  0.00    +0.001 C 
ATOM      3  C   UNL A   1     -22.159   0.787  28.951  0.00  0.00    -0.001 C 
ATOM      4  C   UNL A   1     -22.131   1.744  27.982  0.00  0.00    +0.023 C 
ATOM      5  C   UNL A   1     -24.622   1.567  28.009  0.00  0.00    +0.103 C 
ATOM      6  C   UNL A   1     -23.388   2.156  27.555  0.00  0.00    +0.228 C 
ATOM      7  O   UNL A   1     -23.650   3.229  26.754  0.00  0.00    -0.464 OA
ATOM      8  C   UNL A   1     -24.976   3.313  26.254  0.00  0.00    +0.194 C 
ATOM      9  N   UNL A   1     -25.707   1.962  27.475  0.00  0.00    -0.241 NA
ATOM     10  C   UNL A   1     -25.761   2.765  26.850  0.00  0.00    +0.139 C 
ENDROOT
BRANCH   1  13
ATOM     11  C   UNL A   1     -28.016  -0.814  28.878  0.00  0.00    +0.011 A 
ATOM     12  C   UNL A   1     -27.064  -0.119  28.608  0.00  0.00    +0.001 A 
ATOM     13  C   UNL A   1     -25.792  -0.430  29.076  0.00  0.00    +0.001 A 
ATOM     14  C   UNL A   1     -27.882  -1.899  29.863  0.00  0.00    +0.058 A 
ATOM     15  C   UNL A   1     -26.653  -2.314  30.314  0.00  0.00    +0.011 A 
ATOM     16  C   UNL A   1     -25.515  -1.561  29.979  0.00  0.00    +0.001 A 
ATOM     17 CL   UNL A   1     -29.235  -2.852  30.337  0.00  0.00    -0.082 Cl
ENDBRANCH   1  13
TORSDOF 1
