MODEL 1254
MODEL 1
REMARK VINA RESULT:    -6.796      0.000      0.000
REMARK INTER + INTRA:          -7.513
REMARK INTER:                  -7.194
REMARK INTRA:                  -0.320
REMARK UNBOUND:                -0.320
REMARK  Name = No_1254-gen_results/8p0m/2024-11-27-11-27-31/
REMARK  1 active torsions:
REMARK  status: ('A' for Active; 'I' for Inactive)
REMARK    1  A    between atoms: C_3  and  C_4
REMARK                            x       y       z     vdW  Elec       q    Type
REMARK                         _______ _______ _______ _____ _____    ______ ____
ROOT
ATOM      1  C   UNL A   1     -25.583  -1.556  29.045  0.00  0.00    +0.017 C 
ATOM      2  C   UNL A   1     -26.757  -1.182  29.787  0.00  0.00    +0.001 C 
ATOM      3  C   UNL A   1     -27.485  -2.159  30.431  0.00  0.00    -0.001 C 
ATOM      4  C   UNL A   1     -27.335  -3.508  30.312  0.00  0.00    +0.023 C 
ATOM      5  C   UNL A   1     -25.198  -2.968  29.136  0.00  0.00    +0.103 C 
ATOM      6  C   UNL A   1     -26.150  -3.894  29.696  0.00  0.00    +0.228 C 
ATOM      7  O   UNL A   1     -25.658  -5.165  29.632  0.00  0.00    -0.464 OA
ATOM      8  C   UNL A   1     -24.563  -5.356  28.749  0.00  0.00    +0.194 C 
ATOM      9  N   UNL A   1     -24.197  -3.443  28.511  0.00  0.00    -0.241 NA
ATOM     10  C   UNL A   1     -23.960  -4.434  28.508  0.00  0.00    +0.139 C 
ENDROOT
BRANCH   1  13
ATOM     11  C   UNL A   1     -22.958   0.726  27.904  0.00  0.00    +0.011 A 
ATOM     12  C   UNL A   1     -23.562  -0.020  28.639  0.00  0.00    +0.001 A 
ATOM     13  C   UNL A   1     -24.743  -0.629  28.231  0.00  0.00    +0.001 A 
ATOM     14  C   UNL A   1     -23.558   1.152  26.630  0.00  0.00    +0.058 A 
ATOM     15  C   UNL A   1     -24.681   0.545  26.124  0.00  0.00    +0.011 A 
ATOM     16  C   UNL A   1     -25.383  -0.367  26.930  0.00  0.00    +0.001 A 
ATOM     17 CL   UNL A   1     -22.766   2.281  25.599  0.00  0.00    -0.082 Cl
ENDBRANCH   1  13
TORSDOF 1
ENDMDL
ENDMDL
