MODEL 1255
MODEL 1
REMARK VINA RESULT:    -7.353      0.000      0.000
REMARK INTER + INTRA:         -11.768
REMARK INTER:                 -10.362
REMARK INTRA:                  -1.406
REMARK UNBOUND:                -1.406
REMARK  Name = No_1255-gen_results/8p0m/2024-11-27-11-27-31/
REMARK  7 active torsions:
REMARK  status: ('A' for Active; 'I' for Inactive)
REMARK    1  A    between atoms: C_2  and  C_3
REMARK    2  A    between atoms: C_3  and  C_5
REMARK    3  A    between atoms: N_4  and  C_12
REMARK    4  A    between atoms: N_4  and  C_14
REMARK    5  A    between atoms: C_12  and  C_15
REMARK    6  A    between atoms: C_14  and  C_18
REMARK    7  A    between atoms: C_22  and  C_24
REMARK                            x       y       z     vdW  Elec       q    Type
REMARK                         _______ _______ _______ _____ _____    ______ ____
ROOT
ATOM      1  O   UNL A   1     -24.900   1.750  30.254  0.00  0.00    -0.275 OA
ATOM      2  C   UNL A   1     -25.175   0.805  29.665  0.00  0.00    +0.227 C 
ATOM      3  N   UNL A   1     -24.728   0.973  28.192  0.00  0.00    -0.265 N 
ENDROOT
BRANCH   2   4
ATOM      4  C   UNL A   1     -25.761  -0.040  29.812  0.00  0.00    +0.089 C 
BRANCH   4   5
ATOM      5  C   UNL A   1     -25.275  -1.087  30.690  0.00  0.00    +0.027 C 
ATOM      6  C   UNL A   1     -25.260  -0.742  32.039  0.00  0.00    -0.026 A 
ATOM      7  C   UNL A   1     -24.491  -0.798  32.855  0.00  0.00    -0.025 A 
ATOM      8  C   UNL A   1     -24.367  -0.832  34.065  0.00  0.00    +0.007 A 
ATOM      9  C   UNL A   1     -25.606  -0.590  34.856  0.00  0.00    +0.057 A 
ATOM     10  C   UNL A   1     -26.762  -0.428  34.002  0.00  0.00    +0.011 A 
ATOM     11  C   UNL A   1     -26.660  -0.591  32.654  0.00  0.00    -0.004 A 
ATOM     12 CL   UNL A   1     -25.745  -0.246  36.485  0.00  0.00    -0.082 Cl
ATOM     13  C   UNL A   1     -23.834  -1.630  30.416  0.00  0.00    +0.004 C 
ATOM     14  C   UNL A   1     -26.176  -2.362  30.386  0.00  0.00    +0.004 C 
ATOM     15  C   UNL A   1     -23.651  -2.425  29.462  0.00  0.00    +0.000 C 
ATOM     16  C   UNL A   1     -25.852  -3.225  29.333  0.00  0.00    +0.000 C 
ATOM     17  C   UNL A   1     -24.702  -3.152  28.869  0.00  0.00    +0.000 C 
ATOM     18  C   UNL A   1     -22.783  -0.959  31.143  0.00  0.00    +0.005 C 
ATOM     19  C   UNL A   1     -22.978  -0.897  32.365  0.00  0.00    +0.026 C 
ENDBRANCH   4   5
ENDBRANCH   2   4
BRANCH   3  20
ATOM     20  C   UNL A   1     -23.967   2.134  27.712  0.00  0.00    +0.209 C 
BRANCH  20  21
ATOM     21  C   UNL A   1     -22.710   1.870  27.160  0.00  0.00    +0.385 C 
ATOM     22  O   UNL A   1     -22.624   2.247  25.911  0.00  0.00    -0.244 OA
ATOM     23  O   UNL A   1     -21.780   1.407  27.722  0.00  0.00    -0.244 OA
ENDBRANCH  20  21
ENDBRANCH   3  20
BRANCH   3  24
ATOM     24  C   UNL A   1     -24.964   0.004  27.186  0.00  0.00    +0.121 C 
BRANCH  24  25
ATOM     25  C   UNL A   1     -26.007   0.208  26.481  0.00  0.00    -0.002 A 
ATOM     26  C   UNL A   1     -25.670   0.173  25.034  0.00  0.00    -0.003 A 
ATOM     27  C   UNL A   1     -26.699   0.393  24.069  0.00  0.00    -0.000 A 
ATOM     28  C   UNL A   1     -27.995   0.620  24.554  0.00  0.00    +0.007 A 
ATOM     29  C   UNL A   1     -28.307   0.637  25.902  0.00  0.00    +0.080 A 
ATOM     30  C   UNL A   1     -27.325   0.441  26.765  0.00  0.00    +0.004 A 
BRANCH  29  31
ATOM     31  C   UNL A   1     -29.695   0.854  26.326  0.00  0.00    +0.388 C 
ATOM     32  O   UNL A   1     -30.318   1.776  26.174  0.00  0.00    -0.241 OA
ATOM     33  O   UNL A   1     -30.322  -0.323  26.804  0.00  0.00    -0.241 OA
ENDBRANCH  29  31
ENDBRANCH  24  25
ENDBRANCH   3  24
TORSDOF 7
ENDMDL
ENDMDL
