REMARK  Name = No_1255-gen_results/8p0m/2024-11-27-11-27-31/
REMARK  7 active torsions:
REMARK  status: ('A' for Active; 'I' for Inactive)
REMARK    1  A    between atoms: C_2  and  C_3
REMARK    2  A    between atoms: C_3  and  C_5
REMARK    3  A    between atoms: N_4  and  C_12
REMARK    4  A    between atoms: N_4  and  C_14
REMARK    5  A    between atoms: C_12  and  C_15
REMARK    6  A    between atoms: C_14  and  C_18
REMARK    7  A    between atoms: C_22  and  C_24
REMARK                            x       y       z     vdW  Elec       q    Type
REMARK                         _______ _______ _______ _____ _____    ______ ____
ROOT
ATOM      1  O   UNL A   1     -28.123  -1.335  28.487  0.00  0.00    -0.275 OA
ATOM      2  C   UNL A   1     -28.521  -0.436  29.078  0.00  0.00    +0.227 C 
ATOM      3  N   UNL A   1     -29.375  -0.943  30.266  0.00  0.00    -0.265 N 
ENDROOT
BRANCH   2   4
ATOM      4  C   UNL A   1     -28.589   0.592  28.946  0.00  0.00    +0.089 C 
BRANCH   4   5
ATOM      5  C   UNL A   1     -27.582   1.265  28.148  0.00  0.00    +0.027 C 
ATOM      6  C   UNL A   1     -26.274   1.047  28.573  0.00  0.00    -0.026 A 
ATOM      7  C   UNL A   1     -25.400   1.714  28.799  0.00  0.00    -0.025 A 
ATOM      8  C   UNL A   1     -24.186   1.721  28.885  0.00  0.00    +0.007 A 
ATOM      9  C   UNL A   1     -23.518   0.392  28.808  0.00  0.00    +0.057 A 
ATOM     10  C   UNL A   1     -24.469  -0.671  28.568  0.00  0.00    +0.011 A 
ATOM     11  C   UNL A   1     -25.784  -0.393  28.351  0.00  0.00    -0.004 A 
ATOM     12 CL   UNL A   1     -21.944  -0.002  29.206  0.00  0.00    -0.082 Cl
ATOM     13  C   UNL A   1     -27.693   2.821  28.031  0.00  0.00    +0.004 C 
ATOM     14  C   UNL A   1     -27.832   0.799  26.648  0.00  0.00    +0.004 C 
ATOM     15  C   UNL A   1     -28.551   3.317  27.262  0.00  0.00    +0.000 C 
ATOM     16  C   UNL A   1     -28.772   1.459  25.848  0.00  0.00    +0.000 C 
ATOM     17  C   UNL A   1     -29.152   2.581  26.221  0.00  0.00    +0.000 C 
ATOM     18  C   UNL A   1     -26.954   3.560  29.028  0.00  0.00    +0.005 C 
ATOM     19  C   UNL A   1     -25.762   3.234  29.113  0.00  0.00    +0.026 C 
ENDBRANCH   4   5
ENDBRANCH   2   4
BRANCH   3  20
ATOM     20  C   UNL A   1     -29.517  -2.366  30.602  0.00  0.00    +0.209 C 
BRANCH  20  21
ATOM     21  C   UNL A   1     -30.423  -3.100  29.831  0.00  0.00    +0.385 C 
ATOM     22  O   UNL A   1     -30.185  -4.385  29.870  0.00  0.00    -0.244 OA
ATOM     23  O   UNL A   1     -31.346  -2.669  29.233  0.00  0.00    -0.244 OA
ENDBRANCH  20  21
ENDBRANCH   3  20
BRANCH   3  24
ATOM     24  C   UNL A   1     -30.054  -0.085  31.166  0.00  0.00    +0.121 C 
BRANCH  24  25
ATOM     25  C   UNL A   1     -30.963   0.635  30.635  0.00  0.00    -0.002 A 
ATOM     26  C   UNL A   1     -31.735   1.352  31.684  0.00  0.00    -0.003 A 
ATOM     27  C   UNL A   1     -32.812   2.206  31.301  0.00  0.00    -0.000 A 
ATOM     28  C   UNL A   1     -33.075   2.331  29.929  0.00  0.00    +0.007 A 
ATOM     29  C   UNL A   1     -32.344   1.673  28.955  0.00  0.00    +0.080 A 
ATOM     30  C   UNL A   1     -31.361   0.882  29.350  0.00  0.00    +0.004 A 
BRANCH  29  31
ATOM     31  C   UNL A   1     -32.666   1.880  27.538  0.00  0.00    +0.388 C 
ATOM     32  O   UNL A   1     -32.968   1.102  26.787  0.00  0.00    -0.241 OA
ATOM     33  O   UNL A   1     -32.773   3.248  27.185  0.00  0.00    -0.241 OA
ENDBRANCH  29  31
ENDBRANCH  24  25
ENDBRANCH   3  24
TORSDOF 7
