MODEL 1256
MODEL 1
REMARK VINA RESULT:    -4.194      0.000      0.000
REMARK INTER + INTRA:          -4.194
REMARK INTER:                  -4.194
REMARK INTRA:                   0.000
REMARK UNBOUND:                 0.000
REMARK  Name = No_1256-gen_results/8p0m/2024-11-27-11-27-31/
REMARK  0 active torsions:
REMARK  status: ('A' for Active; 'I' for Inactive)
REMARK                            x       y       z     vdW  Elec       q    Type
REMARK                         _______ _______ _______ _____ _____    ______ ____
ROOT
ATOM      1  C   UNL A   1     -25.002  -2.617  29.351  0.00  0.00    +0.000 A 
ATOM      2  C   UNL A   1     -24.213  -3.127  28.874  0.00  0.00    +0.000 A 
ATOM      3  C   UNL A   1     -26.089  -3.494  29.785  0.00  0.00    +0.000 A 
ATOM      4  C   UNL A   1     -26.051  -4.853  29.594  0.00  0.00    +0.000 A 
ATOM      5  C   UNL A   1     -23.906  -4.519  28.546  0.00  0.00    +0.000 A 
ATOM      6  C   UNL A   1     -24.953  -5.377  28.962  0.00  0.00    +0.000 A 
ENDROOT
TORSDOF 0
ENDMDL
ENDMDL
