MODEL 1258
MODEL 1
REMARK VINA RESULT:    -5.594      0.000      0.000
REMARK INTER + INTRA:          -5.594
REMARK INTER:                  -5.594
REMARK INTRA:                   0.000
REMARK UNBOUND:                 0.000
REMARK  Name = No_1258-gen_results/8p0m/2024-11-27-11-27-31/
REMARK  0 active torsions:
REMARK  status: ('A' for Active; 'I' for Inactive)
REMARK                            x       y       z     vdW  Elec       q    Type
REMARK                         _______ _______ _______ _____ _____    ______ ____
ROOT
ATOM      1  C   UNL A   1     -26.386  -2.047  30.699  0.00  0.00    +0.014 A 
ATOM      2  C   UNL A   1     -25.843  -2.623  30.003  0.00  0.00    +0.032 A 
ATOM      3  C   UNL A   1     -25.680  -0.953  31.303  0.00  0.00    +0.058 A 
ATOM      4  C   UNL A   1     -24.369  -0.751  31.139  0.00  0.00    +0.011 A 
ATOM      5  C   UNL A   1     -24.423  -2.597  29.685  0.00  0.00    -0.019 A 
ATOM      6  C   UNL A   1     -23.751  -1.605  30.253  0.00  0.00    -0.003 A 
ATOM      7 CL   UNL A   1     -26.604   0.103  32.364  0.00  0.00    -0.082 Cl
ATOM      8  C   UNL A   1     -23.820  -3.603  28.704  0.00  0.00    +0.027 C 
ATOM      9  C   UNL A   1     -24.172  -4.703  28.516  0.00  0.00    +0.013 C 
ATOM     10  C   UNL A   1     -25.313  -5.239  29.290  0.00  0.00    +0.070 C 
ATOM     11  C   UNL A   1     -26.287  -4.207  29.714  0.00  0.00    +0.173 C 
ATOM     12  O   UNL A   1     -27.505  -4.543  30.131  0.00  0.00    -0.291 OA
ENDROOT
TORSDOF 0
ENDMDL
ENDMDL
