REMARK  Name = outputs/IAG933/test6/raw/output_1259_IAG933_linker_design_.xyz
REMARK  15 active torsions:
REMARK  status: ('A' for Active; 'I' for Inactive)
REMARK    1  A    between atoms: C_1  and  C_2
REMARK    2  A    between atoms: C_1  and  C_8
REMARK    3  A    between atoms: C_1  and  N_37
REMARK    4  A    between atoms: C_13  and  C_48
REMARK    5  A    between atoms: C_14  and  C_15
REMARK    6  A    between atoms: C_21  and  O_22
REMARK    7  A    between atoms: O_22  and  C_23
REMARK    8  A    between atoms: C_23  and  C_24
REMARK    9  A    between atoms: C_28  and  N_37
REMARK   10  A    between atoms: C_29  and  C_34
REMARK   11  A    between atoms: C_29  and  C_35
REMARK   12  A    between atoms: S_31  and  N_37
REMARK   13  A    between atoms: S_31  and  C_42
REMARK   14  A    between atoms: C_32  and  C_43
REMARK   15  A    between atoms: C_34  and  C_43
REMARK                            x       y       z     vdW  Elec       q    Type
REMARK                         _______ _______ _______ _____ _____    ______ ____
ROOT
ATOM      1  N   UNL A   1     -25.362  -0.084  29.117  0.00  0.00    -0.251 N 
ENDROOT
BRANCH   1   2
ATOM      2  C   UNL A   1     -24.411   0.772  28.321  0.00  0.00    +0.105 C 
ATOM      3  C   UNL A   1     -22.194   1.903  26.790  0.00  0.00    +0.131 C 
ATOM      4  F   UNL A   1     -22.474  -0.109  29.682  0.00  0.00    -0.200 F 
ATOM      5  C   UNL A   1     -21.940   1.159  27.915  0.00  0.00    +0.188 C 
ATOM      6  F   UNL A   1     -20.713   1.057  28.345  0.00  0.00    -0.200 F 
ATOM      7  N   UNL A   1     -23.495   1.979  26.311  0.00  0.00    -0.240 NA
ATOM      8  C   UNL A   1     -22.933   0.552  28.659  0.00  0.00    +0.184 C 
ATOM      9  C   UNL A   1     -24.491   1.438  27.064  0.00  0.00    +0.100 C 
BRANCH   9  10
ATOM     10  C   UNL A   1     -25.688   1.614  26.461  0.00  0.00    +0.057 C 
ATOM     11  C   UNL A   1     -26.250   2.920  26.395  0.00  0.00    +0.078 C 
ATOM     12  C   UNL A   1     -27.438   3.091  25.645  0.00  0.00    +0.107 C 
ATOM     13  N   UNL A   1     -28.075   2.089  25.003  0.00  0.00    -0.208 NA
ATOM     14  C   UNL A   1     -27.543   0.849  25.079  0.00  0.00    +0.253 C 
ATOM     15  C   UNL A   1     -26.354   0.576  25.777  0.00  0.00    +0.195 C 
ATOM     16  F   UNL A   1     -25.860  -0.681  25.795  0.00  0.00    -0.199 F 
BRANCH  11  17
ATOM     17  C   UNL A   1     -25.642   4.093  27.123  0.00  0.00    +0.267 C 
ATOM     18  N   UNL A   1     -25.614   5.252  26.449  0.00  0.00    -0.200 NA
ATOM     19  C   UNL A   1     -25.026   6.479  26.963  0.00  0.00    +0.139 C 
ATOM     20  O   UNL A   1     -25.143   3.966  28.243  0.00  0.00    -0.268 OA
ENDBRANCH  11  17
BRANCH  14  21
ATOM     21  O   UNL A   1     -28.193  -0.208  24.477  0.00  0.00    -0.456 OA
BRANCH  21  22
ATOM     22  C   UNL A   1     -29.460   0.005  23.866  0.00  0.00    +0.243 C 
BRANCH  22  23
ATOM     23  C   UNL A   1     -30.065  -1.377  23.573  0.00  0.00    +0.229 C 
ATOM     24  O   UNL A   1     -30.729  -1.878  24.721  0.00  0.00    -0.216 OA
ENDBRANCH  22  23
ENDBRANCH  21  22
ENDBRANCH  14  21
ENDBRANCH   9  10
ENDBRANCH   1   2
BRANCH   1  25
ATOM     25  C   UNL A   1     -24.855  -1.012  30.143  0.00  0.00    +0.122 C 
BRANCH  25  26
ATOM     26  C   UNL A   1     -24.973  -2.505  29.788  0.00  0.00    -0.002 C 
ATOM     27  C   UNL A   1     -23.906  -3.173  29.146  0.00  0.00    -0.003 C 
ATOM     28  C   UNL A   1     -23.989  -4.549  28.853  0.00  0.00    -0.000 C 
ATOM     29  C   UNL A   1     -25.137  -5.280  29.205  0.00  0.00    -0.000 C 
ATOM     30  C   UNL A   1     -26.232  -4.611  29.784  0.00  0.00    -0.000 C 
ATOM     31  C   UNL A   1     -26.155  -3.232  30.065  0.00  0.00    -0.003 C 
ENDBRANCH  25  26
BRANCH  25  32
ATOM     32  C   UNL A   1     -25.387  -0.679  31.571  0.00  0.00    +0.096 C 
ATOM     33  C   UNL A   1     -25.189   0.773  32.028  0.00  0.00    +0.021 C 
ATOM     34  C   UNL A   1     -25.336   0.684  33.544  0.00  0.00    +0.020 C 
ATOM     35  C   UNL A   1     -24.829  -0.715  33.905  0.00  0.00    +0.089 C 
ATOM     36  N   UNL A   1     -24.758  -1.481  32.646  0.00  0.00    -0.217 NA
ENDBRANCH  25  32
ENDBRANCH   1  25
BRANCH   1  37
ATOM     37  S   UNL A   1     -27.429  -0.071  29.234  0.00  0.00    -0.019 S 
BRANCH  37  41
ATOM     38  C   UNL A   1     -28.626   3.116  31.945  0.00  0.00    -0.022 C 
ATOM     39  C   UNL A   1     -29.046   1.826  32.319  0.00  0.00    -0.004 C 
ATOM     40  C   UNL A   1     -28.514   2.429  29.704  0.00  0.00    +0.007 C 
ATOM     41  C   UNL A   1     -28.422   1.106  30.117  0.00  0.00    +0.043 C 
ATOM     42  C   UNL A   1     -28.631   3.470  30.604  0.00  0.00    -0.004 C 
ATOM     43  C   UNL A   1     -28.934   0.800  31.389  0.00  0.00    +0.007 C 
BRANCH  38  44
ATOM     44  C   UNL A   1     -27.773   3.985  32.893  0.00  0.00    +0.026 C 
BRANCH  44  45
ATOM     45  C   UNL A   1     -26.402   4.430  32.312  0.00  0.00    +0.006 C 
BRANCH  45  46
ATOM     46  C   UNL A   1     -25.191   4.325  33.256  0.00  0.00    +0.021 C 
BRANCH  46  47
ATOM     47  C   UNL A   1     -25.036   5.630  34.075  0.00  0.00    +0.109 C 
ATOM     48  N   UNL A   1     -25.257   5.479  35.498  0.00  0.00    -0.131 NA
ENDBRANCH  46  47
ENDBRANCH  45  46
ENDBRANCH  44  45
ENDBRANCH  38  44
ENDBRANCH  37  41
ENDBRANCH   1  37
TORSDOF 15
