REMARK  Name = outputs/IAG933/test6/raw/output_1260_IAG933_linker_design_.xyz
REMARK  10 active torsions:
REMARK  status: ('A' for Active; 'I' for Inactive)
REMARK    1  A    between atoms: C_1  and  C_2
REMARK    2  A    between atoms: C_1  and  C_8
REMARK    3  A    between atoms: C_1  and  N_31
REMARK    4  A    between atoms: C_21  and  O_22
REMARK    5  A    between atoms: O_22  and  C_23
REMARK    6  A    between atoms: C_23  and  C_24
REMARK    7  A    between atoms: C_28  and  C_39
REMARK    8  A    between atoms: C_29  and  C_34
REMARK    9  A    between atoms: N_31  and  C_39
REMARK   10  A    between atoms: C_38  and  S_40
REMARK                            x       y       z     vdW  Elec       q    Type
REMARK                         _______ _______ _______ _____ _____    ______ ____
ROOT
ATOM      1  C   UNL A   1     -25.688   1.614  26.461  0.00  0.00    +0.017 C 
ATOM      2  C   UNL A   1     -26.250   2.920  26.395  0.00  0.00    +0.070 C 
ATOM      3  C   UNL A   1     -25.642   4.093  27.123  0.00  0.00    +0.222 C 
ATOM      4  N   UNL A   1     -25.614   5.252  26.449  0.00  0.00    -0.236 NA
ATOM      5  C   UNL A   1     -25.026   6.479  26.963  0.00  0.00    +0.155 C 
ATOM      6  O   UNL A   1     -25.143   3.966  28.243  0.00  0.00    -0.453 OA
ATOM      7  C   UNL A   1     -27.438   3.091  25.645  0.00  0.00    +0.106 C 
ATOM      8  N   UNL A   1     -28.075   2.089  25.003  0.00  0.00    -0.208 NA
ATOM      9  C   UNL A   1     -27.543   0.849  25.079  0.00  0.00    +0.253 C 
ATOM     10  C   UNL A   1     -26.354   0.576  25.777  0.00  0.00    +0.189 C 
ATOM     11  F   UNL A   1     -25.860  -0.681  25.795  0.00  0.00    -0.200 F 
ATOM     12  C   UNL A   1     -24.633   1.136  27.361  0.00  0.00    +0.049 C 
ATOM     13  C   UNL A   1     -24.182   1.641  28.732  0.00  0.00    +0.087 C 
ATOM     14  C   UNL A   1     -25.046   2.918  29.002  0.00  0.00    +0.218 C 
ENDROOT
BRANCH  13  15
ATOM     15  C   UNL A   1     -22.737   0.913  28.663  0.00  0.00    +0.165 C 
ATOM     16  C   UNL A   1     -20.880  -0.308  28.757  0.00  0.00    +0.295 C 
ATOM     17  C   UNL A   1     -21.773   1.234  27.677  0.00  0.00    +0.224 C 
ATOM     18  O   UNL A   1     -22.224  -0.223  29.287  0.00  0.00    -0.325 OA
ATOM     19 CL   UNL A   1     -22.105   2.182  26.205  0.00  0.00    -0.080 Cl
ATOM     20  O   UNL A   1     -20.649   0.681  27.755  0.00  0.00    -0.310 OA
ENDBRANCH  13  15
BRANCH  14  22
ATOM     21  C   UNL A   1     -26.075   5.054  30.757  0.00  0.00    +0.073 C 
ATOM     22  S   UNL A   1     -26.260   3.310  30.305  0.00  0.00    -0.098 S 
ENDBRANCH  14  22
BRANCH   9  23
ATOM     23  O   UNL A   1     -28.193  -0.208  24.477  0.00  0.00    -0.456 OA
BRANCH  23  24
ATOM     24  C   UNL A   1     -29.460   0.005  23.866  0.00  0.00    +0.243 C 
BRANCH  24  25
ATOM     25  C   UNL A   1     -30.065  -1.377  23.573  0.00  0.00    +0.229 C 
ATOM     26  O   UNL A   1     -30.729  -1.878  24.721  0.00  0.00    -0.216 OA
ENDBRANCH  24  25
ENDBRANCH  23  24
ENDBRANCH   9  23
BRANCH  12  27
ATOM     27  C   UNL A   1     -25.220  -0.197  28.102  0.00  0.00    +0.094 C 
BRANCH  27  28
ATOM     28  N   UNL A   1     -25.739  -0.337  29.176  0.00  0.00    -0.213 NA
BRANCH  28  29
ATOM     29  C   UNL A   1     -24.855  -1.012  30.143  0.00  0.00    +0.111 C 
BRANCH  29  30
ATOM     30  C   UNL A   1     -24.973  -2.505  29.788  0.00  0.00    -0.005 C 
ATOM     31  C   UNL A   1     -23.906  -3.173  29.146  0.00  0.00    -0.003 C 
ATOM     32  C   UNL A   1     -23.989  -4.549  28.853  0.00  0.00    -0.000 C 
ATOM     33  C   UNL A   1     -25.137  -5.280  29.205  0.00  0.00    -0.000 C 
ATOM     34  C   UNL A   1     -26.232  -4.611  29.784  0.00  0.00    -0.000 C 
ATOM     35  C   UNL A   1     -26.155  -3.232  30.065  0.00  0.00    -0.003 C 
ENDBRANCH  29  30
BRANCH  29  36
ATOM     36  C   UNL A   1     -25.387  -0.679  31.571  0.00  0.00    +0.093 C 
ATOM     37  C   UNL A   1     -25.189   0.773  32.028  0.00  0.00    +0.021 C 
ATOM     38  C   UNL A   1     -25.336   0.684  33.544  0.00  0.00    +0.020 C 
ATOM     39  C   UNL A   1     -24.829  -0.715  33.905  0.00  0.00    +0.089 C 
ATOM     40  N   UNL A   1     -24.758  -1.481  32.646  0.00  0.00    -0.218 NA
ENDBRANCH  29  36
ENDBRANCH  28  29
ENDBRANCH  27  28
ENDBRANCH  12  27
TORSDOF 10
