MODEL 1261
MODEL 1
REMARK VINA RESULT:    -6.714      0.000      0.000
REMARK INTER + INTRA:          -7.757
REMARK INTER:                  -7.499
REMARK INTRA:                  -0.258
REMARK UNBOUND:                -0.258
REMARK  Name = No_1261-gen_results/8p0m/2024-11-27-11-27-31/
REMARK  2 active torsions:
REMARK  status: ('A' for Active; 'I' for Inactive)
REMARK    1  A    between atoms: C_1  and  C_2
REMARK    2  A    between atoms: C_12  and  C_15
REMARK                            x       y       z     vdW  Elec       q    Type
REMARK                         _______ _______ _______ _____ _____    ______ ____
ROOT
ATOM      1  C   UNL A   1     -25.846   0.289  25.636  0.00  0.00    +0.025 A 
ATOM      2  C   UNL A   1     -25.467  -0.445  26.759  0.00  0.00    -0.001 A 
ATOM      3  C   UNL A   1     -24.300  -0.203  27.631  0.00  0.00    +0.003 A 
ATOM      4  C   UNL A   1     -23.358   0.758  27.154  0.00  0.00    -0.004 A 
ATOM      5  C   UNL A   1     -23.677   1.487  26.004  0.00  0.00    -0.022 A 
ATOM      6  C   UNL A   1     -24.804   1.280  25.286  0.00  0.00    -0.005 A 
ATOM      7  C   UNL A   1     -22.182   0.944  27.971  0.00  0.00    -0.000 A 
ATOM      8  C   UNL A   1     -21.847  -0.033  28.934  0.00  0.00    -0.000 A 
ATOM      9  C   UNL A   1     -22.838  -0.935  29.369  0.00  0.00    +0.004 A 
ATOM     10  C   UNL A   1     -24.021  -1.137  28.657  0.00  0.00    +0.071 A 
ATOM     11  C   UNL A   1     -22.756   2.589  25.621  0.00  0.00    +0.031 C 
ENDROOT
BRANCH  10  12
ATOM     12  C   UNL A   1     -24.921  -2.214  29.034  0.00  0.00    +0.419 C 
ATOM     13  F   UNL A   1     -24.977  -3.062  28.168  0.00  0.00    -0.166 F 
ATOM     14  F   UNL A   1     -24.520  -2.720  30.209  0.00  0.00    -0.166 F 
ATOM     15  F   UNL A   1     -26.132  -1.701  29.384  0.00  0.00    -0.166 F 
ENDBRANCH  10  12
BRANCH   1  16
ATOM     16  C   UNL A   1     -26.825   0.038  24.972  0.00  0.00    +0.262 C 
ATOM     17 CL   UNL A   1     -27.635   1.169  23.874  0.00  0.00    -0.072 Cl
ATOM     18  F   UNL A   1     -27.011  -1.097  24.268  0.00  0.00    -0.214 F 
ENDBRANCH   1  16
TORSDOF 2
ENDMDL
ENDMDL
