REMARK  Name = outputs/IAG933/test6/raw/output_1261_IAG933_linker_design_.xyz
REMARK  11 active torsions:
REMARK  status: ('A' for Active; 'I' for Inactive)
REMARK    1  A    between atoms: C_1  and  C_2
REMARK    2  A    between atoms: C_1  and  C_8
REMARK    3  A    between atoms: C_1  and  C_38
REMARK    4  A    between atoms: C_13  and  N_31
REMARK    5  A    between atoms: C_14  and  C_15
REMARK    6  A    between atoms: C_21  and  O_22
REMARK    7  A    between atoms: O_22  and  C_23
REMARK    8  A    between atoms: C_23  and  C_24
REMARK    9  A    between atoms: C_30  and  C_36
REMARK   10  A    between atoms: CA_32  and  C_41
REMARK   11  A    between atoms: N_35  and  C_39
REMARK                            x       y       z     vdW  Elec       q    Type
REMARK                         _______ _______ _______ _____ _____    ______ ____
ROOT
ATOM      1  C   UNL A   1     -23.534   1.305  26.807  0.00  0.00    +0.281 C 
ATOM      2  N   UNL A   1     -24.834   1.214  27.285  0.00  0.00    -0.164 N 
ATOM      3  F   UNL A   1     -21.306   1.291  27.568  0.00  0.00    -0.204 F 
ATOM      4  C   UNL A   1     -23.014   0.266  28.921  0.00  0.00    +0.033 C 
ATOM      5  C   UNL A   1     -24.428   0.039  29.191  0.00  0.00    +0.068 C 
ATOM      6  C   UNK     1     -25.393   0.690  28.380  0.00  0.00    +0.324 C 
ATOM      7  C   UNL A   1     -22.534   0.993  27.787  0.00  0.00    +0.166 C 
ENDROOT
BRANCH   2   8
ATOM      8  C   UNL A   1     -25.688   1.614  26.461  0.00  0.00    +0.160 C 
ATOM      9  C   UNL A   1     -26.250   2.920  26.395  0.00  0.00    +0.093 C 
ATOM     10  C   UNL A   1     -27.438   3.091  25.645  0.00  0.00    +0.163 C 
ATOM     11  N   UNL A   1     -28.075   2.089  25.003  0.00  0.00    -0.234 NA
ATOM     12  C   UNL A   1     -27.543   0.849  25.079  0.00  0.00    +0.238 C 
ATOM     13  C   UNL A   1     -26.354   0.576  25.777  0.00  0.00    +0.294 C 
ATOM     14  F   UNL A   1     -25.860  -0.681  25.795  0.00  0.00    -0.218 F 
BRANCH   9  15
ATOM     15  C   UNL A   1     -25.642   4.093  27.123  0.00  0.00    +0.266 C 
ATOM     16  N   UNL A   1     -25.614   5.252  26.449  0.00  0.00    -0.200 NA
ATOM     17  C   UNL A   1     -25.026   6.479  26.963  0.00  0.00    +0.139 C 
ATOM     18  O   UNL A   1     -25.143   3.966  28.243  0.00  0.00    -0.269 OA
ENDBRANCH   9  15
BRANCH  12  19
ATOM     19  O   UNL A   1     -28.193  -0.208  24.477  0.00  0.00    -0.458 OA
BRANCH  19  20
ATOM     20  C   UNL A   1     -29.460   0.005  23.866  0.00  0.00    +0.242 C 
BRANCH  20  21
ATOM     21  C   UNL A   1     -30.065  -1.377  23.573  0.00  0.00    +0.229 C 
ATOM     22  O   UNL A   1     -30.729  -1.878  24.721  0.00  0.00    -0.216 OA
ENDBRANCH  20  21
ENDBRANCH  19  20
ENDBRANCH  12  19
ENDBRANCH   2   8
BRANCH   1  25
ATOM     23  F   UNL A   1     -22.289   2.382  25.149  0.00  0.00    -0.193 F 
ATOM     24  F   UNL A   1     -23.739   0.978  24.453  0.00  0.00    -0.193 F 
ATOM     25  C   UNL A   1     -23.245   1.626  25.452  0.00  0.00    +0.367 C 
ENDBRANCH   1  25
BRANCH   6  27
ATOM     26  CA  UNL A   1     -28.114   0.274  28.803  0.00  0.00    +0.182 C 
ATOM     27  N   UNL A   1     -26.699   0.018  28.574  0.00  0.00    -0.046 NA
ATOM     28  CB  UNL A   1     -29.098  -0.857  29.212  0.00  0.00    +0.080 C 
BRANCH  26  30
ATOM     29  O   UNL A   1     -28.535   2.423  29.986  0.00  0.00    -0.211 OA
ATOM     30  C   UNL A   1     -28.617   1.728  28.734  0.00  0.00    +0.250 C 
ENDBRANCH  26  30
ENDBRANCH   6  27
BRANCH   5  31
ATOM     31  C   UNL A   1     -24.855  -1.012  30.143  0.00  0.00    +0.068 C 
BRANCH  31  32
ATOM     32  C   UNL A   1     -24.973  -2.505  29.788  0.00  0.00    -0.017 C 
ATOM     33  C   UNL A   1     -23.906  -3.173  29.146  0.00  0.00    -0.004 C 
ATOM     34  C   UNL A   1     -23.989  -4.549  28.853  0.00  0.00    -0.000 C 
ATOM     35  C   UNL A   1     -25.137  -5.280  29.205  0.00  0.00    -0.000 C 
ATOM     36  C   UNL A   1     -26.232  -4.611  29.784  0.00  0.00    -0.000 C 
ATOM     37  C   UNL A   1     -26.155  -3.232  30.065  0.00  0.00    -0.004 C 
ENDBRANCH  31  32
BRANCH  31  38
ATOM     38  C   UNL A   1     -25.387  -0.679  31.571  0.00  0.00    +0.081 C 
ATOM     39  C   UNL A   1     -25.189   0.773  32.028  0.00  0.00    +0.019 C 
ATOM     40  C   UNL A   1     -25.336   0.684  33.544  0.00  0.00    +0.020 C 
ATOM     41  C   UNL A   1     -24.829  -0.715  33.905  0.00  0.00    +0.089 C 
ATOM     42  N   UNL A   1     -24.758  -1.481  32.646  0.00  0.00    -0.219 NA
ENDBRANCH  31  38
ENDBRANCH   5  31
TORSDOF 11
