MODEL 1262
MODEL 1
REMARK VINA RESULT:    -7.498      0.000      0.000
REMARK INTER + INTRA:         -12.378
REMARK INTER:                 -10.128
REMARK INTRA:                  -2.250
REMARK UNBOUND:                -2.250
REMARK  Name = No_1262-gen_results/8p0m/2024-11-27-11-27-31/
REMARK  6 active torsions:
REMARK  status: ('A' for Active; 'I' for Inactive)
REMARK    1  A    between atoms: C_2  and  C_28
REMARK    2  A    between atoms: C_3  and  C_7
REMARK    3  A    between atoms: C_6  and  C_23
REMARK    4  A    between atoms: C_7  and  C_16
REMARK    5  A    between atoms: C_8  and  C_9
REMARK    6  A    between atoms: C_16  and  C_17
REMARK                            x       y       z     vdW  Elec       q    Type
REMARK                         _______ _______ _______ _____ _____    ______ ____
ROOT
ATOM      1  C   UNL A   1      -9.995   0.993  36.687  0.00  0.00    -0.022 C 
ATOM      2  C   UNL A   1      -9.027   1.693  36.899  0.00  0.00    -0.025 C 
ATOM      3  C   UNL A   1      -7.731   1.012  37.212  0.00  0.00    +0.031 C 
ENDROOT
BRANCH   1   6
ATOM      4  C   UNL A   1     -11.647   1.389  34.769  0.00  0.00    +0.006 A 
ATOM      5  C   UNL A   1     -12.579   1.779  34.469  0.00  0.00    +0.080 A 
ATOM      6  C   UNL A   1     -11.277   1.535  36.124  0.00  0.00    -0.004 A 
ATOM      7  C   UNL A   1     -12.088   2.177  37.038  0.00  0.00    +0.004 A 
ATOM      8  C   UNL A   1     -13.620   2.495  35.232  0.00  0.00    +0.011 A 
ATOM      9  C   UNL A   1     -13.305   2.658  36.535  0.00  0.00    +0.054 A 
BRANCH   9  10
ATOM     10  C   UNL A   1     -14.281   3.350  37.487  0.00  0.00    +0.249 C 
ATOM     11  O   UNL A   1     -15.264   2.912  37.860  0.00  0.00    -0.270 OA
ATOM     12  N   UNL A   1     -13.895   4.711  37.765  0.00  0.00    -0.273 N 
ATOM     13  C   UNL A   1     -14.778   5.539  38.597  0.00  0.00    +0.115 C 
ATOM     14  C   UNL A   1     -12.691   5.292  37.317  0.00  0.00    +0.115 C 
ENDBRANCH   9  10
BRANCH   5  15
ATOM     15  C   UNL A   1     -13.097   1.727  32.959  0.00  0.00    +0.388 C 
ATOM     16  O   UNL A   1     -12.533   1.048  32.166  0.00  0.00    -0.241 OA
ATOM     17  O   UNL A   1     -14.047   2.439  32.643  0.00  0.00    -0.241 OA
ENDBRANCH   5  15
ENDBRANCH   1   6
BRANCH   2  18
ATOM     18  C   UNL A   1      -9.051   3.103  36.668  0.00  0.00    -0.004 A 
ATOM     19  C   UNL A   1      -9.125   3.981  37.584  0.00  0.00    -0.000 A 
ATOM     20  C   UNL A   1      -8.959   5.452  37.127  0.00  0.00    -0.000 A 
ATOM     21  C   UNL A   1      -8.792   5.656  35.778  0.00  0.00    -0.000 A 
ATOM     22  C   UNL A   1      -8.635   4.693  34.836  0.00  0.00    -0.000 A 
ATOM     23  C   UNL A   1      -8.660   3.422  35.229  0.00  0.00    -0.000 A 
ENDBRANCH   2  18
BRANCH   1  24
ATOM     24  C   UNL A   1     -10.099  -0.466  36.843  0.00  0.00    +0.052 C 
BRANCH  24  25
ATOM     25  C   UNL A   1     -10.838  -0.973  37.983  0.00  0.00    -0.018 A 
ATOM     26  C   UNL A   1     -10.436  -0.701  39.249  0.00  0.00    -0.004 A 
ATOM     27  C   UNL A   1     -11.026  -1.424  40.346  0.00  0.00    -0.000 A 
ATOM     28  C   UNL A   1     -11.688  -2.137  37.794  0.00  0.00    -0.004 A 
ATOM     29  C   UNL A   1     -12.314  -2.776  38.842  0.00  0.00    -0.000 A 
ATOM     30  C   UNL A   1     -12.005  -2.374  40.152  0.00  0.00    -0.000 A 
ENDBRANCH  24  25
ENDBRANCH   1  24
TORSDOF 6
ENDMDL
ENDMDL
