REMARK  Name = outputs/IAG933/test6/raw/output_1262_IAG933_linker_design_.xyz
REMARK  15 active torsions:
REMARK  status: ('A' for Active; 'I' for Inactive)
REMARK    1  A    between atoms: C_1  and  C_2
REMARK    2  A    between atoms: C_1  and  C_8
REMARK    3  A    between atoms: C_1  and  C_34
REMARK    4  A    between atoms: C_13  and  C_42
REMARK    5  A    between atoms: C_14  and  C_15
REMARK    6  A    between atoms: C_21  and  O_22
REMARK    7  A    between atoms: O_22  and  C_23
REMARK    8  A    between atoms: C_23  and  C_24
REMARK    9  A    between atoms: C_28  and  N_32
REMARK   10  A    between atoms: O_29  and  C_36
REMARK   11  A    between atoms: O_29  and  C_43
REMARK   12  A    between atoms: C_31  and  C_37
REMARK   13  A    between atoms: N_32  and  C_38
REMARK   14  A    between atoms: C_35  and  C_43
REMARK   15  A    between atoms: C_36  and  C_38
REMARK                            x       y       z     vdW  Elec       q    Type
REMARK                         _______ _______ _______ _____ _____    ______ ____
ROOT
ATOM      1  C   UNL A   1     -25.195   0.620  28.442  0.00  0.00    +0.064 C 
ATOM      2  C   UNL A   1     -22.855   0.354  29.366  0.00  0.00    -0.002 C 
ATOM      3  C   UNL A   1     -22.376   1.245  28.307  0.00  0.00    +0.040 C 
ATOM      4  C   UNL A   1     -24.229   0.013  29.380  0.00  0.00    -0.002 C 
ATOM      5  C   UNL A   1     -23.266   1.568  27.285  0.00  0.00    +0.140 C 
ATOM      6  F   UNL A   1     -22.816   2.079  26.083  0.00  0.00    -0.204 F 
ATOM      7  C   UNL A   1     -24.626   1.290  27.424  0.00  0.00    +0.044 C 
ENDROOT
BRANCH   7   8
ATOM      8  C   UNL A   1     -25.688   1.614  26.461  0.00  0.00    +0.042 C 
ATOM      9  C   UNL A   1     -26.250   2.920  26.395  0.00  0.00    +0.077 C 
ATOM     10  C   UNL A   1     -27.438   3.091  25.645  0.00  0.00    +0.107 C 
ATOM     11  N   UNL A   1     -28.075   2.089  25.003  0.00  0.00    -0.208 NA
ATOM     12  C   UNL A   1     -27.543   0.849  25.079  0.00  0.00    +0.253 C 
ATOM     13  C   UNL A   1     -26.354   0.576  25.777  0.00  0.00    +0.193 C 
ATOM     14  F   UNL A   1     -25.860  -0.681  25.795  0.00  0.00    -0.199 F 
BRANCH   9  15
ATOM     15  C   UNL A   1     -25.642   4.093  27.123  0.00  0.00    +0.266 C 
ATOM     16  N   UNL A   1     -25.614   5.252  26.449  0.00  0.00    -0.200 NA
ATOM     17  C   UNL A   1     -25.026   6.479  26.963  0.00  0.00    +0.139 C 
ATOM     18  O   UNL A   1     -25.143   3.966  28.243  0.00  0.00    -0.268 OA
ENDBRANCH   9  15
BRANCH  12  19
ATOM     19  O   UNL A   1     -28.193  -0.208  24.477  0.00  0.00    -0.456 OA
BRANCH  19  20
ATOM     20  C   UNL A   1     -29.460   0.005  23.866  0.00  0.00    +0.243 C 
BRANCH  20  21
ATOM     21  C   UNL A   1     -30.065  -1.377  23.573  0.00  0.00    +0.229 C 
ATOM     22  O   UNL A   1     -30.729  -1.878  24.721  0.00  0.00    -0.216 OA
ENDBRANCH  20  21
ENDBRANCH  19  20
ENDBRANCH  12  19
ENDBRANCH   7   8
BRANCH   3  24
ATOM     23  F   UNL A   1     -20.465   2.432  27.442  0.00  0.00    -0.229 F 
ATOM     24  C   UNL A   1     -20.979   1.577  28.279  0.00  0.00    +0.222 C 
ENDBRANCH   3  24
BRANCH   4  25
ATOM     25  C   UNL A   1     -24.855  -1.012  30.143  0.00  0.00    +0.062 C 
BRANCH  25  26
ATOM     26  C   UNL A   1     -24.973  -2.505  29.788  0.00  0.00    -0.017 C 
ATOM     27  C   UNL A   1     -23.906  -3.173  29.146  0.00  0.00    -0.004 C 
ATOM     28  C   UNL A   1     -23.989  -4.549  28.853  0.00  0.00    -0.000 C 
ATOM     29  C   UNL A   1     -25.137  -5.280  29.205  0.00  0.00    -0.000 C 
ATOM     30  C   UNL A   1     -26.232  -4.611  29.784  0.00  0.00    -0.000 C 
ATOM     31  C   UNL A   1     -26.155  -3.232  30.065  0.00  0.00    -0.004 C 
ENDBRANCH  25  26
BRANCH  25  32
ATOM     32  C   UNL A   1     -25.387  -0.679  31.571  0.00  0.00    +0.081 C 
ATOM     33  C   UNL A   1     -25.189   0.773  32.028  0.00  0.00    +0.019 C 
ATOM     34  C   UNL A   1     -25.336   0.684  33.544  0.00  0.00    +0.020 C 
ATOM     35  C   UNL A   1     -24.829  -0.715  33.905  0.00  0.00    +0.089 C 
ATOM     36  N   UNL A   1     -24.758  -1.481  32.646  0.00  0.00    -0.219 NA
ENDBRANCH  25  32
ENDBRANCH   4  25
BRANCH   1  37
ATOM     37  N   UNL A   1     -26.596   0.399  28.767  0.00  0.00    -0.235 NA
BRANCH  37  38
ATOM     38  C   UNL A   1     -27.473   1.456  29.400  0.00  0.00    +0.144 C 
BRANCH  38  39
ATOM     39  C   UNL A   1     -27.221   2.603  30.443  0.00  0.00    +0.165 C 
BRANCH  39  40
ATOM     40  O   UNL A   1     -27.134   4.123  30.427  0.00  0.00    -0.352 OA
BRANCH  40  41
ATOM     41  C   UNL A   1     -27.571   4.534  31.793  0.00  0.00    +0.142 C 
BRANCH  41  42
ATOM     42  C   UNL A   1     -26.461   4.181  32.798  0.00  0.00    +0.032 C 
ATOM     43  C   UNL A   1     -25.105   4.887  32.479  0.00  0.00    +0.003 C 
ENDBRANCH  41  42
ENDBRANCH  40  41
ENDBRANCH  39  40
ENDBRANCH  38  39
ENDBRANCH  37  38
ENDBRANCH   1  37
TORSDOF 15
