REMARK  Name = No_1263-gen_results/8p0m/2024-11-27-11-27-31/
REMARK  3 active torsions:
REMARK  status: ('A' for Active; 'I' for Inactive)
REMARK    1  A    between atoms: C_2  and  C_7
REMARK    2  A    between atoms: C_11  and  C_14
REMARK    3  A    between atoms: C_17  and  C_18
REMARK                            x       y       z     vdW  Elec       q    Type
REMARK                         _______ _______ _______ _____ _____    ______ ____
ROOT
ATOM      1  C   UNL A   1     -27.106   1.102  27.759  0.00  0.00    +0.000 A 
ATOM      2  C   UNL A   1     -27.858   1.531  27.216  0.00  0.00    +0.000 A 
ATOM      3  C   UNL A   1     -27.843   2.721  26.286  0.00  0.00    +0.000 A 
ATOM      4  C   UNL A   1     -26.622   3.325  26.057  0.00  0.00    +0.005 A 
ATOM      5  C   UNL A   1     -25.485   2.796  26.672  0.00  0.00    +0.056 A 
ATOM      6  C   UNL A   1     -25.622   1.736  27.519  0.00  0.00    +0.005 A 
ENDROOT
BRANCH   1   8
ATOM      7  C   UNL A   1     -28.016  -0.814  28.878  0.00  0.00    +0.030 A 
ATOM      8  C   UNL A   1     -27.064  -0.119  28.608  0.00  0.00    +0.002 A 
ATOM      9  C   UNL A   1     -25.792  -0.430  29.076  0.00  0.00    +0.000 A 
ATOM     10  C   UNL A   1     -25.576  -1.565  29.936  0.00  0.00    +0.002 A 
ATOM     11  C   UNL A   1     -26.735  -2.300  30.217  0.00  0.00    +0.030 A 
ATOM     12  C   UNL A   1     -27.918  -1.954  29.763  0.00  0.00    +0.140 A 
ATOM     13  F   UNL A   1     -28.968  -2.687  30.114  0.00  0.00    -0.204 F 
ENDBRANCH   1   8
BRANCH   5  14
ATOM     14  C   UNL A   1     -24.193   3.437  26.463  0.00  0.00    +0.272 C 
ATOM     15  O   UNL A   1     -24.046   4.586  26.317  0.00  0.00    -0.268 OA
ATOM     16  N   UNL A   1     -23.073   2.600  26.495  0.00  0.00    -0.137 NA
ATOM     17  C   UNL A   1     -22.851   1.568  27.395  0.00  0.00    +0.271 C 
ATOM     18  O   UNL A   1     -23.608   0.842  28.038  0.00  0.00    -0.268 OA
BRANCH  17  19
ATOM     19  C   UNL A   1     -21.428   1.093  27.574  0.00  0.00    +0.055 C 
ATOM     20  C   UNL A   1     -21.236   0.182  28.544  0.00  0.00    -0.021 C 
ATOM     21  C   UNL A   1     -22.318  -0.523  29.123  0.00  0.00    +0.031 C 
ENDBRANCH  17  19
ENDBRANCH   5  14
TORSDOF 3
