MODEL 1263
MODEL 1
REMARK VINA RESULT:    -7.532      0.000      0.000
REMARK INTER + INTRA:          -9.464
REMARK INTER:                  -8.853
REMARK INTRA:                  -0.612
REMARK UNBOUND:                -0.612
REMARK  Name = No_1263-gen_results/8p0m/2024-11-27-11-27-31/
REMARK  3 active torsions:
REMARK  status: ('A' for Active; 'I' for Inactive)
REMARK    1  A    between atoms: C_2  and  C_7
REMARK    2  A    between atoms: C_11  and  C_14
REMARK    3  A    between atoms: C_17  and  C_18
REMARK                            x       y       z     vdW  Elec       q    Type
REMARK                         _______ _______ _______ _____ _____    ______ ____
ROOT
ATOM      1  C   UNL A   1     -23.513  -1.538  28.841  0.00  0.00    +0.000 A 
ATOM      2  C   UNL A   1     -22.640  -1.246  29.283  0.00  0.00    +0.000 A 
ATOM      3  C   UNL A   1     -21.789  -0.018  29.061  0.00  0.00    +0.000 A 
ATOM      4  C   UNL A   1     -22.260   0.919  28.162  0.00  0.00    +0.005 A 
ATOM      5  C   UNL A   1     -23.487   0.692  27.535  0.00  0.00    +0.056 A 
ATOM      6  C   UNL A   1     -24.155  -0.470  27.788  0.00  0.00    +0.005 A 
ENDROOT
BRANCH   1   8
ATOM      7  C   UNL A   1     -24.179  -3.842  28.831  0.00  0.00    +0.030 A 
ATOM      8  C   UNL A   1     -24.422  -2.688  29.098  0.00  0.00    +0.002 A 
ATOM      9  C   UNL A   1     -25.617  -2.328  29.711  0.00  0.00    +0.000 A 
ATOM     10  C   UNL A   1     -26.624  -3.315  30.007  0.00  0.00    +0.002 A 
ATOM     11  C   UNL A   1     -26.271  -4.621  29.643  0.00  0.00    +0.030 A 
ATOM     12  C   UNL A   1     -25.135  -4.906  29.050  0.00  0.00    +0.140 A 
ATOM     13  F   UNL A   1     -24.902  -6.167  28.704  0.00  0.00    -0.204 F 
ENDBRANCH   1   8
BRANCH   5  14
ATOM     14  C   UNL A   1     -23.985   1.656  26.563  0.00  0.00    +0.272 C 
ATOM     15  O   UNL A   1     -24.062   1.453  25.416  0.00  0.00    -0.268 OA
ATOM     16  N   UNL A   1     -24.440   2.876  27.077  0.00  0.00    -0.137 NA
ATOM     17  C   UNL A   1     -25.210   3.044  28.218  0.00  0.00    +0.271 C 
ATOM     18  O   UNL A   1     -25.332   2.384  29.249  0.00  0.00    -0.268 OA
BRANCH  17  19
ATOM     19  C   UNL A   1     -25.978   4.338  28.357  0.00  0.00    +0.055 C 
ATOM     20  C   UNL A   1     -27.100   4.430  27.622  0.00  0.00    -0.021 C 
ATOM     21  C   UNL A   1     -27.693   3.291  27.029  0.00  0.00    +0.031 C 
ENDBRANCH  17  19
ENDBRANCH   5  14
TORSDOF 3
ENDMDL
ENDMDL
