MODEL 1264
MODEL 1
REMARK VINA RESULT:    -6.664      0.000      0.000
REMARK INTER + INTRA:          -8.205
REMARK INTER:                  -7.444
REMARK INTRA:                  -0.761
REMARK UNBOUND:                -0.761
REMARK  Name = No_1264-gen_results/8p0m/2024-11-27-11-27-31/
REMARK  2 active torsions:
REMARK  status: ('A' for Active; 'I' for Inactive)
REMARK    1  A    between atoms: C_3  and  C_4
REMARK    2  A    between atoms: C_10  and  C_14
REMARK                            x       y       z     vdW  Elec       q    Type
REMARK                         _______ _______ _______ _____ _____    ______ ____
ROOT
ATOM      1  C   UNL A   1     -25.066  -1.105  28.820  0.00  0.00    +0.045 C 
ATOM      2  C   UNL A   1     -25.650  -0.321  29.822  0.00  0.00    -0.022 C 
ATOM      3  C   UNL A   1     -25.056  -0.163  30.989  0.00  0.00    +0.002 C 
ATOM      4  C   UNL A   1     -23.673  -0.608  31.179  0.00  0.00    +0.075 C 
ATOM      5  C   UNL A   1     -22.713  -0.192  30.379  0.00  0.00    -0.019 C 
ATOM      6  C   UNL A   1     -23.030   0.534  29.211  0.00  0.00    +0.027 C 
ATOM      7  C   UNL A   1     -23.992  -0.496  28.133  0.00  0.00    +0.013 C 
ENDROOT
BRANCH   1  10
ATOM      8  C   UNL A   1     -23.916  -3.447  28.569  0.00  0.00    -0.004 A 
ATOM      9  C   UNL A   1     -24.098  -4.481  28.654  0.00  0.00    -0.000 A 
ATOM     10  C   UNL A   1     -25.009  -2.550  28.976  0.00  0.00    -0.018 A 
ATOM     11  C   UNL A   1     -25.193  -5.237  29.308  0.00  0.00    -0.000 A 
ATOM     12  C   UNL A   1     -26.265  -4.458  29.728  0.00  0.00    -0.000 A 
ATOM     13  C   UNL A   1     -26.220  -3.085  29.610  0.00  0.00    -0.004 A 
ENDBRANCH   1  10
BRANCH   4  14
ATOM     14  C   UNL A   1     -23.283  -1.289  32.464  0.00  0.00    +0.387 C 
ATOM     15  O   UNL A   1     -24.041  -1.081  33.319  0.00  0.00    -0.241 OA
ATOM     16  O   UNL A   1     -21.988  -1.494  32.666  0.00  0.00    -0.241 OA
ENDBRANCH   4  14
TORSDOF 2
ENDMDL
ENDMDL
