REMARK  Name = outputs/IAG933/test6/raw/output_1264_IAG933_linker_design_.xyz
REMARK  10 active torsions:
REMARK  status: ('A' for Active; 'I' for Inactive)
REMARK    1  A    between atoms: C_1  and  C_2
REMARK    2  A    between atoms: C_1  and  C_8
REMARK    3  A    between atoms: C_1  and  C_44
REMARK    4  A    between atoms: C_13  and  C_28
REMARK    5  A    between atoms: C_14  and  C_15
REMARK    6  A    between atoms: C_21  and  O_22
REMARK    7  A    between atoms: O_22  and  C_23
REMARK    8  A    between atoms: C_23  and  C_24
REMARK    9  A    between atoms: C_31  and  C_33
REMARK   10  A    between atoms: N_42  and  C_44
REMARK                            x       y       z     vdW  Elec       q    Type
REMARK                         _______ _______ _______ _____ _____    ______ ____
ROOT
ATOM      1  C   UNL A   1     -28.262  -0.081  28.680  0.00  0.00    +0.045 C 
ATOM      2  C   UNL A   1     -27.066  -0.177  28.923  0.00  0.00    -0.090 C 
ATOM      3  C   UNL A   1     -25.505   0.005  29.100  0.00  0.00    +0.071 C 
ENDROOT
BRANCH   1   4
ATOM      4  C   UNL A   1     -29.547   0.486  29.048  0.00  0.00    +0.047 C 
ATOM      5  C   UNL A   1     -30.808  -0.238  28.661  0.00  0.00    +0.196 C 
ATOM      6  C   UNL A   1     -32.084   1.491  29.889  0.00  0.00    -0.019 C 
ATOM      7  C   UNL A   1     -30.918   2.202  30.179  0.00  0.00    -0.004 C 
ATOM      8  C   UNL A   1     -29.666   1.699  29.754  0.00  0.00    +0.004 C 
ATOM      9  O   UNL A   1     -30.735  -1.370  27.981  0.00  0.00    -0.287 OA
ATOM     10  C   UNL A   1     -32.040   0.349  29.069  0.00  0.00    +0.038 C 
ATOM     11  C   UNL A   1     -33.417   1.788  30.476  0.00  0.00    +0.031 C 
ENDBRANCH   1   4
BRANCH   3  17
ATOM     12  C   UNL A   1     -24.346   1.592  26.835  0.00  0.00    +0.088 C 
ATOM     13  C   UNL A   1     -23.003   1.722  26.555  0.00  0.00    +0.030 C 
ATOM     14  C   UNL A   1     -23.108   0.605  28.612  0.00  0.00    +0.230 C 
ATOM     15  C   UNL A   1     -22.242   1.171  27.660  0.00  0.00    +0.087 C 
ATOM     16  O   UNL A   1     -22.809   0.352  29.805  0.00  0.00    -0.275 OA
ATOM     17  N   UNL A   1     -24.454   0.595  28.187  0.00  0.00    -0.257 N 
BRANCH  12  18
ATOM     18  C   UNL A   1     -25.688   1.614  26.461  0.00  0.00    +0.089 C 
ATOM     19  C   UNL A   1     -26.250   2.920  26.395  0.00  0.00    +0.056 C 
ATOM     20  C   UNL A   1     -27.438   3.091  25.645  0.00  0.00    +0.102 C 
ATOM     21  N   UNL A   1     -28.075   2.089  25.003  0.00  0.00    -0.212 NA
ATOM     22  C   UNL A   1     -27.543   0.849  25.079  0.00  0.00    +0.234 C 
ATOM     23  C   UNL A   1     -26.354   0.576  25.777  0.00  0.00    +0.242 C 
ATOM     24  F   UNL A   1     -25.860  -0.681  25.795  0.00  0.00    -0.227 F 
BRANCH  19  25
ATOM     25  C   UNL A   1     -25.642   4.093  27.123  0.00  0.00    +0.263 C 
ATOM     26  N   UNL A   1     -25.614   5.252  26.449  0.00  0.00    -0.200 NA
ATOM     27  C   UNL A   1     -25.026   6.479  26.963  0.00  0.00    +0.139 C 
ATOM     28  O   UNL A   1     -25.143   3.966  28.243  0.00  0.00    -0.269 OA
ENDBRANCH  19  25
BRANCH  22  29
ATOM     29  O   UNL A   1     -28.193  -0.208  24.477  0.00  0.00    -0.459 OA
BRANCH  29  30
ATOM     30  C   UNL A   1     -29.460   0.005  23.866  0.00  0.00    +0.242 C 
BRANCH  30  31
ATOM     31  C   UNL A   1     -30.065  -1.377  23.573  0.00  0.00    +0.229 C 
ATOM     32  O   UNL A   1     -30.729  -1.878  24.721  0.00  0.00    -0.216 OA
ENDBRANCH  30  31
ENDBRANCH  29  30
ENDBRANCH  22  29
ENDBRANCH  12  18
ENDBRANCH   3  17
BRANCH   3  33
ATOM     33  C   UNL A   1     -24.855  -1.012  30.143  0.00  0.00    +0.082 C 
BRANCH  33  34
ATOM     34  C   UNL A   1     -24.973  -2.505  29.788  0.00  0.00    -0.015 C 
ATOM     35  C   UNL A   1     -23.906  -3.173  29.146  0.00  0.00    -0.004 C 
ATOM     36  C   UNL A   1     -23.989  -4.549  28.853  0.00  0.00    -0.000 C 
ATOM     37  C   UNL A   1     -25.137  -5.280  29.205  0.00  0.00    -0.000 C 
ATOM     38  C   UNL A   1     -26.232  -4.611  29.784  0.00  0.00    -0.000 C 
ATOM     39  C   UNL A   1     -26.155  -3.232  30.065  0.00  0.00    -0.004 C 
ENDBRANCH  33  34
BRANCH  33  40
ATOM     40  C   UNL A   1     -25.387  -0.679  31.571  0.00  0.00    +0.083 C 
ATOM     41  C   UNL A   1     -25.189   0.773  32.028  0.00  0.00    +0.020 C 
ATOM     42  C   UNL A   1     -25.336   0.684  33.544  0.00  0.00    +0.020 C 
ATOM     43  C   UNL A   1     -24.829  -0.715  33.905  0.00  0.00    +0.089 C 
ATOM     44  N   UNL A   1     -24.758  -1.481  32.646  0.00  0.00    -0.219 NA
ENDBRANCH  33  40
ENDBRANCH   3  33
TORSDOF 10
