REMARK  Name = No_1265-gen_results/8p0m/2024-11-27-11-27-31/
REMARK  4 active torsions:
REMARK  status: ('A' for Active; 'I' for Inactive)
REMARK    1  A    between atoms: C_1  and  C_2
REMARK    2  A    between atoms: C_1  and  C_4
REMARK    3  A    between atoms: C_4  and  C_5
REMARK    4  A    between atoms: C_9  and  C_18
REMARK                            x       y       z     vdW  Elec       q    Type
REMARK                         _______ _______ _______ _____ _____    ______ ____
ROOT
ATOM      1  C   UNL A   1     -27.064  -0.119  28.608  0.00  0.00    +0.058 C 
ATOM      2  N   UNL A   1     -26.985   0.597  27.522  0.00  0.00    -0.275 NA
ATOM      3  C   UNL A   1     -25.835   1.054  26.932  0.00  0.00    +0.058 C 
ATOM      4  C   UNL A   1     -25.780   1.613  25.732  0.00  0.00    +0.016 C 
ATOM      5  C   UNL A   1     -24.565   0.840  27.687  0.00  0.00    +0.020 C 
ATOM      6  C   UNL A   1     -24.603   0.008  28.784  0.00  0.00    +0.021 C 
ATOM      7  C   UNL A   1     -25.747  -0.504  29.247  0.00  0.00    +0.020 C 
ATOM      8  C   UNL A   1     -28.150   0.809  26.763  0.00  0.00    +0.072 C 
ATOM      9  C   UNL A   1     -28.109   1.292  25.421  0.00  0.00    +0.016 C 
ATOM     10  C   UNL A   1     -29.346   1.557  24.793  0.00  0.00    +0.001 C 
ATOM     11  C   UNL A   1     -26.872   1.736  24.955  0.00  0.00    +0.003 C 
ENDROOT
BRANCH   6  12
ATOM     12  C   UNL A   1     -23.569   0.294  29.741  0.00  0.00    -0.044 C 
ATOM     13  C   UNL A   1     -22.384  -0.030  29.806  0.00  0.00    -0.009 C 
ATOM     14  C   UNL A   1     -24.027   1.032  30.996  0.00  0.00    +0.026 C 
ENDBRANCH   6  12
BRANCH   1  15
ATOM     15  C   UNL A   1     -28.016  -0.814  28.878  0.00  0.00    +0.025 C 
BRANCH  15  16
ATOM     16  C   UNL A   1     -28.685  -0.390  30.060  0.00  0.00    +0.105 C 
BRANCH  16  17
ATOM     17  C   UNL A   1     -30.005  -0.671  30.225  0.00  0.00    +0.398 C 
ATOM     18  F   UNL A   1     -30.700   0.176  30.881  0.00  0.00    -0.170 F 
ATOM     19  F   UNL A   1     -30.105  -1.873  30.918  0.00  0.00    -0.170 F 
ATOM     20  F   UNL A   1     -30.726  -0.917  29.101  0.00  0.00    -0.170 F 
ENDBRANCH  16  17
ENDBRANCH  15  16
ENDBRANCH   1  15
TORSDOF 4
