REMARK  Name = No_1266-gen_results/8p0m/2024-11-27-11-27-31/
REMARK  3 active torsions:
REMARK  status: ('A' for Active; 'I' for Inactive)
REMARK    1  A    between atoms: C_5  and  C_7
REMARK    2  A    between atoms: N_9  and  C_10
REMARK    3  A    between atoms: C_11  and  C_12
REMARK                            x       y       z     vdW  Elec       q    Type
REMARK                         _______ _______ _______ _____ _____    ______ ____
ROOT
ATOM      1  C   UNL A   1     -30.375   0.223  26.167  0.00  0.00    +0.138 C 
ATOM      2 CL   UNL A   1     -30.509   0.176  24.582  0.00  0.00    -0.061 Cl
ATOM      3  N   UNL A   1     -31.634   0.137  26.844  0.00  0.00    -0.232 NA
ENDROOT
BRANCH   1   8
ATOM      4  C   UNL A   1     -28.016  -0.814  28.878  0.00  0.00    +0.000 A 
ATOM      5  C   UNL A   1     -27.064  -0.119  28.608  0.00  0.00    +0.000 A 
ATOM      6  C   UNL A   1     -26.972   0.714  27.506  0.00  0.00    +0.000 A 
ATOM      7  C   UNL A   1     -28.105   0.774  26.642  0.00  0.00    +0.002 A 
ATOM      8  C   UNL A   1     -29.201   0.104  27.053  0.00  0.00    +0.029 A 
ATOM      9  C   UNL A   1     -29.210  -0.603  28.185  0.00  0.00    +0.002 A 
ENDBRANCH   1   8
BRANCH   3  10
ATOM     10  C   UNL A   1     -31.741   0.209  28.100  0.00  0.00    +0.100 C 
ATOM     11  C   UNL A   1     -33.029   0.185  28.722  0.00  0.00    +0.021 C 
BRANCH  11  12
ATOM     12  C   UNL A   1     -34.121   0.294  27.939  0.00  0.00    +0.002 C 
ATOM     13  C   UNL A   1     -33.927   0.292  26.534  0.00  0.00    +0.000 C 
ENDBRANCH  11  12
ENDBRANCH   3  10
TORSDOF 3
