MODEL 1266
MODEL 1
REMARK VINA RESULT:    -5.662      0.000      0.000
REMARK INTER + INTRA:          -6.660
REMARK INTER:                  -6.655
REMARK INTRA:                  -0.005
REMARK UNBOUND:                -0.005
REMARK  Name = No_1266-gen_results/8p0m/2024-11-27-11-27-31/
REMARK  3 active torsions:
REMARK  status: ('A' for Active; 'I' for Inactive)
REMARK    1  A    between atoms: C_5  and  C_7
REMARK    2  A    between atoms: N_9  and  C_10
REMARK    3  A    between atoms: C_11  and  C_12
REMARK                            x       y       z     vdW  Elec       q    Type
REMARK                         _______ _______ _______ _____ _____    ______ ____
ROOT
ATOM      1  C   UNL A   1     -23.668  -1.220  29.845  0.00  0.00    +0.138 C 
ATOM      2 CL   UNL A   1     -22.691  -0.774  31.020  0.00  0.00    -0.061 Cl
ATOM      3  N   UNL A   1     -23.643  -0.333  28.721  0.00  0.00    -0.232 NA
ENDROOT
BRANCH   1   8
ATOM      4  C   UNL A   1     -24.568  -4.727  28.904  0.00  0.00    +0.000 A 
ATOM      5  C   UNL A   1     -25.733  -4.740  29.226  0.00  0.00    +0.000 A 
ATOM      6  C   UNL A   1     -26.399  -3.701  29.855  0.00  0.00    +0.000 A 
ATOM      7  C   UNL A   1     -25.652  -2.514  30.113  0.00  0.00    +0.002 A 
ATOM      8  C   UNL A   1     -24.402  -2.478  29.608  0.00  0.00    +0.029 A 
ATOM      9  C   UNL A   1     -23.884  -3.509  28.937  0.00  0.00    +0.002 A 
ENDBRANCH   1   8
BRANCH   3  10
ATOM     10  C   UNL A   1     -24.385  -0.487  27.712  0.00  0.00    +0.100 C 
ATOM     11  C   UNL A   1     -24.362   0.461  26.641  0.00  0.00    +0.021 C 
BRANCH  11  12
ATOM     12  C   UNL A   1     -23.695   1.619  26.824  0.00  0.00    +0.002 C 
ATOM     13  C   UNL A   1     -23.141   2.248  25.680  0.00  0.00    +0.000 C 
ENDBRANCH  11  12
ENDBRANCH   3  10
TORSDOF 3
ENDMDL
ENDMDL
