MODEL 1267
MODEL 1
REMARK VINA RESULT:    -7.817      0.000      0.000
REMARK INTER + INTRA:          -7.817
REMARK INTER:                  -7.817
REMARK INTRA:                   0.000
REMARK UNBOUND:                 0.000
REMARK  Name = No_1267-gen_results/8p0m/2024-11-27-11-27-31/
REMARK  0 active torsions:
REMARK  status: ('A' for Active; 'I' for Inactive)
REMARK                            x       y       z     vdW  Elec       q    Type
REMARK                         _______ _______ _______ _____ _____    ______ ____
ROOT
ATOM      1  C   UNL A   1     -24.464  -1.460  29.996  0.00  0.00    +0.160 A 
ATOM      2  C   UNL A   1     -23.782  -2.017  29.416  0.00  0.00    +0.108 A 
ATOM      3  C   UNL A   1     -25.809  -2.113  30.223  0.00  0.00    +0.036 A 
ATOM      4  C   UNL A   1     -26.015  -3.440  29.789  0.00  0.00    +0.003 A 
ATOM      5  C   UNL A   1     -23.734  -3.398  28.887  0.00  0.00    +0.020 A 
ATOM      6  C   UNL A   1     -24.952  -4.033  29.083  0.00  0.00    +0.002 A 
ATOM      7  N   UNL A   1     -22.363  -1.541  29.109  0.00  0.00    -0.172 NA
ATOM      8  C   UNL A   1     -22.248  -0.313  28.652  0.00  0.00    +0.272 C 
ATOM      9  C   UNL A   1     -23.085   0.333  28.173  0.00  0.00    +0.090 A 
ATOM     10  C   UNL A   1     -22.885   1.792  27.766  0.00  0.00    +0.008 A 
ATOM     11  C   UNL A   1     -23.868   2.617  27.236  0.00  0.00    +0.000 A 
ATOM     12  C   UNL A   1     -25.221   2.109  27.130  0.00  0.00    +0.003 A 
ATOM     13  C   UNL A   1     -25.455   0.799  27.573  0.00  0.00    +0.038 A 
ATOM     14  C   UNL A   1     -24.494  -0.024  28.073  0.00  0.00    +0.150 A 
ATOM     15  O   UNL A   1     -21.001   0.019  28.484  0.00  0.00    -0.268 OA
ATOM     16  O   UNL A   1     -25.093  -1.047  28.595  0.00  0.00    -0.452 OA
ATOM     17  C   UNL A   1     -26.922  -1.569  31.005  0.00  0.00    +0.003 A 
ATOM     18  C   UNL A   1     -28.125  -2.227  31.045  0.00  0.00    +0.000 A 
ATOM     19  C   UNL A   1     -28.247  -3.617  30.611  0.00  0.00    +0.000 A 
ATOM     20  C   UNL A   1     -27.201  -4.168  30.001  0.00  0.00    +0.000 A 
ENDROOT
TORSDOF 0
ENDMDL
ENDMDL
