MODEL 1268
MODEL 1
REMARK VINA RESULT:    -6.904      0.000      0.000
REMARK INTER + INTRA:          -7.384
REMARK INTER:                  -7.308
REMARK INTRA:                  -0.076
REMARK UNBOUND:                -0.076
REMARK  Name = No_1268-gen_results/8p0m/2024-11-27-11-27-31/
REMARK  1 active torsions:
REMARK  status: ('A' for Active; 'I' for Inactive)
REMARK    1  A    between atoms: C_2  and  C_7
REMARK                            x       y       z     vdW  Elec       q    Type
REMARK                         _______ _______ _______ _____ _____    ______ ____
ROOT
ATOM      1  C   UNL A   1     -30.615  -9.741  29.584  0.00  0.00    +0.044 A 
ATOM      2  C   UNL A   1     -30.626 -10.256  28.664  0.00  0.00    +0.083 A 
ATOM      3  C   UNL A   1     -29.786 -10.380  30.676  0.00  0.00    +0.142 A 
ATOM      4  C   UNL A   1     -28.989 -11.504  30.371  0.00  0.00    +0.017 A 
ATOM      5  C   UNL A   1     -29.880 -11.397  28.087  0.00  0.00    +0.006 A 
ATOM      6  C   UNL A   1     -29.101 -12.007  29.061  0.00  0.00    -0.001 A 
ATOM      7  O   UNL A   1     -29.843  -9.852  31.921  0.00  0.00    -0.452 OA
ATOM      8  C   UNL A   1     -29.408 -10.770  32.893  0.00  0.00    +0.165 C 
ATOM      9  C   UNL A   1     -28.325 -11.542  32.796  0.00  0.00    +0.073 C 
ATOM     10  C   UNL A   1     -27.734 -12.283  33.811  0.00  0.00    +0.266 C 
ATOM     11  C   UNL A   1     -28.073 -11.984  31.336  0.00  0.00    +0.064 C 
ATOM     12  N   UNL A   1     -28.550 -12.711  34.836  0.00  0.00    -0.175 NA
ATOM     13  O   UNL A   1     -26.524 -12.532  33.854  0.00  0.00    -0.269 OA
ATOM     14  C   UNL A   1     -29.979 -12.605  34.884  0.00  0.00    +0.240 C 
ATOM     15  C   UNL A   1     -30.212 -10.676  34.125  0.00  0.00    +0.132 C 
ATOM     16  N   UNL A   1     -30.635 -11.584  34.862  0.00  0.00    -0.242 NA
ENDROOT
BRANCH   2  17
ATOM     17  C   UNL A   1     -31.488  -9.593  27.482  0.00  0.00    +0.388 C 
ATOM     18  O   UNL A   1     -32.039 -10.377  26.628  0.00  0.00    -0.241 OA
ATOM     19  O   UNL A   1     -31.294  -8.368  27.258  0.00  0.00    -0.241 OA
ENDBRANCH   2  17
TORSDOF 1
ENDMDL
ENDMDL
