REMARK  Name = outputs/IAG933/test6/raw/output_1268_IAG933_linker_design_.xyz
REMARK  15 active torsions:
REMARK  status: ('A' for Active; 'I' for Inactive)
REMARK    1  A    between atoms: C_1  and  C_2
REMARK    2  A    between atoms: C_1  and  C_8
REMARK    3  A    between atoms: C_1  and  N_36
REMARK    4  A    between atoms: C_13  and  C_42
REMARK    5  A    between atoms: C_14  and  C_15
REMARK    6  A    between atoms: C_21  and  O_22
REMARK    7  A    between atoms: O_22  and  C_23
REMARK    8  A    between atoms: C_23  and  C_24
REMARK    9  A    between atoms: C_28  and  C_35
REMARK   10  A    between atoms: C_28  and  C_37
REMARK   11  A    between atoms: C_30  and  N_36
REMARK   12  A    between atoms: C_35  and  N_40
REMARK   13  A    between atoms: N_36  and  C_39
REMARK   14  A    between atoms: C_37  and  C_39
REMARK   15  A    between atoms: N_40  and  C_43
REMARK                            x       y       z     vdW  Elec       q    Type
REMARK                         _______ _______ _______ _____ _____    ______ ____
ROOT
ATOM      1  C   UNL A   1     -24.327   0.469  28.169  0.00  0.00    +0.029 C 
ATOM      2  C   UNL A   1     -23.158   0.130  28.839  0.00  0.00    +0.067 C 
ATOM      3  C   UNL A   1     -23.384   1.776  26.171  0.00  0.00    +0.001 C 
ATOM      4  C   UNL A   1     -22.005   1.956  26.410  0.00  0.00    -0.000 C 
ATOM      5  C   UNL A   1     -21.331   1.339  27.494  0.00  0.00    -0.004 C 
ATOM      6  C   UNL A   1     -24.479   1.204  27.012  0.00  0.00    +0.012 C 
ATOM      7  C   UNL A   1     -21.856   0.556  28.508  0.00  0.00    -0.020 C 
ENDROOT
BRANCH   6   8
ATOM      8  C   UNL A   1     -25.688   1.614  26.461  0.00  0.00    +0.039 C 
ATOM      9  C   UNL A   1     -26.250   2.920  26.395  0.00  0.00    +0.077 C 
ATOM     10  C   UNL A   1     -27.438   3.091  25.645  0.00  0.00    +0.107 C 
ATOM     11  N   UNL A   1     -28.075   2.089  25.003  0.00  0.00    -0.208 NA
ATOM     12  C   UNL A   1     -27.543   0.849  25.079  0.00  0.00    +0.253 C 
ATOM     13  C   UNL A   1     -26.354   0.576  25.777  0.00  0.00    +0.193 C 
ATOM     14  F   UNL A   1     -25.860  -0.681  25.795  0.00  0.00    -0.199 F 
BRANCH   9  15
ATOM     15  C   UNL A   1     -25.642   4.093  27.123  0.00  0.00    +0.266 C 
ATOM     16  N   UNL A   1     -25.614   5.252  26.449  0.00  0.00    -0.200 NA
ATOM     17  C   UNL A   1     -25.026   6.479  26.963  0.00  0.00    +0.139 C 
ATOM     18  O   UNL A   1     -25.143   3.966  28.243  0.00  0.00    -0.268 OA
ENDBRANCH   9  15
BRANCH  12  19
ATOM     19  O   UNL A   1     -28.193  -0.208  24.477  0.00  0.00    -0.456 OA
BRANCH  19  20
ATOM     20  C   UNL A   1     -29.460   0.005  23.866  0.00  0.00    +0.243 C 
BRANCH  20  21
ATOM     21  C   UNL A   1     -30.065  -1.377  23.573  0.00  0.00    +0.229 C 
ATOM     22  O   UNL A   1     -30.729  -1.878  24.721  0.00  0.00    -0.216 OA
ENDBRANCH  20  21
ENDBRANCH  19  20
ENDBRANCH  12  19
ENDBRANCH   6   8
BRANCH   1  23
ATOM     23  N   UNL A   1     -25.409  -0.245  28.959  0.00  0.00    -0.307 N 
BRANCH  23  24
ATOM     24  C   UNL A   1     -24.855  -1.012  30.143  0.00  0.00    +0.111 C 
BRANCH  24  25
ATOM     25  C   UNL A   1     -24.973  -2.505  29.788  0.00  0.00    -0.003 C 
ATOM     26  C   UNL A   1     -23.906  -3.173  29.146  0.00  0.00    -0.003 C 
ATOM     27  C   UNL A   1     -23.989  -4.549  28.853  0.00  0.00    -0.000 C 
ATOM     28  C   UNL A   1     -25.137  -5.280  29.205  0.00  0.00    -0.000 C 
ATOM     29  C   UNL A   1     -26.232  -4.611  29.784  0.00  0.00    -0.000 C 
ATOM     30  C   UNL A   1     -26.155  -3.232  30.065  0.00  0.00    -0.003 C 
ENDBRANCH  24  25
BRANCH  24  31
ATOM     31  C   UNL A   1     -25.387  -0.679  31.571  0.00  0.00    +0.095 C 
ATOM     32  C   UNL A   1     -25.189   0.773  32.028  0.00  0.00    +0.021 C 
ATOM     33  C   UNL A   1     -25.336   0.684  33.544  0.00  0.00    +0.020 C 
ATOM     34  C   UNL A   1     -24.829  -0.715  33.905  0.00  0.00    +0.089 C 
ATOM     35  N   UNL A   1     -24.758  -1.481  32.646  0.00  0.00    -0.217 NA
ENDBRANCH  24  31
ENDBRANCH  23  24
BRANCH  23  36
ATOM     36  C   UNL A   1     -26.777  -0.465  28.437  0.00  0.00    +0.091 C 
BRANCH  36  37
ATOM     37  C   UNL A   1     -27.774   0.484  29.011  0.00  0.00    +0.023 C 
BRANCH  37  38
ATOM     38  C   UNL A   1     -28.735   0.793  29.903  0.00  0.00    +0.021 C 
BRANCH  38  39
ATOM     39  C   UNL A   1     -29.128   2.125  30.351  0.00  0.00    +0.097 C 
BRANCH  39  40
ATOM     40  N   UNL A   1     -28.838   2.268  31.800  0.00  0.00    -0.130 NA
BRANCH  40  44
ATOM     41  F   UNL A   1     -30.451   3.749  31.735  0.00  0.00    -0.154 F 
ATOM     42  F   UNL A   1     -30.674   1.885  32.791  0.00  0.00    -0.154 F 
ATOM     43  F   UNL A   1     -29.484   3.513  33.589  0.00  0.00    -0.154 F 
ATOM     44  C   UNL A   1     -29.891   2.889  32.513  0.00  0.00    +0.476 C 
ENDBRANCH  40  44
ENDBRANCH  39  40
ENDBRANCH  38  39
ENDBRANCH  37  38
ENDBRANCH  36  37
ENDBRANCH  23  36
ENDBRANCH   1  23
TORSDOF 15
