MODEL 1269
MODEL 1
REMARK VINA RESULT:    -7.306      0.000      0.000
REMARK INTER + INTRA:          -9.256
REMARK INTER:                  -8.588
REMARK INTRA:                  -0.668
REMARK UNBOUND:                -0.668
REMARK  Name = No_1269-gen_results/8p0m/2024-11-27-11-27-31/
REMARK  3 active torsions:
REMARK  status: ('A' for Active; 'I' for Inactive)
REMARK    1  A    between atoms: C_3  and  C_7
REMARK    2  A    between atoms: C_6  and  C_13
REMARK    3  A    between atoms: C_8  and  C_17
REMARK                            x       y       z     vdW  Elec       q    Type
REMARK                         _______ _______ _______ _____ _____    ______ ____
ROOT
ATOM      1  C   UNL A   1     -24.396   0.440  26.954  0.00  0.00    +0.004 A 
ATOM      2  C   UNL A   1     -24.874  -0.618  27.292  0.00  0.00    -0.000 A 
ATOM      3  C   UNL A   1     -24.333  -1.424  28.293  0.00  0.00    +0.000 A 
ATOM      4  C   UNL A   1     -23.099  -1.018  28.937  0.00  0.00    -0.000 A 
ATOM      5  C   UNL A   1     -22.572   0.198  28.504  0.00  0.00    +0.004 A 
ATOM      6  C   UNL A   1     -23.145   0.893  27.540  0.00  0.00    +0.071 A 
ENDROOT
BRANCH   3   7
ATOM      7  C   UNL A   1     -24.868  -2.733  28.767  0.00  0.00    +0.006 A 
ATOM      8  C   UNL A   1     -25.954  -2.818  29.572  0.00  0.00    +0.080 A 
ATOM      9  C   UNL A   1     -26.408  -4.057  30.036  0.00  0.00    +0.007 A 
ATOM     10  C   UNL A   1     -25.768  -5.280  29.649  0.00  0.00    +0.000 A 
ATOM     11  C   UNL A   1     -24.274  -3.984  28.476  0.00  0.00    +0.000 A 
ATOM     12  C   UNL A   1     -24.705  -5.182  28.910  0.00  0.00    +0.000 A 
BRANCH   8  13
ATOM     13  C   UNL A   1     -26.754  -1.609  29.946  0.00  0.00    +0.388 C 
ATOM     14  O   UNL A   1     -27.682  -1.221  29.206  0.00  0.00    -0.241 OA
ATOM     15  O   UNL A   1     -26.659  -1.155  31.134  0.00  0.00    -0.241 OA
ENDBRANCH   8  13
ENDBRANCH   3   7
BRANCH   6  16
ATOM     16  C   UNL A   1     -22.474   2.155  27.109  0.00  0.00    +0.419 C 
ATOM     17  F   UNL A   1     -23.121   3.187  27.428  0.00  0.00    -0.166 F 
ATOM     18  F   UNL A   1     -22.299   2.180  25.809  0.00  0.00    -0.166 F 
ATOM     19  F   UNL A   1     -21.250   2.190  27.756  0.00  0.00    -0.166 F 
ENDBRANCH   6  16
TORSDOF 3
ENDMDL
ENDMDL
