REMARK  Name = outputs/IAG933/test6/raw/output_1269_IAG933_linker_design_.xyz
REMARK  12 active torsions:
REMARK  status: ('A' for Active; 'I' for Inactive)
REMARK    1  A    between atoms: C_1  and  C_2
REMARK    2  A    between atoms: C_1  and  C_8
REMARK    3  A    between atoms: C_1  and  N_37
REMARK    4  A    between atoms: C_13  and  C_33
REMARK    5  A    between atoms: C_14  and  C_15
REMARK    6  A    between atoms: C_21  and  O_22
REMARK    7  A    between atoms: O_22  and  C_23
REMARK    8  A    between atoms: C_23  and  C_24
REMARK    9  A    between atoms: C_31  and  N_37
REMARK   10  A    between atoms: C_34  and  N_39
REMARK   11  A    between atoms: C_34  and  C_40
REMARK   12  A    between atoms: C_40  and  N_41
REMARK                            x       y       z     vdW  Elec       q    Type
REMARK                         _______ _______ _______ _____ _____    ______ ____
ROOT
ATOM      1  N   UNL A   1     -23.419   1.502  26.771  0.00  0.00    -0.196 NA
ATOM      2  C   UNL A   1     -22.587   1.569  27.819  0.00  0.00    +0.147 C 
ATOM      3  N   UNL A   1     -23.215   0.881  28.870  0.00  0.00    -0.182 NA
ATOM      4  C   UNL A   1     -24.460   0.700  28.409  0.00  0.00    +0.173 C 
ATOM      5  C   UNL A   1     -24.505   1.160  27.246  0.00  0.00    +0.134 C 
ATOM      6  C   UNL A   1     -21.062   1.387  27.405  0.00  0.00    +0.038 C 
ENDROOT
BRANCH   5   7
ATOM      7  C   UNL A   1     -25.688   1.614  26.461  0.00  0.00    +0.035 C 
ATOM      8  C   UNL A   1     -26.250   2.920  26.395  0.00  0.00    +0.074 C 
ATOM      9  C   UNL A   1     -27.438   3.091  25.645  0.00  0.00    +0.106 C 
ATOM     10  N   UNL A   1     -28.075   2.089  25.003  0.00  0.00    -0.208 NA
ATOM     11  C   UNL A   1     -27.543   0.849  25.079  0.00  0.00    +0.253 C 
ATOM     12  C   UNL A   1     -26.354   0.576  25.777  0.00  0.00    +0.191 C 
ATOM     13  F   UNL A   1     -25.860  -0.681  25.795  0.00  0.00    -0.200 F 
BRANCH   8  14
ATOM     14  C   UNL A   1     -25.642   4.093  27.123  0.00  0.00    +0.266 C 
ATOM     15  N   UNL A   1     -25.614   5.252  26.449  0.00  0.00    -0.200 NA
ATOM     16  C   UNL A   1     -25.026   6.479  26.963  0.00  0.00    +0.139 C 
ATOM     17  O   UNL A   1     -25.143   3.966  28.243  0.00  0.00    -0.268 OA
ENDBRANCH   8  14
BRANCH  11  18
ATOM     18  O   UNL A   1     -28.193  -0.208  24.477  0.00  0.00    -0.456 OA
BRANCH  18  19
ATOM     19  C   UNL A   1     -29.460   0.005  23.866  0.00  0.00    +0.243 C 
BRANCH  19  20
ATOM     20  C   UNL A   1     -30.065  -1.377  23.573  0.00  0.00    +0.229 C 
ATOM     21  O   UNL A   1     -30.729  -1.878  24.721  0.00  0.00    -0.216 OA
ENDBRANCH  19  20
ENDBRANCH  18  19
ENDBRANCH  11  18
ENDBRANCH   5   7
BRANCH   4  23
ATOM     22  C   UNL A   1     -26.839   0.334  29.104  0.00  0.00    +0.325 C 
ATOM     23  N   UNL A   1     -25.411  -0.097  29.224  0.00  0.00    -0.245 N 
ATOM     24  N   UNL A   1     -27.242   1.650  29.184  0.00  0.00    -0.187 NA
ATOM     25  O   UNL A   1     -27.631  -0.536  28.756  0.00  0.00    -0.251 OA
BRANCH  23  26
ATOM     26  C   UNL A   1     -24.855  -1.012  30.143  0.00  0.00    +0.117 C 
BRANCH  26  27
ATOM     27  C   UNL A   1     -24.973  -2.505  29.788  0.00  0.00    -0.003 C 
ATOM     28  C   UNL A   1     -23.906  -3.173  29.146  0.00  0.00    -0.003 C 
ATOM     29  C   UNL A   1     -23.989  -4.549  28.853  0.00  0.00    -0.000 C 
ATOM     30  C   UNL A   1     -25.137  -5.280  29.205  0.00  0.00    -0.000 C 
ATOM     31  C   UNL A   1     -26.232  -4.611  29.784  0.00  0.00    -0.000 C 
ATOM     32  C   UNL A   1     -26.155  -3.232  30.065  0.00  0.00    -0.003 C 
ENDBRANCH  26  27
BRANCH  26  33
ATOM     33  C   UNL A   1     -25.387  -0.679  31.571  0.00  0.00    +0.095 C 
ATOM     34  C   UNL A   1     -25.189   0.773  32.028  0.00  0.00    +0.021 C 
ATOM     35  C   UNL A   1     -25.336   0.684  33.544  0.00  0.00    +0.020 C 
ATOM     36  C   UNL A   1     -24.829  -0.715  33.905  0.00  0.00    +0.089 C 
ATOM     37  N   UNL A   1     -24.758  -1.481  32.646  0.00  0.00    -0.217 NA
ENDBRANCH  26  33
ENDBRANCH  23  26
BRANCH  24  38
ATOM     38  C   UNL A   1     -28.761   1.915  29.078  0.00  0.00    +0.134 C 
BRANCH  38  39
ATOM     39  C   UNL A   1     -29.118   3.100  28.144  0.00  0.00    +0.096 C 
BRANCH  39  42
ATOM     40  C   UNL A   1     -28.448   5.219  29.534  0.00  0.00    +0.090 C 
ATOM     41  C   UNL A   1     -30.715   5.047  28.632  0.00  0.00    +0.090 C 
ATOM     42  N   UNL A   1     -29.441   4.394  28.825  0.00  0.00    -0.269 NA
ENDBRANCH  39  42
ENDBRANCH  38  39
ENDBRANCH  24  38
ENDBRANCH   4  23
TORSDOF 12
