MODEL 126
MODEL 1
REMARK VINA RESULT:    -6.887      0.000      0.000
REMARK INTER + INTRA:          -7.360
REMARK INTER:                  -7.692
REMARK INTRA:                   0.332
REMARK UNBOUND:                 0.332
REMARK  Name = No_126-gen_results/8p0m/2024-11-27-11-27-31/
REMARK  2 active torsions:
REMARK  status: ('A' for Active; 'I' for Inactive)
REMARK    1  A    between atoms: C_2  and  C_3
REMARK    2  A    between atoms: N_4  and  C_11
REMARK                            x       y       z     vdW  Elec       q    Type
REMARK                         _______ _______ _______ _____ _____    ______ ____
ROOT
ATOM      1  O   UNL A   1     -25.425  -0.677  32.205  0.00  0.00    -0.270 OA
ATOM      2  C   UNL A   1     -25.079  -0.812  31.114  0.00  0.00    +0.253 C 
ATOM      3  N   UNL A   1     -24.387   0.238  30.344  0.00  0.00    -0.257 N 
ATOM      4  C   UNL A   1     -24.222   1.535  31.004  0.00  0.00    +0.120 C 
ENDROOT
BRANCH   3   5
ATOM      5  C   UNL A   1     -23.891   0.062  29.056  0.00  0.00    +0.032 C 
ATOM      6  C   UNL A   1     -22.974  -0.064  28.665  0.00  0.00    -0.011 C 
ATOM      7  C   UNL A   1     -22.100   0.213  28.170  0.00  0.00    +0.053 C 
ATOM      8  C   UNL A   1     -22.002   1.669  27.680  0.00  0.00    -0.021 C 
ATOM      9  C   UNL A   1     -23.091   2.021  27.057  0.00  0.00    -0.005 C 
ATOM     10  C   UNL A   1     -23.739   1.537  26.294  0.00  0.00    -0.004 C 
ATOM     11  C   UNL A   1     -24.788   0.490  26.808  0.00  0.00    -0.020 C 
ATOM     12  C   UNL A   1     -24.765  -0.130  27.940  0.00  0.00    +0.067 C 
ENDBRANCH   3   5
BRANCH   2  13
ATOM     13  C   UNL A   1     -25.161  -2.034  30.478  0.00  0.00    +0.054 A 
ATOM     14  C   UNL A   1     -24.031  -2.750  30.006  0.00  0.00    +0.004 A 
ATOM     15  C   UNL A   1     -26.434  -2.697  30.253  0.00  0.00    +0.004 A 
ATOM     16  C   UNL A   1     -24.184  -3.936  29.253  0.00  0.00    +0.000 A 
ATOM     17  C   UNL A   1     -26.567  -4.000  29.699  0.00  0.00    +0.000 A 
ATOM     18  C   UNL A   1     -25.377  -4.591  29.185  0.00  0.00    +0.000 A 
ENDBRANCH   2  13
TORSDOF 2
ENDMDL
ENDMDL
