REMARK  Name = outputs/IAG933/test6/raw/output_127_IAG933_linker_design_.xyz
REMARK  14 active torsions:
REMARK  status: ('A' for Active; 'I' for Inactive)
REMARK    1  A    between atoms: C_1  and  C_2
REMARK    2  A    between atoms: C_1  and  C_8
REMARK    3  A    between atoms: C_1  and  N_37
REMARK    4  A    between atoms: C_13  and  C_38
REMARK    5  A    between atoms: C_14  and  C_15
REMARK    6  A    between atoms: C_21  and  O_22
REMARK    7  A    between atoms: O_22  and  C_23
REMARK    8  A    between atoms: C_23  and  C_24
REMARK    9  A    between atoms: O_29  and  C_39
REMARK   10  A    between atoms: C_34  and  C_39
REMARK   11  A    between atoms: C_34  and  C_41
REMARK   12  A    between atoms: C_36  and  N_37
REMARK   13  A    between atoms: N_37  and  C_38
REMARK   14  A    between atoms: C_38  and  C_39
REMARK                            x       y       z     vdW  Elec       q    Type
REMARK                         _______ _______ _______ _____ _____    ______ ____
ROOT
ATOM      1  C   UNL A   1     -24.844   1.193  27.618  0.00  0.00    +0.113 C 
ENDROOT
BRANCH   1   2
ATOM      2  C   UNL A   1     -25.688   1.614  26.461  0.00  0.00    +0.091 C 
ATOM      3  C   UNL A   1     -26.250   2.920  26.395  0.00  0.00    +0.057 C 
ATOM      4  C   UNL A   1     -27.438   3.091  25.645  0.00  0.00    +0.102 C 
ATOM      5  N   UNL A   1     -28.075   2.089  25.003  0.00  0.00    -0.212 NA
ATOM      6  C   UNL A   1     -27.543   0.849  25.079  0.00  0.00    +0.234 C 
ATOM      7  C   UNL A   1     -26.354   0.576  25.777  0.00  0.00    +0.242 C 
ATOM      8  F   UNL A   1     -25.860  -0.681  25.795  0.00  0.00    -0.227 F 
BRANCH   3   9
ATOM      9  C   UNL A   1     -25.642   4.093  27.123  0.00  0.00    +0.263 C 
ATOM     10  N   UNL A   1     -25.614   5.252  26.449  0.00  0.00    -0.200 NA
ATOM     11  C   UNL A   1     -25.026   6.479  26.963  0.00  0.00    +0.139 C 
ATOM     12  O   UNL A   1     -25.143   3.966  28.243  0.00  0.00    -0.269 OA
ENDBRANCH   3   9
BRANCH   6  13
ATOM     13  O   UNL A   1     -28.193  -0.208  24.477  0.00  0.00    -0.459 OA
BRANCH  13  14
ATOM     14  C   UNL A   1     -29.460   0.005  23.866  0.00  0.00    +0.242 C 
BRANCH  14  15
ATOM     15  C   UNL A   1     -30.065  -1.377  23.573  0.00  0.00    +0.229 C 
ATOM     16  O   UNL A   1     -30.729  -1.878  24.721  0.00  0.00    -0.216 OA
ENDBRANCH  14  15
ENDBRANCH  13  14
ENDBRANCH   6  13
ENDBRANCH   1   2
BRANCH   1  17
ATOM     17  N   UNL A   1     -25.462   0.033  28.964  0.00  0.00    -0.275 N 
BRANCH  17  23
ATOM     18  C   UNL A   1     -31.086   1.775  27.778  0.00  0.00    +0.031 C 
ATOM     19  C   UNL A   1     -29.962   1.002  28.215  0.00  0.00    -0.023 C 
ATOM     20  C   UNL A   1     -27.496   1.268  28.922  0.00  0.00    +0.053 C 
ATOM     21  C   UNL A   1     -31.427  -0.885  27.934  0.00  0.00    +0.034 C 
ATOM     22  C   UNL A   1     -28.981  -1.352  28.413  0.00  0.00    +0.176 C 
ATOM     23  C   UNL A   1     -26.895  -0.039  28.942  0.00  0.00    +0.199 C 
ATOM     24  C   UNL A   1     -28.810   1.704  28.547  0.00  0.00    +0.000 C 
ATOM     25  O   UNL A   1     -27.618  -1.052  28.627  0.00  0.00    -0.437 OA
ATOM     26  C   UNL A   1     -30.107  -0.405  28.269  0.00  0.00    +0.012 C 
ENDBRANCH  17  23
BRANCH  17  27
ATOM     27  C   UNL A   1     -24.855  -1.012  30.143  0.00  0.00    +0.114 C 
BRANCH  27  28
ATOM     28  C   UNL A   1     -24.973  -2.505  29.788  0.00  0.00    -0.003 C 
ATOM     29  C   UNL A   1     -23.906  -3.173  29.146  0.00  0.00    -0.003 C 
ATOM     30  C   UNL A   1     -23.989  -4.549  28.853  0.00  0.00    -0.000 C 
ATOM     31  C   UNL A   1     -25.137  -5.280  29.205  0.00  0.00    -0.000 C 
ATOM     32  C   UNL A   1     -26.232  -4.611  29.784  0.00  0.00    -0.000 C 
ATOM     33  C   UNL A   1     -26.155  -3.232  30.065  0.00  0.00    -0.003 C 
ENDBRANCH  27  28
BRANCH  27  34
ATOM     34  C   UNL A   1     -25.387  -0.679  31.571  0.00  0.00    +0.095 C 
ATOM     35  C   UNL A   1     -25.189   0.773  32.028  0.00  0.00    +0.021 C 
ATOM     36  C   UNL A   1     -25.336   0.684  33.544  0.00  0.00    +0.020 C 
ATOM     37  C   UNL A   1     -24.829  -0.715  33.905  0.00  0.00    +0.089 C 
ATOM     38  N   UNL A   1     -24.758  -1.481  32.646  0.00  0.00    -0.217 NA
ENDBRANCH  27  34
ENDBRANCH  17  27
ENDBRANCH   1  17
BRANCH   1  39
ATOM     39  C   UNL A   1     -23.519   1.588  27.849  0.00  0.00    +0.174 C 
BRANCH  39  40
ATOM     40  O   UNL A   1     -22.971   1.546  29.465  0.00  0.00    -0.349 OA
ATOM     41  C   UNL A   1     -22.437   0.093  29.025  0.00  0.00    +0.174 C 
ENDBRANCH  39  40
BRANCH  39  42
ATOM     42  C   UNL A   1     -22.343   1.067  27.060  0.00  0.00    +0.270 C 
ATOM     43  O   UNL A   1     -21.193   1.015  27.824  0.00  0.00    -0.209 OA
BRANCH  42  44
ATOM     44  C   UNL A   1     -22.175   1.756  25.715  0.00  0.00    +0.343 C 
ATOM     45  F   UNL A   1     -20.896   1.800  25.298  0.00  0.00    -0.161 F 
ATOM     46  O   UNL A   1     -23.022   2.132  24.944  0.00  0.00    -0.256 OA
ENDBRANCH  42  44
ENDBRANCH  39  42
ENDBRANCH   1  39
TORSDOF 14
