REMARK  Name = outputs/IAG933/test6/raw/output_1270_IAG933_linker_design_.xyz
REMARK  10 active torsions:
REMARK  status: ('A' for Active; 'I' for Inactive)
REMARK    1  A    between atoms: C_1  and  C_2
REMARK    2  A    between atoms: C_1  and  C_8
REMARK    3  A    between atoms: C_1  and  C_34
REMARK    4  A    between atoms: C_13  and  C_37
REMARK    5  A    between atoms: C_14  and  C_15
REMARK    6  A    between atoms: C_21  and  O_22
REMARK    7  A    between atoms: O_22  and  C_23
REMARK    8  A    between atoms: C_23  and  C_24
REMARK    9  A    between atoms: C_29  and  O_31
REMARK   10  A    between atoms: O_31  and  C_33
REMARK                            x       y       z     vdW  Elec       q    Type
REMARK                         _______ _______ _______ _____ _____    ______ ____
ROOT
ATOM      1  N   UNL A   1     -24.792   0.681  28.570  0.00  0.00    -0.162 N 
ATOM      2  C   UNL A   1     -23.166   1.354  26.896  0.00  0.00    +0.176 C 
ATOM      3  F   UNL A   1     -20.801   0.778  27.716  0.00  0.00    -0.219 F 
ATOM      4  C   UNL A   1     -22.189   0.865  27.883  0.00  0.00    +0.296 C 
ATOM      5  C   UNL A   1     -25.663  -0.143  29.061  0.00  0.00    +0.252 C 
ATOM      6  O   UNL A   1     -22.274  -0.293  30.035  0.00  0.00    -0.268 OA
ATOM      7  O   UNL A   1     -26.815  -0.333  28.947  0.00  0.00    -0.273 OA
ATOM      8  C   UNL A   1     -24.514   1.260  27.200  0.00  0.00    +0.110 C 
ATOM      9  N   UNL A   1     -23.901   1.083  29.283  0.00  0.00    -0.101 NA
ATOM     10  C   UNL A   1     -22.808   0.440  29.101  0.00  0.00    +0.300 C 
ENDROOT
BRANCH   8  11
ATOM     11  C   UNL A   1     -25.688   1.614  26.461  0.00  0.00    +0.056 C 
ATOM     12  C   UNL A   1     -26.250   2.920  26.395  0.00  0.00    +0.078 C 
ATOM     13  C   UNL A   1     -27.438   3.091  25.645  0.00  0.00    +0.107 C 
ATOM     14  N   UNL A   1     -28.075   2.089  25.003  0.00  0.00    -0.208 NA
ATOM     15  C   UNL A   1     -27.543   0.849  25.079  0.00  0.00    +0.253 C 
ATOM     16  C   UNL A   1     -26.354   0.576  25.777  0.00  0.00    +0.194 C 
ATOM     17  F   UNL A   1     -25.860  -0.681  25.795  0.00  0.00    -0.199 F 
BRANCH  12  18
ATOM     18  C   UNL A   1     -25.642   4.093  27.123  0.00  0.00    +0.267 C 
ATOM     19  N   UNL A   1     -25.614   5.252  26.449  0.00  0.00    -0.200 NA
ATOM     20  C   UNL A   1     -25.026   6.479  26.963  0.00  0.00    +0.139 C 
ATOM     21  O   UNL A   1     -25.143   3.966  28.243  0.00  0.00    -0.268 OA
ENDBRANCH  12  18
BRANCH  15  22
ATOM     22  O   UNL A   1     -28.193  -0.208  24.477  0.00  0.00    -0.456 OA
BRANCH  22  23
ATOM     23  C   UNL A   1     -29.460   0.005  23.866  0.00  0.00    +0.243 C 
BRANCH  23  24
ATOM     24  C   UNL A   1     -30.065  -1.377  23.573  0.00  0.00    +0.229 C 
ATOM     25  O   UNL A   1     -30.729  -1.878  24.721  0.00  0.00    -0.216 OA
ENDBRANCH  23  24
ENDBRANCH  22  23
ENDBRANCH  15  22
ENDBRANCH   8  11
BRANCH   5  26
ATOM     26  C   UNL A   1     -24.855  -1.012  30.143  0.00  0.00    +0.117 C 
BRANCH  26  27
ATOM     27  C   UNL A   1     -24.973  -2.505  29.788  0.00  0.00    -0.013 C 
ATOM     28  C   UNL A   1     -23.906  -3.173  29.146  0.00  0.00    -0.004 C 
ATOM     29  C   UNL A   1     -23.989  -4.549  28.853  0.00  0.00    -0.000 C 
ATOM     30  C   UNL A   1     -25.137  -5.280  29.205  0.00  0.00    -0.000 C 
ATOM     31  C   UNL A   1     -26.232  -4.611  29.784  0.00  0.00    -0.000 C 
ATOM     32  C   UNL A   1     -26.155  -3.232  30.065  0.00  0.00    -0.004 C 
ENDBRANCH  26  27
BRANCH  26  33
ATOM     33  C   UNL A   1     -25.387  -0.679  31.571  0.00  0.00    +0.086 C 
ATOM     34  C   UNL A   1     -25.189   0.773  32.028  0.00  0.00    +0.020 C 
ATOM     35  C   UNL A   1     -25.336   0.684  33.544  0.00  0.00    +0.020 C 
ATOM     36  C   UNL A   1     -24.829  -0.715  33.905  0.00  0.00    +0.089 C 
ATOM     37  N   UNL A   1     -24.758  -1.481  32.646  0.00  0.00    -0.219 NA
ENDBRANCH  26  33
ENDBRANCH   5  26
BRANCH   2  38
ATOM     38  O   UNL A   1     -22.120   1.623  25.810  0.00  0.00    -0.446 OA
BRANCH  38  39
ATOM     39  C   UNL A   1     -22.756   2.306  24.830  0.00  0.00    +0.391 C 
ATOM     40  O   UNL A   1     -23.714   1.522  24.160  0.00  0.00    -0.167 OA
ENDBRANCH  38  39
ENDBRANCH   2  38
TORSDOF 10
