MODEL 1270
MODEL 1
REMARK VINA RESULT:    -6.749      0.000      0.000
REMARK INTER + INTRA:          -7.469
REMARK INTER:                  -7.143
REMARK INTRA:                  -0.325
REMARK UNBOUND:                -0.325
REMARK  Name = No_1270-gen_results/8p0m/2024-11-27-11-27-31/
REMARK  1 active torsions:
REMARK  status: ('A' for Active; 'I' for Inactive)
REMARK    1  A    between atoms: C_3  and  C_7
REMARK                            x       y       z     vdW  Elec       q    Type
REMARK                         _______ _______ _______ _____ _____    ______ ____
ROOT
ATOM      1  C   UNL A   1     -23.667   0.594  27.563  0.00  0.00    +0.011 A 
ATOM      2  C   UNL A   1     -24.325  -0.372  27.875  0.00  0.00    +0.001 A 
ATOM      3  C   UNL A   1     -23.868  -1.371  28.733  0.00  0.00    +0.000 A 
ATOM      4  C   UNL A   1     -22.513  -1.298  29.244  0.00  0.00    +0.001 A 
ATOM      5  C   UNL A   1     -21.803  -0.148  28.830  0.00  0.00    +0.011 A 
ATOM      6  C   UNL A   1     -22.315   0.736  28.013  0.00  0.00    +0.058 A 
ATOM      7 CL   UNL A   1     -21.337   2.051  27.495  0.00  0.00    -0.082 Cl
ENDROOT
BRANCH   3   8
ATOM      8  C   UNL A   1     -24.622  -2.576  29.169  0.00  0.00    +0.000 A 
ATOM      9  C   UNL A   1     -25.876  -2.556  29.556  0.00  0.00    +0.000 A 
ATOM     10  C   UNL A   1     -26.564  -3.742  29.921  0.00  0.00    +0.000 A 
ATOM     11  C   UNL A   1     -25.993  -4.988  29.523  0.00  0.00    +0.000 A 
ATOM     12  C   UNL A   1     -24.116  -3.880  28.848  0.00  0.00    +0.000 A 
ATOM     13  C   UNL A   1     -24.773  -5.020  29.076  0.00  0.00    +0.000 A 
ENDBRANCH   3   8
TORSDOF 1
ENDMDL
ENDMDL
