REMARK  Name = outputs/IAG933/test6/raw/output_1271_IAG933_linker_design_.xyz
REMARK  15 active torsions:
REMARK  status: ('A' for Active; 'I' for Inactive)
REMARK    1  A    between atoms: C_1  and  C_2
REMARK    2  A    between atoms: C_1  and  C_8
REMARK    3  A    between atoms: C_1  and  C_29
REMARK    4  A    between atoms: C_13  and  C_44
REMARK    5  A    between atoms: C_14  and  C_15
REMARK    6  A    between atoms: C_21  and  O_22
REMARK    7  A    between atoms: O_22  and  C_23
REMARK    8  A    between atoms: C_23  and  C_24
REMARK    9  A    between atoms: N_28  and  C_29
REMARK   10  A    between atoms: N_28  and  C_44
REMARK   11  A    between atoms: C_29  and  N_41
REMARK   12  A    between atoms: C_30  and  C_31
REMARK   13  A    between atoms: C_31  and  C_38
REMARK   14  A    between atoms: C_33  and  C_39
REMARK   15  A    between atoms: C_33  and  C_44
REMARK                            x       y       z     vdW  Elec       q    Type
REMARK                         _______ _______ _______ _____ _____    ______ ____
ROOT
ATOM      1  C   UNL A   1     -25.489  -0.286  28.829  0.00  0.00    +0.173 C 
ENDROOT
BRANCH   1   4
ATOM      2  C   UNL A   1     -28.023   0.088  28.874  0.00  0.00    +0.243 C 
ATOM      3  O   UNL A   1     -28.438  -0.980  29.206  0.00  0.00    -0.273 OA
ATOM      4  N   UNL A   1     -26.745   0.503  29.065  0.00  0.00    -0.189 NA
BRANCH   2   5
ATOM      5  C   UNL A   1     -28.978   1.097  28.121  0.00  0.00    +0.096 C 
BRANCH   5  10
ATOM      6  C   UNL A   1     -28.648   3.409  28.350  0.00  0.00    -0.022 C 
ATOM      7  C   UNL A   1     -31.063   4.829  29.686  0.00  0.00    -0.000 C 
ATOM      8  C   UNL A   1     -31.145   3.505  30.096  0.00  0.00    -0.004 C 
ATOM      9  C   UNL A   1     -30.043   5.379  28.918  0.00  0.00    -0.000 C 
ATOM     10  C   UNL A   1     -29.399   2.269  28.746  0.00  0.00    +0.053 C 
ATOM     11  C   UNL A   1     -28.978   4.693  28.393  0.00  0.00    -0.004 C 
ATOM     12  C   UNL A   1     -30.428   2.384  29.712  0.00  0.00    -0.022 C 
ENDBRANCH   5  10
ENDBRANCH   2   5
ENDBRANCH   1   4
BRANCH   1  13
ATOM     13  C   UNL A   1     -24.855  -1.012  30.143  0.00  0.00    +0.075 C 
BRANCH  13  14
ATOM     14  C   UNL A   1     -24.973  -2.505  29.788  0.00  0.00    -0.018 C 
ATOM     15  C   UNL A   1     -23.906  -3.173  29.146  0.00  0.00    -0.004 C 
ATOM     16  C   UNL A   1     -23.989  -4.549  28.853  0.00  0.00    -0.000 C 
ATOM     17  C   UNL A   1     -25.137  -5.280  29.205  0.00  0.00    -0.000 C 
ATOM     18  C   UNL A   1     -26.232  -4.611  29.784  0.00  0.00    -0.000 C 
ATOM     19  C   UNL A   1     -26.155  -3.232  30.065  0.00  0.00    -0.004 C 
ENDBRANCH  13  14
BRANCH  13  20
ATOM     20  C   UNL A   1     -25.387  -0.679  31.571  0.00  0.00    +0.080 C 
ATOM     21  C   UNL A   1     -25.189   0.773  32.028  0.00  0.00    +0.019 C 
ATOM     22  C   UNL A   1     -25.336   0.684  33.544  0.00  0.00    +0.020 C 
ATOM     23  C   UNL A   1     -24.829  -0.715  33.905  0.00  0.00    +0.089 C 
ATOM     24  N   UNL A   1     -24.758  -1.481  32.646  0.00  0.00    -0.219 NA
ENDBRANCH  13  20
ENDBRANCH   1  13
BRANCH   1  25
ATOM     25  N   UNL A   1     -24.384   0.596  28.097  0.00  0.00    -0.195 NA
BRANCH  25  26
ATOM     26  C   UNL A   1     -24.274   1.270  26.982  0.00  0.00    +0.099 C 
BRANCH  26  27
ATOM     27  C   UNL A   1     -25.688   1.614  26.461  0.00  0.00    +0.032 C 
ATOM     28  C   UNL A   1     -26.250   2.920  26.395  0.00  0.00    +0.074 C 
ATOM     29  C   UNL A   1     -27.438   3.091  25.645  0.00  0.00    +0.106 C 
ATOM     30  N   UNL A   1     -28.075   2.089  25.003  0.00  0.00    -0.208 NA
ATOM     31  C   UNL A   1     -27.543   0.849  25.079  0.00  0.00    +0.253 C 
ATOM     32  C   UNL A   1     -26.354   0.576  25.777  0.00  0.00    +0.190 C 
ATOM     33  F   UNL A   1     -25.860  -0.681  25.795  0.00  0.00    -0.200 F 
BRANCH  28  34
ATOM     34  C   UNL A   1     -25.642   4.093  27.123  0.00  0.00    +0.266 C 
ATOM     35  N   UNL A   1     -25.614   5.252  26.449  0.00  0.00    -0.200 NA
ATOM     36  C   UNL A   1     -25.026   6.479  26.963  0.00  0.00    +0.139 C 
ATOM     37  O   UNL A   1     -25.143   3.966  28.243  0.00  0.00    -0.268 OA
ENDBRANCH  28  34
BRANCH  31  38
ATOM     38  O   UNL A   1     -28.193  -0.208  24.477  0.00  0.00    -0.456 OA
BRANCH  38  39
ATOM     39  C   UNL A   1     -29.460   0.005  23.866  0.00  0.00    +0.243 C 
BRANCH  39  40
ATOM     40  C   UNL A   1     -30.065  -1.377  23.573  0.00  0.00    +0.229 C 
ATOM     41  O   UNL A   1     -30.729  -1.878  24.721  0.00  0.00    -0.216 OA
ENDBRANCH  39  40
ENDBRANCH  38  39
ENDBRANCH  31  38
ENDBRANCH  26  27
BRANCH  26  42
ATOM     42  C   UNL A   1     -23.264   1.713  26.119  0.00  0.00    +0.022 C 
BRANCH  42  44
ATOM     43  C   UNL A   1     -21.631   1.215  28.029  0.00  0.00    +0.000 C 
ATOM     44  C   UNL A   1     -22.092   1.968  26.849  0.00  0.00    +0.002 C 
ENDBRANCH  42  44
ENDBRANCH  26  42
ENDBRANCH  25  26
ENDBRANCH   1  25
TORSDOF 15
