MODEL 1272
MODEL 1
REMARK VINA RESULT:    -7.838      0.000      0.000
REMARK INTER + INTRA:         -10.374
REMARK INTER:                  -8.754
REMARK INTRA:                  -1.620
REMARK UNBOUND:                -1.620
REMARK  Name = No_1272-gen_results/8p0m/2024-11-27-11-27-31/
REMARK  2 active torsions:
REMARK  status: ('A' for Active; 'I' for Inactive)
REMARK    1  A    between atoms: C_1  and  C_8
REMARK    2  A    between atoms: C_19  and  C_27
REMARK                            x       y       z     vdW  Elec       q    Type
REMARK                         _______ _______ _______ _____ _____    ______ ____
ROOT
ATOM      1  C   UNL A   1      -7.675  -0.173  10.118  0.00  0.00    +0.253 C 
ATOM      2  O   UNL A   1      -7.192  -0.902  10.764  0.00  0.00    -0.270 OA
ATOM      3  N   UNL A   1      -8.484   0.880  10.679  0.00  0.00    -0.254 N 
ATOM      4  C   UNL A   1      -9.101   1.952  10.011  0.00  0.00    +0.057 A 
ATOM      5  C   UNL A   1      -9.002   0.663  12.023  0.00  0.00    +0.111 C 
ATOM      6  C   UNL A   1      -8.796   1.641  12.796  0.00  0.00    +0.104 C 
ATOM      7  C   UNL A   1      -8.859   2.202   8.776  0.00  0.00    +0.015 A 
ATOM      8  C   UNL A   1      -9.838   2.870  10.803  0.00  0.00    +0.049 A 
ATOM      9  C   UNL A   1     -10.344   4.039  10.232  0.00  0.00    +0.004 A 
ATOM     10  C   UNL A   1      -9.231   3.539   8.177  0.00  0.00    +0.001 A 
ATOM     11  C   UNL A   1      -9.999   4.356   8.915  0.00  0.00    +0.000 A 
ATOM     12  C   UNL A   1      -9.813   2.752  12.246  0.00  0.00    +0.180 C 
ATOM     13  O   UNL A   1     -10.937   2.851  12.829  0.00  0.00    -0.291 OA
ENDROOT
BRANCH   1  14
ATOM     14  C   UNL A   1      -7.110   0.168   8.777  0.00  0.00    +0.057 C 
ATOM     15  C   UNL A   1      -5.901   0.163   8.744  0.00  0.00    +0.022 C 
ATOM     16  C   UNL A   1      -5.083   1.090   9.365  0.00  0.00    +0.034 C 
ATOM     17  C   UNL A   1      -3.644   1.156   9.275  0.00  0.00    +0.027 C 
ATOM     18  C   UNL A   1      -2.971   0.190   8.490  0.00  0.00    -0.019 A 
ATOM     19  C   UNL A   1      -3.752  -0.793   7.828  0.00  0.00    +0.035 A 
ATOM     20  C   UNL A   1      -5.107  -0.754   7.951  0.00  0.00    +0.192 C 
ATOM     21  C   UNL A   1      -1.525   0.179   8.377  0.00  0.00    -0.004 A 
ATOM     22  C   UNL A   1      -1.025  -1.030   7.811  0.00  0.00    -0.000 A 
ATOM     23  C   UNL A   1      -1.844  -1.853   7.076  0.00  0.00    +0.000 A 
ATOM     24  C   UNL A   1      -3.197  -1.850   7.130  0.00  0.00    +0.003 A 
ATOM     25  O   UNL A   1      -5.849  -1.693   7.337  0.00  0.00    -0.287 OA
ATOM     26  C   UNL A   1      -2.906   2.185   9.964  0.00  0.00    +0.005 C 
ENDBRANCH   1  14
BRANCH   6  27
ATOM     27  C   UNL A   1      -7.464   2.298  12.891  0.00  0.00    -0.013 A 
ATOM     28  C   UNL A   1      -7.116   3.452  12.812  0.00  0.00    -0.004 A 
ATOM     29  C   UNL A   1      -5.771   3.919  13.033  0.00  0.00    -0.000 A 
ATOM     30  C   UNL A   1      -4.787   2.925  13.211  0.00  0.00    -0.000 A 
ATOM     31  C   UNL A   1      -5.118   1.572  13.233  0.00  0.00    -0.000 A 
ATOM     32  C   UNL A   1      -6.416   1.197  13.140  0.00  0.00    -0.004 A 
ENDBRANCH   6  27
TORSDOF 2
ENDMDL
ENDMDL
