MODEL 1273
MODEL 1
REMARK VINA RESULT:    -6.231      0.000      0.000
REMARK INTER + INTRA:          -6.231
REMARK INTER:                  -6.231
REMARK INTRA:                   0.000
REMARK UNBOUND:                 0.000
REMARK  Name = No_1273-gen_results/8p0m/2024-11-27-11-27-31/
REMARK  0 active torsions:
REMARK  status: ('A' for Active; 'I' for Inactive)
REMARK                            x       y       z     vdW  Elec       q    Type
REMARK                         _______ _______ _______ _____ _____    ______ ____
ROOT
ATOM      1  C   UNL A   1     -31.116  -9.725  29.300  0.00  0.00    +0.048 A 
ATOM      2  C   UNL A   1     -30.393  -9.935  30.247  0.00  0.00    +0.140 A 
ATOM      3  C   UNL A   1     -29.500 -10.955  30.308  0.00  0.00    +0.034 A 
ATOM      4  C   UNL A   1     -28.608 -11.224  31.458  0.00  0.00    +0.005 A 
ATOM      5  C   UNL A   1     -27.692 -12.258  31.531  0.00  0.00    +0.000 A 
ATOM      6  C   UNL A   1     -30.789 -10.236  28.151  0.00  0.00    +0.061 A 
ATOM      7  C   UNL A   1     -29.902 -11.241  27.972  0.00  0.00    +0.012 A 
ATOM      8  C   UNL A   1     -29.087 -11.603  29.101  0.00  0.00    +0.004 A 
ATOM      9  C   UNL A   1     -28.841 -10.519  32.705  0.00  0.00    +0.060 A 
ATOM     10  C   UNL A   1     -28.082 -10.817  33.863  0.00  0.00    +0.195 A 
ATOM     11  C   UNL A   1     -27.113 -12.700  32.783  0.00  0.00    +0.003 A 
ATOM     12  C   UNL A   1     -27.299 -11.911  33.926  0.00  0.00    +0.042 A 
ATOM     13  O   UNL A   1     -28.325 -10.143  35.025  0.00  0.00    -0.287 OA
ATOM     14 CL   UNL A   1     -31.796  -9.771  26.748  0.00  0.00    -0.082 Cl
ATOM     15  O   UNL A   1     -30.663  -9.331  31.503  0.00  0.00    -0.470 OA
ATOM     16  C   UNL A   1     -29.937  -9.508  32.675  0.00  0.00    +0.235 C 
ENDROOT
TORSDOF 0
ENDMDL
ENDMDL
