MODEL 1274
MODEL 1
REMARK VINA RESULT:    -7.335      0.000      0.000
REMARK INTER + INTRA:         -12.179
REMARK INTER:                  -9.907
REMARK INTRA:                  -2.272
REMARK UNBOUND:                -2.272
REMARK  Name = No_1274-gen_results/8p0m/2024-11-27-11-27-31/
REMARK  6 active torsions:
REMARK  status: ('A' for Active; 'I' for Inactive)
REMARK    1  A    between atoms: C_2  and  C_3
REMARK    2  A    between atoms: C_5  and  C_21
REMARK    3  A    between atoms: C_9  and  C_15
REMARK    4  A    between atoms: C_12  and  C_25
REMARK    5  A    between atoms: C_14  and  C_28
REMARK    6  A    between atoms: C_21  and  C_22
REMARK                            x       y       z     vdW  Elec       q    Type
REMARK                         _______ _______ _______ _____ _____    ______ ____
ROOT
ATOM      1  C   UNL A   1     -25.621  -0.418  29.811  0.00  0.00    +0.050 A 
ATOM      2  C   UNL A   1     -25.381   0.769  30.372  0.00  0.00    -0.013 A 
ATOM      3  C   UNL A   1     -24.554   0.972  31.555  0.00  0.00    -0.004 A 
ATOM      4  C   UNL A   1     -23.633  -0.081  31.773  0.00  0.00    -0.000 A 
ATOM      5  C   UNL A   1     -23.789  -1.307  31.139  0.00  0.00    +0.000 A 
ATOM      6  C   UNL A   1     -24.710  -1.474  30.154  0.00  0.00    +0.004 A 
ENDROOT
BRANCH   1   8
ATOM      7  O   UNL A   1     -27.615  -0.659  28.884  0.00  0.00    -0.270 OA
ATOM      8  C   UNL A   1     -26.489  -0.462  28.739  0.00  0.00    +0.249 C 
ATOM      9  N   UNL A   1     -25.888  -0.092  27.444  0.00  0.00    -0.275 N 
ATOM     10  C   UNL A   1     -26.767  -0.057  26.306  0.00  0.00    +0.102 C 
ATOM     11  C   UNL A   1     -24.547   0.208  27.281  0.00  0.00    +0.105 C 
ATOM     12  C   UNL A   1     -24.177   1.115  26.806  0.00  0.00    +0.124 C 
ATOM     13  C   UNL A   1     -24.701   1.447  25.379  0.00  0.00    +0.022 C 
ATOM     14  C   UNL A   1     -26.248   1.206  25.460  0.00  0.00    +0.085 C 
BRANCH  12  15
ATOM     15  C   UNL A   1     -22.809   1.833  26.895  0.00  0.00    +0.366 C 
ATOM     16  O   UNL A   1     -22.131   2.152  25.970  0.00  0.00    -0.246 OA
ATOM     17  O   UNL A   1     -22.489   2.219  28.148  0.00  0.00    -0.246 OA
ENDBRANCH  12  15
BRANCH  14  18
ATOM     18  C   UNL A   1     -27.205   1.982  24.775  0.00  0.00    +0.209 C 
ATOM     19  O   UNL A   1     -27.184   3.126  25.005  0.00  0.00    -0.288 OA
ENDBRANCH  14  18
ENDBRANCH   1   8
BRANCH   6  20
ATOM     20  C   UNL A   1     -24.841  -2.810  29.596  0.00  0.00    +0.000 A 
ATOM     21  C   UNL A   1     -25.890  -3.508  30.049  0.00  0.00    +0.000 A 
ATOM     22  C   UNL A   1     -26.086  -4.867  29.621  0.00  0.00    +0.000 A 
ATOM     23  C   UNL A   1     -25.093  -5.450  28.843  0.00  0.00    +0.000 A 
ATOM     24  C   UNL A   1     -23.877  -3.393  28.892  0.00  0.00    +0.000 A 
ATOM     25  C   UNL A   1     -23.997  -4.690  28.480  0.00  0.00    +0.000 A 
ENDBRANCH   6  20
BRANCH   2  26
ATOM     26  C   UNL A   1     -26.276   1.989  30.149  0.00  0.00    +0.052 C 
BRANCH  26  27
ATOM     27  C   UNL A   1     -26.044   3.017  29.415  0.00  0.00    -0.026 C 
ATOM     28  C   UNL A   1     -26.690   3.388  28.534  0.00  0.00    -0.030 C 
ATOM     29  C   UNL A   1     -28.081   2.952  28.320  0.00  0.00    +0.030 C 
ENDBRANCH  26  27
ENDBRANCH   2  26
TORSDOF 6
ENDMDL
ENDMDL
