MODEL 1275
MODEL 1
REMARK VINA RESULT:    -4.294      0.000      0.000
REMARK INTER + INTRA:          -4.294
REMARK INTER:                  -4.294
REMARK INTRA:                   0.000
REMARK UNBOUND:                 0.000
REMARK  Name = No_1275-gen_results/8p0m/2024-11-27-11-27-31/
REMARK  0 active torsions:
REMARK  status: ('A' for Active; 'I' for Inactive)
REMARK                            x       y       z     vdW  Elec       q    Type
REMARK                         _______ _______ _______ _____ _____    ______ ____
ROOT
ATOM      1  C   UNL A   1     -24.953  -5.404  28.979  0.00  0.00    +0.000 A 
ATOM      2  C   UNL A   1     -24.185  -4.724  28.737  0.00  0.00    +0.000 A 
ATOM      3  C   UNL A   1     -26.130  -4.772  29.575  0.00  0.00    +0.000 A 
ATOM      4  C   UNL A   1     -26.210  -3.415  29.770  0.00  0.00    +0.000 A 
ATOM      5  C   UNL A   1     -23.997  -3.276  28.824  0.00  0.00    +0.000 A 
ATOM      6  C   UNL A   1     -25.131  -2.654  29.399  0.00  0.00    +0.000 A 
ENDROOT
TORSDOF 0
ENDMDL
ENDMDL
