MODEL 1276
MODEL 1
REMARK VINA RESULT:    -4.674      0.000      0.000
REMARK INTER + INTRA:          -4.974
REMARK INTER:                  -4.947
REMARK INTRA:                  -0.026
REMARK UNBOUND:                -0.026
REMARK  Name = No_1276-gen_results/8p0m/2024-11-27-11-27-31/
REMARK  1 active torsions:
REMARK  status: ('A' for Active; 'I' for Inactive)
REMARK    1  A    between atoms: C_2  and  O_7
REMARK                            x       y       z     vdW  Elec       q    Type
REMARK                         _______ _______ _______ _____ _____    ______ ____
ROOT
ATOM      1  C   UNL A   1     -25.142  -2.538  29.528  0.00  0.00    +0.037 A 
ATOM      2  C   UNL A   1     -24.127  -3.016  29.074  0.00  0.00    +0.139 A 
ATOM      3  C   UNL A   1     -24.040  -4.373  28.784  0.00  0.00    +0.037 A 
ATOM      4  C   UNL A   1     -25.141  -5.261  29.058  0.00  0.00    +0.003 A 
ATOM      5  C   UNL A   1     -26.265  -4.629  29.604  0.00  0.00    +0.000 A 
ATOM      6  C   UNL A   1     -26.291  -3.344  29.875  0.00  0.00    +0.003 A 
ENDROOT
BRANCH   2   7
ATOM      7  O   UNL A   1     -22.981  -2.308  28.815  0.00  0.00    -0.471 OA
ATOM      8  C   UNL A   1     -22.891  -1.028  29.194  0.00  0.00    +0.253 C 
ENDBRANCH   2   7
TORSDOF 1
ENDMDL
ENDMDL
