REMARK  Name = outputs/IAG933/test6/raw/output_1277_IAG933_linker_design_.xyz
REMARK  18 active torsions:
REMARK  status: ('A' for Active; 'I' for Inactive)
REMARK    1  A    between atoms: C_1  and  C_2
REMARK    2  A    between atoms: C_1  and  C_8
REMARK    3  A    between atoms: C_1  and  C_36
REMARK    4  A    between atoms: C_13  and  N_39
REMARK    5  A    between atoms: C_14  and  C_15
REMARK    6  A    between atoms: C_21  and  O_22
REMARK    7  A    between atoms: O_22  and  C_23
REMARK    8  A    between atoms: C_23  and  C_24
REMARK    9  A    between atoms: C_28  and  N_39
REMARK   10  A    between atoms: C_30  and  O_32
REMARK   11  A    between atoms: C_30  and  C_40
REMARK   12  A    between atoms: O_32  and  C_33
REMARK   13  A    between atoms: C_33  and  C_34
REMARK   14  A    between atoms: C_34  and  N_38
REMARK   15  A    between atoms: C_36  and  N_38
REMARK   16  A    between atoms: C_36  and  C_41
REMARK   17  A    between atoms: C_40  and  O_45
REMARK   18  A    between atoms: C_43  and  C_44
REMARK                            x       y       z     vdW  Elec       q    Type
REMARK                         _______ _______ _______ _____ _____    ______ ____
ROOT
ATOM      1  C   UNL A   1     -23.462   1.135  27.781  0.00  0.00    +0.089 C 
ATOM      2  N   UNL A   1     -22.232  -0.028  29.383  0.00  0.00    -0.169 NA
ATOM      3  N   UNL A   1     -21.428   0.704  28.609  0.00  0.00    -0.150 NA
ATOM      4  C   UNL A   1     -23.425   0.330  29.000  0.00  0.00    +0.179 C 
ATOM      5  C   UNL A   1     -22.175   1.390  27.672  0.00  0.00    +0.159 C 
ENDROOT
BRANCH   5   7
ATOM      6  F   UNL A   1     -21.826   1.948  25.530  0.00  0.00    -0.191 F 
ATOM      7  C   UNL A   1     -21.455   2.142  26.790  0.00  0.00    +0.361 C 
ATOM      8  F   UNL A   1     -20.609   2.880  27.263  0.00  0.00    -0.191 F 
ENDBRANCH   5   7
BRANCH   4   9
ATOM      9  C   UNL A   1     -24.490   0.145  29.510  0.00  0.00    +0.108 C 
BRANCH   9  10
ATOM     10  C   UNL A   1     -24.855  -1.012  30.143  0.00  0.00    +0.057 C 
BRANCH  10  11
ATOM     11  C   UNL A   1     -24.973  -2.505  29.788  0.00  0.00    -0.020 C 
ATOM     12  C   UNL A   1     -23.906  -3.173  29.146  0.00  0.00    -0.004 C 
ATOM     13  C   UNL A   1     -23.989  -4.549  28.853  0.00  0.00    -0.000 C 
ATOM     14  C   UNL A   1     -25.137  -5.280  29.205  0.00  0.00    -0.000 C 
ATOM     15  C   UNL A   1     -26.232  -4.611  29.784  0.00  0.00    -0.000 C 
ATOM     16  C   UNL A   1     -26.155  -3.232  30.065  0.00  0.00    -0.004 C 
ENDBRANCH  10  11
BRANCH  10  17
ATOM     17  C   UNL A   1     -25.387  -0.679  31.571  0.00  0.00    +0.078 C 
ATOM     18  C   UNL A   1     -25.189   0.773  32.028  0.00  0.00    +0.019 C 
ATOM     19  C   UNL A   1     -25.336   0.684  33.544  0.00  0.00    +0.020 C 
ATOM     20  C   UNL A   1     -24.829  -0.715  33.905  0.00  0.00    +0.089 C 
ATOM     21  N   UNL A   1     -24.758  -1.481  32.646  0.00  0.00    -0.219 NA
ENDBRANCH  10  17
ENDBRANCH   9  10
BRANCH   9  22
ATOM     22  N   UNL A   1     -25.413   1.103  29.323  0.00  0.00    -0.215 NA
BRANCH  22  24
ATOM     23  C   UNL A   1     -27.514  -0.471  28.695  0.00  0.00    +0.021 C 
ATOM     24  C   UNL A   1     -26.886   0.883  29.203  0.00  0.00    +0.102 C 
BRANCH  24  25
ATOM     25  C   UNL A   1     -27.508   2.108  29.946  0.00  0.00    +0.160 C 
BRANCH  25  26
ATOM     26  O   UNL A   1     -28.554   1.621  30.809  0.00  0.00    -0.350 OA
BRANCH  26  27
ATOM     27  C   UNL A   1     -29.250   0.527  30.169  0.00  0.00    +0.174 C 
BRANCH  27  28
ATOM     28  C   UNL A   1     -29.585   0.940  28.781  0.00  0.00    +0.174 C 
BRANCH  28  30
ATOM     29  C   UNL A   1     -31.048  -0.287  27.810  0.00  0.00    +0.174 C 
ATOM     30  O   UNL A   1     -29.735  -0.236  27.855  0.00  0.00    -0.348 OA
ENDBRANCH  28  30
ENDBRANCH  27  28
ENDBRANCH  26  27
ENDBRANCH  25  26
ENDBRANCH  24  25
ENDBRANCH  22  24
ENDBRANCH   9  22
ENDBRANCH   4   9
BRANCH   1  31
ATOM     31  N   UNL A   1     -24.355   1.547  26.849  0.00  0.00    -0.232 NA
BRANCH  31  32
ATOM     32  C   UNL A   1     -25.688   1.614  26.461  0.00  0.00    +0.162 C 
ATOM     33  C   UNL A   1     -26.250   2.920  26.395  0.00  0.00    +0.075 C 
ATOM     34  C   UNL A   1     -27.438   3.091  25.645  0.00  0.00    +0.104 C 
ATOM     35  N   UNL A   1     -28.075   2.089  25.003  0.00  0.00    -0.212 NA
ATOM     36  C   UNL A   1     -27.543   0.849  25.079  0.00  0.00    +0.236 C 
ATOM     37  C   UNL A   1     -26.354   0.576  25.777  0.00  0.00    +0.260 C 
ATOM     38  F   UNL A   1     -25.860  -0.681  25.795  0.00  0.00    -0.225 F 
BRANCH  33  39
ATOM     39  C   UNL A   1     -25.642   4.093  27.123  0.00  0.00    +0.264 C 
ATOM     40  N   UNL A   1     -25.614   5.252  26.449  0.00  0.00    -0.200 NA
ATOM     41  C   UNL A   1     -25.026   6.479  26.963  0.00  0.00    +0.139 C 
ATOM     42  O   UNL A   1     -25.143   3.966  28.243  0.00  0.00    -0.269 OA
ENDBRANCH  33  39
BRANCH  36  43
ATOM     43  O   UNL A   1     -28.193  -0.208  24.477  0.00  0.00    -0.459 OA
BRANCH  43  44
ATOM     44  C   UNL A   1     -29.460   0.005  23.866  0.00  0.00    +0.242 C 
BRANCH  44  45
ATOM     45  C   UNL A   1     -30.065  -1.377  23.573  0.00  0.00    +0.229 C 
ATOM     46  O   UNL A   1     -30.729  -1.878  24.721  0.00  0.00    -0.216 OA
ENDBRANCH  44  45
ENDBRANCH  43  44
ENDBRANCH  36  43
ENDBRANCH  31  32
ENDBRANCH   1  31
TORSDOF 18
