MODEL 1278
MODEL 1
REMARK VINA RESULT:    -6.372      0.000      0.000
REMARK INTER + INTRA:          -7.480
REMARK INTER:                  -7.117
REMARK INTRA:                  -0.362
REMARK UNBOUND:                -0.362
REMARK  Name = No_1278-gen_results/8p0m/2024-11-27-11-27-31/
REMARK  2 active torsions:
REMARK  status: ('A' for Active; 'I' for Inactive)
REMARK    1  A    between atoms: C_1  and  C_2
REMARK    2  A    between atoms: C_5  and  C_10
REMARK                            x       y       z     vdW  Elec       q    Type
REMARK                         _______ _______ _______ _____ _____    ______ ____
ROOT
ATOM      1  C   UNL A   1     -29.451 -11.012  30.065  0.00  0.00    +0.018 A 
ATOM      2  C   UNL A   1     -28.434 -11.871  30.466  0.00  0.00    +0.002 A 
ATOM      3  C   UNL A   1     -27.886 -12.003  31.846  0.00  0.00    +0.008 A 
ATOM      4  C   UNL A   1     -28.352 -11.047  32.796  0.00  0.00    +0.098 A 
ATOM      5  C   UNL A   1     -29.340 -10.146  32.353  0.00  0.00    +0.008 A 
ATOM      6  C   UNL A   1     -29.833 -10.110  31.106  0.00  0.00    +0.002 A 
ENDROOT
BRANCH   1   7
ATOM      7  C   UNL A   1     -29.831 -10.987  28.917  0.00  0.00    +0.081 A 
ATOM      8  C   UNL A   1     -29.090 -11.954  28.019  0.00  0.00    +0.019 A 
ATOM      9  C   UNL A   1     -29.388 -11.975  26.624  0.00  0.00    +0.003 A 
ATOM     10  C   UNL A   1     -30.362 -11.221  26.213  0.00  0.00    +0.021 A 
ATOM     11  C   UNL A   1     -31.044 -10.364  26.825  0.00  0.00    +0.099 A 
ATOM     12  N   UNL A   1     -30.745 -10.289  28.203  0.00  0.00    -0.244 NA
ENDBRANCH   1   7
BRANCH   4  13
ATOM     13  C   UNL A   1     -27.787 -11.130  34.123  0.00  0.00    +0.477 C 
ATOM     14  N   UNL A   1     -27.883 -10.096  34.982  0.00  0.00    +0.205 NA
ATOM     15  N   UNL A   1     -27.471 -12.354  34.587  0.00  0.00    +0.205 NA
ENDBRANCH   4  13
TORSDOF 2
ENDMDL
ENDMDL
