MODEL 1279
MODEL 1
REMARK VINA RESULT:    -4.509      0.000      0.000
REMARK INTER + INTRA:          -4.773
REMARK INTER:                  -4.773
REMARK INTRA:                   0.000
REMARK UNBOUND:                 0.000
REMARK  Name = No_1279-gen_results/8p0m/2024-11-27-11-27-31/
REMARK  1 active torsions:
REMARK  status: ('A' for Active; 'I' for Inactive)
REMARK    1  A    between atoms: C_1  and  C_2
REMARK                            x       y       z     vdW  Elec       q    Type
REMARK                         _______ _______ _______ _____ _____    ______ ____
ROOT
ATOM      1  C   UNL A   1      -8.570  -9.342  20.016  0.00  0.00    +0.442 C 
ATOM      2  F   UNL A   1      -8.072  -8.213  20.052  0.00  0.00    -0.166 F 
ATOM      3  F   UNL A   1      -9.778  -9.247  20.689  0.00  0.00    -0.166 F 
ATOM      4  F   UNL A   1      -7.730 -10.104  20.809  0.00  0.00    -0.166 F 
ENDROOT
BRANCH   1   5
ATOM      5  C   UNL A   1      -8.604  -9.815  18.904  0.00  0.00    +0.334 C 
ATOM      6 CL   UNL A   1     -10.183 -10.070  18.171  0.00  0.00    -0.068 Cl
ATOM      7  F   UNL A   1      -8.038 -11.207  18.879  0.00  0.00    -0.210 F 
ENDBRANCH   1   5
TORSDOF 1
ENDMDL
ENDMDL
