MODEL 127
MODEL 1
REMARK VINA RESULT:    -5.578      0.000      0.000
REMARK INTER + INTRA:          -6.933
REMARK INTER:                  -6.556
REMARK INTRA:                  -0.378
REMARK UNBOUND:                -0.378
REMARK  Name = No_127-gen_results/8p0m/2024-11-27-11-27-31/
REMARK  3 active torsions:
REMARK  status: ('A' for Active; 'I' for Inactive)
REMARK    1  A    between atoms: C_2  and  C_8
REMARK    2  A    between atoms: C_8  and  O_10
REMARK    3  A    between atoms: O_10  and  C_11
REMARK                            x       y       z     vdW  Elec       q    Type
REMARK                         _______ _______ _______ _____ _____    ______ ____
ROOT
ATOM      1  C   UNL A   1     -24.203  -0.015  27.424  0.00  0.00    +0.018 A 
ATOM      2  C   UNL A   1     -23.275  -0.102  28.194  0.00  0.00    +0.077 A 
ATOM      3  C   UNL A   1     -22.237   0.823  28.177  0.00  0.00    +0.006 A 
ATOM      4  C   UNL A   1     -22.212   1.890  27.210  0.00  0.00    +0.001 A 
ATOM      5  C   UNL A   1     -23.312   1.903  26.342  0.00  0.00    +0.011 A 
ATOM      6  C   UNL A   1     -24.259   0.994  26.389  0.00  0.00    +0.058 A 
ATOM      7 CL   UNL A   1     -25.520   1.075  25.247  0.00  0.00    -0.082 Cl
ENDROOT
BRANCH   2   8
ATOM      8  C   UNL A   1     -23.119  -1.159  29.240  0.00  0.00    +0.345 C 
ATOM      9  O   UNL A   1     -22.735  -0.918  30.219  0.00  0.00    -0.244 OA
BRANCH   8  10
ATOM     10  O   UNL A   1     -23.370  -2.468  28.857  0.00  0.00    -0.425 OA
BRANCH  10  11
ATOM     11  C   UNL A   1     -24.023  -3.304  29.194  0.00  0.00    +0.127 C 
ATOM     12  C   UNL A   1     -24.075  -4.513  28.400  0.00  0.00    +0.036 C 
ATOM     13  C   UNL A   1     -25.512  -3.069  29.543  0.00  0.00    +0.073 C 
ENDBRANCH  10  11
ENDBRANCH   8  10
ENDBRANCH   2   8
TORSDOF 3
ENDMDL
ENDMDL
