REMARK  Name = outputs/IAG933/test6/raw/output_128_IAG933_linker_design_.xyz
REMARK  13 active torsions:
REMARK  status: ('A' for Active; 'I' for Inactive)
REMARK    1  A    between atoms: C_1  and  C_2
REMARK    2  A    between atoms: C_1  and  C_8
REMARK    3  A    between atoms: C_1  and  C_40
REMARK    4  A    between atoms: C_13  and  C_32
REMARK    5  A    between atoms: C_14  and  C_15
REMARK    6  A    between atoms: C_21  and  O_22
REMARK    7  A    between atoms: O_22  and  C_23
REMARK    8  A    between atoms: C_23  and  C_24
REMARK    9  A    between atoms: C_35  and  O_37
REMARK   10  A    between atoms: N_39  and  C_43
REMARK   11  A    between atoms: C_40  and  N_41
REMARK   12  A    between atoms: C_40  and  C_43
REMARK   13  A    between atoms: N_41  and  C_46
REMARK                            x       y       z     vdW  Elec       q    Type
REMARK                         _______ _______ _______ _____ _____    ______ ____
ROOT
ATOM      1  C   UNL A   1     -25.972  -0.073  29.330  0.00  0.00    +0.113 C 
ENDROOT
BRANCH   1   2
ATOM      2  C   UNL A   1     -24.855  -1.012  30.143  0.00  0.00    +0.060 C 
BRANCH   2   3
ATOM      3  C   UNL A   1     -24.973  -2.505  29.788  0.00  0.00    -0.019 C 
ATOM      4  C   UNL A   1     -23.906  -3.173  29.146  0.00  0.00    -0.004 C 
ATOM      5  C   UNL A   1     -23.989  -4.549  28.853  0.00  0.00    -0.000 C 
ATOM      6  C   UNL A   1     -25.137  -5.280  29.205  0.00  0.00    -0.000 C 
ATOM      7  C   UNL A   1     -26.232  -4.611  29.784  0.00  0.00    -0.000 C 
ATOM      8  C   UNL A   1     -26.155  -3.232  30.065  0.00  0.00    -0.004 C 
ENDBRANCH   2   3
BRANCH   2   9
ATOM      9  C   UNL A   1     -25.387  -0.679  31.571  0.00  0.00    +0.079 C 
ATOM     10  C   UNL A   1     -25.189   0.773  32.028  0.00  0.00    +0.019 C 
ATOM     11  C   UNL A   1     -25.336   0.684  33.544  0.00  0.00    +0.020 C 
ATOM     12  C   UNL A   1     -24.829  -0.715  33.905  0.00  0.00    +0.089 C 
ATOM     13  N   UNL A   1     -24.758  -1.481  32.646  0.00  0.00    -0.219 NA
ENDBRANCH   2   9
ENDBRANCH   1   2
BRANCH   1  14
ATOM     14  N   UNL A   1     -25.341   0.515  28.405  0.00  0.00    -0.241 NA
BRANCH  14  21
ATOM     15  C   UNL A   1     -23.443   1.820  25.542  0.00  0.00    -0.020 C 
ATOM     16  C   UNL A   1     -24.356   1.480  26.664  0.00  0.00    +0.067 C 
ATOM     17  C   UNL A   1     -23.047   1.362  28.804  0.00  0.00    +0.012 C 
ATOM     18  C   UNL A   1     -21.345   1.955  26.976  0.00  0.00    -0.000 C 
ATOM     19  C   UNL A   1     -21.584   1.625  28.127  0.00  0.00    +0.001 C 
ATOM     20  C   UNL A   1     -22.014   1.953  25.696  0.00  0.00    -0.004 C 
ATOM     21  C   UNL A   1     -24.191   1.031  28.113  0.00  0.00    +0.047 C 
BRANCH  16  22
ATOM     22  C   UNL A   1     -25.688   1.614  26.461  0.00  0.00    +0.080 C 
ATOM     23  C   UNL A   1     -26.250   2.920  26.395  0.00  0.00    +0.056 C 
ATOM     24  C   UNL A   1     -27.438   3.091  25.645  0.00  0.00    +0.102 C 
ATOM     25  N   UNL A   1     -28.075   2.089  25.003  0.00  0.00    -0.212 NA
ATOM     26  C   UNL A   1     -27.543   0.849  25.079  0.00  0.00    +0.234 C 
ATOM     27  C   UNL A   1     -26.354   0.576  25.777  0.00  0.00    +0.241 C 
ATOM     28  F   UNL A   1     -25.860  -0.681  25.795  0.00  0.00    -0.227 F 
BRANCH  23  29
ATOM     29  C   UNL A   1     -25.642   4.093  27.123  0.00  0.00    +0.263 C 
ATOM     30  N   UNL A   1     -25.614   5.252  26.449  0.00  0.00    -0.200 NA
ATOM     31  C   UNL A   1     -25.026   6.479  26.963  0.00  0.00    +0.139 C 
ATOM     32  O   UNL A   1     -25.143   3.966  28.243  0.00  0.00    -0.269 OA
ENDBRANCH  23  29
BRANCH  26  33
ATOM     33  O   UNL A   1     -28.193  -0.208  24.477  0.00  0.00    -0.459 OA
BRANCH  33  34
ATOM     34  C   UNL A   1     -29.460   0.005  23.866  0.00  0.00    +0.242 C 
BRANCH  34  35
ATOM     35  C   UNL A   1     -30.065  -1.377  23.573  0.00  0.00    +0.229 C 
ATOM     36  O   UNL A   1     -30.729  -1.878  24.721  0.00  0.00    -0.216 OA
ENDBRANCH  34  35
ENDBRANCH  33  34
ENDBRANCH  26  33
ENDBRANCH  16  22
ENDBRANCH  14  21
ENDBRANCH   1  14
BRANCH   1  37
ATOM     37  C   UNL A   1     -27.591   0.293  29.315  0.00  0.00    +0.096 C 
BRANCH  37  43
ATOM     38  O   UNL A   1     -28.797  -0.329  32.121  0.00  0.00    -0.202 OA
ATOM     39  C   UNL A   1     -29.902   2.706  32.354  0.00  0.00    +0.035 C 
ATOM     40  C   UNL A   1     -28.414   2.635  30.262  0.00  0.00    +0.074 C 
ATOM     41  C   UNL A   1     -28.439   3.106  31.771  0.00  0.00    +0.020 C 
ATOM     42  C   UNL A   1     -30.518   1.512  31.565  0.00  0.00    +0.161 C 
ATOM     43  N   UNL A   1     -28.161   1.191  30.372  0.00  0.00    -0.245 NA
ATOM     44  C   UNL A   1     -29.411   0.488  31.057  0.00  0.00    +0.240 C 
BRANCH  42  46
ATOM     45  C   UNL A   1     -32.737   0.445  31.737  0.00  0.00    +0.174 C 
ATOM     46  O   UNL A   1     -31.700   1.239  32.340  0.00  0.00    -0.349 OA
ENDBRANCH  42  46
ENDBRANCH  37  43
ENDBRANCH   1  37
TORSDOF 13
