MODEL 1281
MODEL 1
REMARK VINA RESULT:    -6.441      0.000      0.000
REMARK INTER + INTRA:         -10.843
REMARK INTER:                  -9.453
REMARK INTRA:                  -1.390
REMARK UNBOUND:                -1.390
REMARK  Name = No_1281-gen_results/8p0m/2024-11-27-11-27-31/
REMARK  8 active torsions:
REMARK  status: ('A' for Active; 'I' for Inactive)
REMARK    1  A    between atoms: C_2  and  C_22
REMARK    2  A    between atoms: C_3  and  C_4
REMARK    3  A    between atoms: C_9  and  C_13
REMARK    4  A    between atoms: C_13  and  O_15
REMARK    5  A    between atoms: O_15  and  C_16
REMARK    6  A    between atoms: C_16  and  C_17
REMARK    7  A    between atoms: C_17  and  C_18
REMARK    8  A    between atoms: C_18  and  C_19
REMARK                            x       y       z     vdW  Elec       q    Type
REMARK                         _______ _______ _______ _____ _____    ______ ____
ROOT
ATOM      1  C   UNL A   1     -24.330  -0.279  27.817  0.00  0.00    +0.091 A 
ATOM      2  N   UNL A   1     -24.899   0.314  26.941  0.00  0.00    -0.224 NA
ATOM      3  C   UNL A   1     -23.036   0.105  28.265  0.00  0.00    +0.112 A 
ATOM      4  C   UNL A   1     -22.577   1.308  27.716  0.00  0.00    +0.109 A 
ATOM      5  C   UNL A   1     -24.420   1.391  26.238  0.00  0.00    +0.199 A 
ATOM      6  N   UNL A   1     -23.202   1.831  26.683  0.00  0.00    -0.222 NA
ENDROOT
BRANCH   1   9
ATOM      7  C   UNL A   1     -24.556  -2.786  28.445  0.00  0.00    +0.008 A 
ATOM      8  C   UNL A   1     -25.131  -3.444  29.035  0.00  0.00    +0.080 A 
ATOM      9  C   UNL A   1     -25.031  -1.403  28.478  0.00  0.00    +0.018 A 
ATOM     10  C   UNL A   1     -26.303  -3.303  29.888  0.00  0.00    +0.007 A 
ATOM     11  C   UNL A   1     -26.789  -2.013  29.935  0.00  0.00    +0.000 A 
ATOM     12  C   UNL A   1     -26.140  -1.032  29.281  0.00  0.00    +0.002 A 
BRANCH   8  13
ATOM     13  C   UNL A   1     -24.662  -4.993  29.039  0.00  0.00    +0.388 C 
ATOM     14  O   UNL A   1     -24.982  -5.893  29.493  0.00  0.00    -0.241 OA
ATOM     15  O   UNL A   1     -23.575  -5.120  28.193  0.00  0.00    -0.241 OA
ENDBRANCH   8  13
ENDBRANCH   1   9
BRANCH   3  16
ATOM     16  C   UNL A   1     -22.381  -0.409  29.405  0.00  0.00    +0.344 C 
ATOM     17  O   UNL A   1     -21.435  -1.158  29.268  0.00  0.00    -0.245 OA
BRANCH  16  18
ATOM     18  O   UNL A   1     -22.860  -0.249  30.590  0.00  0.00    -0.445 OA
BRANCH  18  19
ATOM     19  C   UNL A   1     -22.967  -1.308  31.469  0.00  0.00    +0.209 C 
BRANCH  19  20
ATOM     20  C   UNL A   1     -23.477  -0.890  32.659  0.00  0.00    +0.059 C 
BRANCH  20  21
ATOM     21  C   UNL A   1     -24.950  -0.656  32.748  0.00  0.00    +0.118 C 
BRANCH  21  22
ATOM     22  C   UNL A   1     -25.363   0.281  33.773  0.00  0.00    +0.365 C 
ATOM     23  O   UNL A   1     -25.753   1.335  33.466  0.00  0.00    -0.246 OA
ATOM     24  O   UNL A   1     -25.720  -0.206  34.963  0.00  0.00    -0.246 OA
ENDBRANCH  21  22
ENDBRANCH  20  21
ENDBRANCH  19  20
ENDBRANCH  18  19
ENDBRANCH  16  18
ENDBRANCH   3  16
TORSDOF 8
ENDMDL
ENDMDL
