REMARK  Name = No_1281-gen_results/8p0m/2024-11-27-11-27-31/
REMARK  8 active torsions:
REMARK  status: ('A' for Active; 'I' for Inactive)
REMARK    1  A    between atoms: C_2  and  C_22
REMARK    2  A    between atoms: C_3  and  C_4
REMARK    3  A    between atoms: C_9  and  C_13
REMARK    4  A    between atoms: C_13  and  O_15
REMARK    5  A    between atoms: O_15  and  C_16
REMARK    6  A    between atoms: C_16  and  C_17
REMARK    7  A    between atoms: C_17  and  C_18
REMARK    8  A    between atoms: C_18  and  C_19
REMARK                            x       y       z     vdW  Elec       q    Type
REMARK                         _______ _______ _______ _____ _____    ______ ____
ROOT
ATOM      1  C   UNL A   1     -26.252   0.411  27.422  0.00  0.00    +0.091 A 
ATOM      2  N   UNL A   1     -25.064   0.267  27.526  0.00  0.00    -0.224 NA
ATOM      3  C   UNL A   1     -26.872   0.638  26.162  0.00  0.00    +0.112 A 
ATOM      4  C   UNL A   1     -26.005   0.513  25.070  0.00  0.00    +0.109 A 
ATOM      5  C   UNL A   1     -24.142   0.318  26.512  0.00  0.00    +0.199 A 
ATOM      6  N   UNL A   1     -24.706   0.472  25.274  0.00  0.00    -0.222 NA
ENDROOT
BRANCH   1   9
ATOM      7  C   UNL A   1     -28.016  -0.814  28.878  0.00  0.00    +0.008 A 
ATOM      8  C   UNL A   1     -28.469  -0.785  29.829  0.00  0.00    +0.080 A 
ATOM      9  C   UNL A   1     -27.087   0.290  28.638  0.00  0.00    +0.018 A 
ATOM     10  C   UNL A   1     -28.391   0.104  30.980  0.00  0.00    +0.007 A 
ATOM     11  C   UNL A   1     -27.533   1.167  30.787  0.00  0.00    +0.000 A 
ATOM     12  C   UNL A   1     -26.828   1.256  29.645  0.00  0.00    +0.002 A 
BRANCH   8  13
ATOM     13  C   UNL A   1     -29.513  -1.978  30.157  0.00  0.00    +0.388 C 
ATOM     14  O   UNL A   1     -30.551  -2.063  30.343  0.00  0.00    -0.241 OA
ATOM     15  O   UNL A   1     -28.821  -3.175  30.155  0.00  0.00    -0.241 OA
ENDBRANCH   8  13
ENDBRANCH   1   9
BRANCH   3  16
ATOM     16  C   UNL A   1     -28.263   0.628  25.923  0.00  0.00    +0.344 C 
ATOM     17  O   UNL A   1     -29.000   1.281  26.634  0.00  0.00    -0.245 OA
BRANCH  16  18
ATOM     18  O   UNL A   1     -28.799  -0.188  25.083  0.00  0.00    -0.445 OA
BRANCH  18  19
ATOM     19  C   UNL A   1     -30.165  -0.227  24.892  0.00  0.00    +0.209 C 
BRANCH  19  20
ATOM     20  C   UNL A   1     -30.581  -1.504  24.676  0.00  0.00    +0.059 C 
BRANCH  20  21
ATOM     21  C   UNL A   1     -32.041  -1.740  24.464  0.00  0.00    +0.118 C 
BRANCH  21  22
ATOM     22  C   UNL A   1     -32.673  -2.602  25.442  0.00  0.00    +0.365 C 
ATOM     23  O   UNL A   1     -33.812  -2.832  25.357  0.00  0.00    -0.246 OA
ATOM     24  O   UNL A   1     -31.902  -3.456  26.119  0.00  0.00    -0.246 OA
ENDBRANCH  21  22
ENDBRANCH  20  21
ENDBRANCH  19  20
ENDBRANCH  18  19
ENDBRANCH  16  18
ENDBRANCH   3  16
TORSDOF 8
