MODEL 1282
MODEL 1
REMARK VINA RESULT:    -5.608      0.000      0.000
REMARK INTER + INTRA:         -13.032
REMARK INTER:                  -9.542
REMARK INTRA:                  -3.490
REMARK UNBOUND:                -3.490
REMARK  Name = No_1282-gen_results/8p0m/2024-11-27-11-27-31/
REMARK  12 active torsions:
REMARK  status: ('A' for Active; 'I' for Inactive)
REMARK    1  A    between atoms: C_1  and  C_2
REMARK    2  A    between atoms: C_1  and  C_8
REMARK    3  A    between atoms: C_4  and  C_18
REMARK    4  A    between atoms: C_5  and  C_10
REMARK    5  A    between atoms: C_8  and  C_9
REMARK    6  A    between atoms: C_18  and  O_20
REMARK    7  A    between atoms: O_20  and  C_21
REMARK    8  A    between atoms: C_21  and  C_22
REMARK    9  A    between atoms: N_24  and  C_25
REMARK   10  A    between atoms: C_25  and  C_26
REMARK   11  A    between atoms: C_27  and  C_28
REMARK   12  A    between atoms: C_29  and  C_30
REMARK                            x       y       z     vdW  Elec       q    Type
REMARK                         _______ _______ _______ _____ _____    ______ ____
ROOT
ATOM      1  C   UNL A   1     -18.062 -21.705   7.732  0.00  0.00    -0.016 A 
ATOM      2  C   UNL A   1     -19.360 -21.591   7.735  0.00  0.00    +0.003 A 
ATOM      3  C   UNL A   1     -20.159 -20.628   6.938  0.00  0.00    +0.082 A 
ATOM      4  C   UNL A   1     -19.425 -19.714   6.130  0.00  0.00    +0.086 A 
ATOM      5  C   UNL A   1     -18.029 -19.794   6.190  0.00  0.00    +0.006 A 
ATOM      6  C   UNL A   1     -17.360 -20.698   6.949  0.00  0.00    -0.004 A 
ENDROOT
BRANCH   4   7
ATOM      7  C   UNL A   1     -20.086 -18.743   5.298  0.00  0.00    +0.388 C 
ATOM      8  O   UNL A   1     -20.365 -17.691   5.718  0.00  0.00    -0.240 OA
ATOM      9  O   UNL A   1     -20.804 -19.232   4.169  0.00  0.00    -0.240 OA
ENDBRANCH   4   7
BRANCH   3  10
ATOM     10  C   UNL A   1     -21.613 -20.526   6.893  0.00  0.00    +0.342 C 
ATOM     11  O   UNL A   1     -22.213 -21.095   6.061  0.00  0.00    -0.245 OA
BRANCH  10  12
ATOM     12  O   UNL A   1     -22.154 -19.750   7.940  0.00  0.00    -0.435 OA
BRANCH  12  13
ATOM     13  C   UNL A   1     -23.077 -20.435   8.697  0.00  0.00    +0.294 C 
BRANCH  13  14
ATOM     14  C   UNL A   1     -22.348 -20.976   9.767  0.00  0.00    +0.286 C 
ATOM     15  O   UNL A   1     -21.919 -20.398  10.559  0.00  0.00    -0.269 OA
ATOM     16  N   UNL A   1     -22.243 -22.415   9.766  0.00  0.00    -0.197 NA
BRANCH  16  17
ATOM     17  C   UNL A   1     -22.739 -23.298   8.734  0.00  0.00    +0.141 C 
BRANCH  17  18
ATOM     18  C   UNL A   1     -21.769 -24.020   8.173  0.00  0.00    -0.003 C 
ATOM     19  C   UNL A   1     -21.599 -24.386   7.072  0.00  0.00    -0.003 C 
BRANCH  19  20
ATOM     20  C   UNL A   1     -20.464 -25.076   6.606  0.00  0.00    -0.000 C 
ATOM     21  C   UNL A   1     -19.689 -24.756   5.431  0.00  0.00    -0.000 C 
BRANCH  21  22
ATOM     22  C   UNL A   1     -20.242 -23.749   4.622  0.00  0.00    -0.000 C 
ATOM     23  C   UNL A   1     -19.458 -22.761   4.030  0.00  0.00    -0.000 C 
ENDBRANCH  21  22
ENDBRANCH  19  20
ENDBRANCH  17  18
ENDBRANCH  16  17
ENDBRANCH  13  14
ENDBRANCH  12  13
ENDBRANCH  10  12
ENDBRANCH   3  10
BRANCH   1  24
ATOM     24  C   UNL A   1     -17.383 -22.474   8.371  0.00  0.00    +0.102 C 
BRANCH  24  25
ATOM     25  C   UNL A   1     -16.613 -23.492   7.543  0.00  0.00    +0.353 C 
ATOM     26  F   UNL A   1     -17.177 -24.745   7.991  0.00  0.00    -0.195 F 
ATOM     27  F   UNL A   1     -17.120 -23.514   6.249  0.00  0.00    -0.195 F 
BRANCH  25  28
ATOM     28  C   UNL A   1     -15.293 -23.505   7.566  0.00  0.00    +0.455 C 
ATOM     29  F   UNL A   1     -14.941 -24.455   7.760  0.00  0.00    -0.165 F 
ATOM     30  F   UNL A   1     -14.819 -23.028   6.340  0.00  0.00    -0.165 F 
ATOM     31  F   UNL A   1     -14.875 -22.609   8.466  0.00  0.00    -0.165 F 
ENDBRANCH  25  28
ENDBRANCH  24  25
ENDBRANCH   1  24
TORSDOF 12
ENDMDL
ENDMDL
