REMARK  Name = No_1282-gen_results/8p0m/2024-11-27-11-27-31/
REMARK  12 active torsions:
REMARK  status: ('A' for Active; 'I' for Inactive)
REMARK    1  A    between atoms: C_1  and  C_2
REMARK    2  A    between atoms: C_1  and  C_8
REMARK    3  A    between atoms: C_4  and  C_18
REMARK    4  A    between atoms: C_5  and  C_10
REMARK    5  A    between atoms: C_8  and  C_9
REMARK    6  A    between atoms: C_18  and  O_20
REMARK    7  A    between atoms: O_20  and  C_21
REMARK    8  A    between atoms: C_21  and  C_22
REMARK    9  A    between atoms: N_24  and  C_25
REMARK   10  A    between atoms: C_25  and  C_26
REMARK   11  A    between atoms: C_27  and  C_28
REMARK   12  A    between atoms: C_29  and  C_30
REMARK                            x       y       z     vdW  Elec       q    Type
REMARK                         _______ _______ _______ _____ _____    ______ ____
ROOT
ATOM      1  C   UNL A   1     -27.064  -0.119  28.608  0.00  0.00    -0.016 A 
ATOM      2  C   UNL A   1     -26.876   1.133  28.913  0.00  0.00    +0.003 A 
ATOM      3  C   UNL A   1     -25.688   1.952  28.567  0.00  0.00    +0.082 A 
ATOM      4  C   UNL A   1     -24.639   1.283  27.875  0.00  0.00    +0.086 A 
ATOM      5  C   UNL A   1     -24.818  -0.080  27.617  0.00  0.00    +0.006 A 
ATOM      6  C   UNL A   1     -25.931  -0.772  27.970  0.00  0.00    -0.004 A 
ENDROOT
BRANCH   4   7
ATOM      7  C   UNL A   1     -23.443   1.973  27.469  0.00  0.00    +0.388 C 
ATOM      8  O   UNL A   1     -23.440   2.650  26.519  0.00  0.00    -0.240 OA
ATOM      9  O   UNL A   1     -22.200   1.452  27.931  0.00  0.00    -0.240 OA
ENDBRANCH   4   7
BRANCH   3  10
ATOM     10  C   UNL A   1     -25.489   3.367  28.857  0.00  0.00    +0.342 C 
ATOM     11  O   UNL A   1     -25.833   4.177  28.080  0.00  0.00    -0.245 OA
BRANCH  10  12
ATOM     12  O   UNL A   1     -24.916   3.606  30.125  0.00  0.00    -0.435 OA
BRANCH  12  13
ATOM     13  C   UNL A   1     -25.704   4.395  30.931  0.00  0.00    +0.294 C 
BRANCH  13  14
ATOM     14  C   UNL A   1     -25.140   4.294  32.212  0.00  0.00    +0.286 C 
ATOM     15  O   UNL A   1     -24.088   4.264  32.408  0.00  0.00    -0.269 OA
ATOM     16  N   UNL A   1     -26.091   4.277  33.296  0.00  0.00    -0.197 NA
BRANCH  16  17
ATOM     17  C   UNL A   1     -27.530   4.268  33.158  0.00  0.00    +0.141 C 
BRANCH  17  18
ATOM     18  C   UNL A   1     -28.075   3.129  33.587  0.00  0.00    -0.003 C 
ATOM     19  C   UNL A   1     -27.622   2.204  34.148  0.00  0.00    -0.003 C 
BRANCH  19  20
ATOM     20  C   UNL A   1     -28.352   1.098  34.621  0.00  0.00    -0.000 C 
ATOM     21  C   UNL A   1     -27.812  -0.064  35.286  0.00  0.00    -0.000 C 
BRANCH  21  22
ATOM     22  C   UNL A   1     -26.409  -0.127  35.307  0.00  0.00    -0.000 C 
ATOM     23  C   UNL A   1     -25.617   0.745  34.563  0.00  0.00    -0.000 C 
ENDBRANCH  21  22
ENDBRANCH  19  20
ENDBRANCH  17  18
ENDBRANCH  16  17
ENDBRANCH  13  14
ENDBRANCH  12  13
ENDBRANCH  10  12
ENDBRANCH   3  10
BRANCH   1  24
ATOM     24  C   UNL A   1     -28.016  -0.814  28.878  0.00  0.00    +0.102 C 
BRANCH  24  25
ATOM     25  C   UNL A   1     -28.650  -0.538  30.233  0.00  0.00    +0.353 C 
ATOM     26  F   UNL A   1     -27.536  -0.711  31.137  0.00  0.00    -0.195 F 
ATOM     27  F   UNL A   1     -28.809   0.833  30.398  0.00  0.00    -0.195 F 
BRANCH  25  28
ATOM     28  C   UNL A   1     -29.714  -1.218  30.619  0.00  0.00    +0.455 C 
ATOM     29  F   UNL A   1     -29.997  -1.895  29.894  0.00  0.00    -0.165 F 
ATOM     30  F   UNL A   1     -29.421  -1.860  31.826  0.00  0.00    -0.165 F 
ATOM     31  F   UNL A   1     -30.686  -0.351  30.920  0.00  0.00    -0.165 F 
ENDBRANCH  25  28
ENDBRANCH  24  25
ENDBRANCH   1  24
TORSDOF 12
