REMARK  Name = outputs/IAG933/test6/raw/output_1283_IAG933_linker_design_.xyz
REMARK  17 active torsions:
REMARK  status: ('A' for Active; 'I' for Inactive)
REMARK    1  A    between atoms: C_1  and  C_2
REMARK    2  A    between atoms: C_1  and  C_8
REMARK    3  A    between atoms: C_1  and  N_44
REMARK    4  A    between atoms: C_13  and  C_40
REMARK    5  A    between atoms: C_14  and  C_15
REMARK    6  A    between atoms: C_21  and  O_22
REMARK    7  A    between atoms: O_22  and  C_23
REMARK    8  A    between atoms: C_23  and  C_24
REMARK    9  A    between atoms: C_28  and  C_33
REMARK   10  A    between atoms: C_28  and  N_44
REMARK   11  A    between atoms: C_33  and  C_42
REMARK   12  A    between atoms: C_34  and  C_42
REMARK   13  A    between atoms: C_34  and  O_49
REMARK   14  A    between atoms: N_44  and  C_46
REMARK   15  A    between atoms: C_45  and  C_48
REMARK   16  A    between atoms: C_47  and  C_48
REMARK   17  A    between atoms: C_47  and  O_49
REMARK                            x       y       z     vdW  Elec       q    Type
REMARK                         _______ _______ _______ _____ _____    ______ ____
ROOT
ATOM      1  N   UNL A   1     -25.534  -0.158  29.177  0.00  0.00    -0.268 NA
ENDROOT
BRANCH   1   7
ATOM      2  N   UNL A   1     -22.378   1.020  27.577  0.00  0.00    -0.125 N 
ATOM      3  O   UNL A   1     -22.411   1.907  25.605  0.00  0.00    -0.272 OA
ATOM      4  C   UNL A   1     -23.137   1.379  26.734  0.00  0.00    +0.257 C 
ATOM      5  C   UNL A   1     -24.488   1.266  27.268  0.00  0.00    +0.120 C 
ATOM      6  F   UNL A   1     -21.126   1.071  27.508  0.00  0.00    -0.106 F 
ATOM      7  C   UNL A   1     -24.593   0.806  28.661  0.00  0.00    +0.093 C 
ATOM      8  C   UNL A   1     -23.120   0.452  28.601  0.00  0.00    +0.146 C 
BRANCH   5   9
ATOM      9  C   UNL A   1     -25.688   1.614  26.461  0.00  0.00    +0.026 C 
ATOM     10  C   UNL A   1     -26.250   2.920  26.395  0.00  0.00    +0.073 C 
ATOM     11  C   UNL A   1     -27.438   3.091  25.645  0.00  0.00    +0.106 C 
ATOM     12  N   UNL A   1     -28.075   2.089  25.003  0.00  0.00    -0.208 NA
ATOM     13  C   UNL A   1     -27.543   0.849  25.079  0.00  0.00    +0.253 C 
ATOM     14  C   UNL A   1     -26.354   0.576  25.777  0.00  0.00    +0.190 C 
ATOM     15  F   UNL A   1     -25.860  -0.681  25.795  0.00  0.00    -0.200 F 
BRANCH  10  16
ATOM     16  C   UNL A   1     -25.642   4.093  27.123  0.00  0.00    +0.266 C 
ATOM     17  N   UNL A   1     -25.614   5.252  26.449  0.00  0.00    -0.200 NA
ATOM     18  C   UNL A   1     -25.026   6.479  26.963  0.00  0.00    +0.139 C 
ATOM     19  O   UNL A   1     -25.143   3.966  28.243  0.00  0.00    -0.268 OA
ENDBRANCH  10  16
BRANCH  13  20
ATOM     20  O   UNL A   1     -28.193  -0.208  24.477  0.00  0.00    -0.456 OA
BRANCH  20  21
ATOM     21  C   UNL A   1     -29.460   0.005  23.866  0.00  0.00    +0.243 C 
BRANCH  21  22
ATOM     22  C   UNL A   1     -30.065  -1.377  23.573  0.00  0.00    +0.229 C 
ATOM     23  O   UNL A   1     -30.729  -1.878  24.721  0.00  0.00    -0.216 OA
ENDBRANCH  21  22
ENDBRANCH  20  21
ENDBRANCH  13  20
ENDBRANCH   5   9
ENDBRANCH   1   7
BRANCH   1  24
ATOM     24  C   UNL A   1     -26.627  -0.726  28.297  0.00  0.00    +0.073 C 
BRANCH  24  25
ATOM     25  C   UNL A   1     -27.970  -0.214  27.971  0.00  0.00    +0.029 C 
BRANCH  25  26
ATOM     26  C   UNL A   1     -29.040  -0.525  29.009  0.00  0.00    +0.111 C 
BRANCH  26  27
ATOM     27  C   UNL A   1     -30.308   0.057  28.433  0.00  0.00    +0.317 C 
ATOM     28  O   UNL A   1     -30.424   1.233  28.321  0.00  0.00    -0.250 OA
BRANCH  27  29
ATOM     29  O   UNL A   1     -31.224  -0.900  27.955  0.00  0.00    -0.449 OA
BRANCH  29  30
ATOM     30  C   UNL A   1     -32.285  -0.977  28.924  0.00  0.00    +0.209 C 
BRANCH  30  31
ATOM     31  C   UNL A   1     -31.677  -0.774  30.402  0.00  0.00    +0.051 C 
BRANCH  31  38
ATOM     32  O   UNL A   1     -29.903  -4.001  30.928  0.00  0.00    -0.449 OA
ATOM     33  C   UNL A   1     -30.016  -2.643  31.310  0.00  0.00    +0.208 C 
ATOM     34  C   UNL A   1     -32.236  -3.078  31.732  0.00  0.00    +0.015 C 
ATOM     35  C   UNL A   1     -32.252  -4.306  30.954  0.00  0.00    +0.110 C 
ATOM     36  O   UNL A   1     -30.930  -4.847  28.972  0.00  0.00    -0.250 OA
ATOM     37  C   UNL A   1     -30.988  -4.435  30.236  0.00  0.00    +0.317 C 
ATOM     38  C   UNL A   1     -31.255  -2.104  31.223  0.00  0.00    +0.048 C 
ENDBRANCH  31  38
ENDBRANCH  30  31
ENDBRANCH  29  30
ENDBRANCH  27  29
ENDBRANCH  26  27
ENDBRANCH  25  26
ENDBRANCH  24  25
ENDBRANCH   1  24
BRANCH   1  39
ATOM     39  C   UNL A   1     -24.855  -1.012  30.143  0.00  0.00    +0.096 C 
BRANCH  39  40
ATOM     40  C   UNL A   1     -24.973  -2.505  29.788  0.00  0.00    -0.006 C 
ATOM     41  C   UNL A   1     -23.906  -3.173  29.146  0.00  0.00    -0.003 C 
ATOM     42  C   UNL A   1     -23.989  -4.549  28.853  0.00  0.00    -0.000 C 
ATOM     43  C   UNL A   1     -25.137  -5.280  29.205  0.00  0.00    -0.000 C 
ATOM     44  C   UNL A   1     -26.232  -4.611  29.784  0.00  0.00    -0.000 C 
ATOM     45  C   UNL A   1     -26.155  -3.232  30.065  0.00  0.00    -0.003 C 
ENDBRANCH  39  40
BRANCH  39  46
ATOM     46  C   UNL A   1     -25.387  -0.679  31.571  0.00  0.00    +0.092 C 
ATOM     47  C   UNL A   1     -25.189   0.773  32.028  0.00  0.00    +0.021 C 
ATOM     48  C   UNL A   1     -25.336   0.684  33.544  0.00  0.00    +0.020 C 
ATOM     49  C   UNL A   1     -24.829  -0.715  33.905  0.00  0.00    +0.089 C 
ATOM     50  N   UNL A   1     -24.758  -1.481  32.646  0.00  0.00    -0.218 NA
ENDBRANCH  39  46
ENDBRANCH   1  39
TORSDOF 17
