MODEL 1283
MODEL 1
REMARK VINA RESULT:    -4.992      0.000      0.000
REMARK INTER + INTRA:          -5.699
REMARK INTER:                  -5.575
REMARK INTRA:                  -0.124
REMARK UNBOUND:                -0.124
REMARK  Name = No_1283-gen_results/8p0m/2024-11-27-11-27-31/
REMARK  2 active torsions:
REMARK  status: ('A' for Active; 'I' for Inactive)
REMARK    1  A    between atoms: C_2  and  O_7
REMARK    2  A    between atoms: O_7  and  C_8
REMARK                            x       y       z     vdW  Elec       q    Type
REMARK                         _______ _______ _______ _____ _____    ______ ____
ROOT
ATOM      1  C   UNL A   1     -25.053  -2.544  29.720  0.00  0.00    +0.037 A 
ATOM      2  C   UNL A   1     -24.124  -3.064  29.148  0.00  0.00    +0.145 A 
ATOM      3  C   UNL A   1     -24.091  -4.373  28.788  0.00  0.00    +0.037 A 
ATOM      4  C   UNL A   1     -25.204  -5.178  29.098  0.00  0.00    +0.003 A 
ATOM      5  C   UNL A   1     -26.261  -3.284  29.982  0.00  0.00    +0.003 A 
ATOM      6  C   UNL A   1     -26.268  -4.610  29.667  0.00  0.00    +0.000 A 
ENDROOT
BRANCH   2   7
ATOM      7  O   UNL A   1     -22.987  -2.332  28.787  0.00  0.00    -0.450 OA
BRANCH   7   8
ATOM      8  C   UNL A   1     -22.805  -0.995  29.010  0.00  0.00    +0.180 C 
ATOM      9  C   UNL A   1     -21.688  -0.405  29.013  0.00  0.00    +0.044 C 
ENDBRANCH   7   8
ENDBRANCH   2   7
TORSDOF 2
ENDMDL
ENDMDL
