MODEL 1285
MODEL 1
REMARK VINA RESULT:    -6.728      0.000      0.000
REMARK INTER + INTRA:          -6.260
REMARK INTER:                  -7.122
REMARK INTRA:                   0.861
REMARK UNBOUND:                 0.861
REMARK  Name = No_1285-gen_results/8p0m/2024-11-27-11-27-31/
REMARK  1 active torsions:
REMARK  status: ('A' for Active; 'I' for Inactive)
REMARK    1  A    between atoms: C_3  and  C_15
REMARK                            x       y       z     vdW  Elec       q    Type
REMARK                         _______ _______ _______ _____ _____    ______ ____
ROOT
ATOM      1  N   UNL A   1     -24.017   1.130  30.802  0.00  0.00    -0.244 NA
ATOM      2  C   UNL A   1     -24.459  -0.014  30.677  0.00  0.00    +0.085 A 
ATOM      3  C   UNL A   1     -23.909  -0.932  29.871  0.00  0.00    +0.089 A 
ATOM      4  C   UNL A   1     -24.404  -2.279  29.649  0.00  0.00    +0.005 A 
ATOM      5  C   UNL A   1     -23.800  -3.242  28.827  0.00  0.00    -0.000 A 
ATOM      6  C   UNL A   1     -25.796  -0.485  31.278  0.00  0.00    +0.018 A 
ATOM      7  C   UNL A   1     -26.475   0.460  32.122  0.00  0.00    +0.003 A 
ATOM      8  C   UNL A   1     -25.924   1.640  32.225  0.00  0.00    +0.021 A 
ATOM      9  C   UNL A   1     -24.745   2.031  31.605  0.00  0.00    +0.099 A 
ATOM     10  C   UNL A   1     -24.342  -4.574  28.658  0.00  0.00    -0.000 A 
ATOM     11  C   UNL A   1     -25.588  -4.836  29.180  0.00  0.00    -0.000 A 
ATOM     12  C   UNL A   1     -26.264  -3.835  29.936  0.00  0.00    -0.000 A 
ATOM     13  C   UNL A   1     -25.716  -2.619  30.141  0.00  0.00    +0.000 A 
ATOM     14  C   UNL A   1     -26.318  -1.760  31.000  0.00  0.00    +0.002 A 
ENDROOT
BRANCH   3  15
ATOM     15  C   UNL A   1     -22.652  -0.639  29.170  0.00  0.00    +0.420 C 
ATOM     16  F   UNL A   1     -21.898  -1.685  28.935  0.00  0.00    -0.166 F 
ATOM     17  F   UNL A   1     -22.995  -0.064  27.976  0.00  0.00    -0.166 F 
ATOM     18  F   UNL A   1     -21.913   0.243  29.868  0.00  0.00    -0.166 F 
ENDBRANCH   3  15
TORSDOF 1
ENDMDL
ENDMDL
