MODEL 1289
MODEL 1
REMARK VINA RESULT:    -5.940      0.000      0.000
REMARK INTER + INTRA:          -7.413
REMARK INTER:                  -7.328
REMARK INTRA:                  -0.084
REMARK UNBOUND:                -0.084
REMARK  Name = No_1289-gen_results/8p0m/2024-11-27-11-27-31/
REMARK  4 active torsions:
REMARK  status: ('A' for Active; 'I' for Inactive)
REMARK    1  A    between atoms: C_7  and  C_17
REMARK    2  A    between atoms: C_9  and  C_11
REMARK    3  A    between atoms: C_11  and  C_13
REMARK    4  A    between atoms: C_13  and  C_15
REMARK                            x       y       z     vdW  Elec       q    Type
REMARK                         _______ _______ _______ _____ _____    ______ ____
ROOT
ATOM      1  C   UNL A   1     -28.513  -9.576  33.701  0.00  0.00    +0.012 A 
ATOM      2  C   UNL A   1     -28.877 -10.281  32.789  0.00  0.00    +0.007 A 
ATOM      3  C   UNL A   1     -29.781  -9.817  31.839  0.00  0.00    +0.000 A 
ATOM      4  C   UNL A   1     -30.347  -8.496  31.938  0.00  0.00    +0.001 A 
ATOM      5  C   UNL A   1     -29.889  -7.757  33.036  0.00  0.00    +0.011 A 
ATOM      6  C   UNL A   1     -29.047  -8.248  33.916  0.00  0.00    +0.058 A 
ATOM      7  C   UNL A   1     -28.419 -11.676  32.546  0.00  0.00    +0.080 A 
ATOM      8  C   UNL A   1     -28.322 -12.191  31.372  0.00  0.00    +0.008 A 
ATOM      9  C   UNL A   1     -29.276 -11.683  30.296  0.00  0.00    +0.014 A 
ATOM     10  C   UNL A   1     -29.883 -10.449  30.496  0.00  0.00    +0.001 A 
ATOM     11 CL   UNL A   1     -28.705  -7.318  35.306  0.00  0.00    -0.082 Cl
ENDROOT
BRANCH   9  12
ATOM     12  C   UNL A   1     -29.454 -12.414  29.049  0.00  0.00    +0.060 C 
ATOM     13  N   UNL A   1     -30.192 -13.501  29.040  0.00  0.00    -0.272 NA
ATOM     14  C   UNL A   1     -30.665 -14.041  30.195  0.00  0.00    +0.151 C 
BRANCH  12  15
ATOM     15  C   UNL A   1     -28.920 -11.939  27.821  0.00  0.00    +0.094 C 
BRANCH  15  16
ATOM     16  C   UNL A   1     -29.906 -11.450  26.933  0.00  0.00    +0.102 C 
ATOM     17  N   UNL A   1     -30.052 -11.989  25.762  0.00  0.00    -0.151 NA
ENDBRANCH  15  16
ENDBRANCH  12  15
ENDBRANCH   9  12
BRANCH   7  18
ATOM     18  C   UNL A   1     -27.657 -12.275  33.679  0.00  0.00    +0.388 C 
ATOM     19  O   UNL A   1     -26.487 -12.381  33.442  0.00  0.00    -0.241 OA
ATOM     20  O   UNL A   1     -28.276 -12.640  34.726  0.00  0.00    -0.241 OA
ENDBRANCH   7  18
TORSDOF 4
ENDMDL
ENDMDL
