MODEL 128
MODEL 1
REMARK VINA RESULT:    -4.223      0.000      0.000
REMARK INTER + INTRA:          -4.838
REMARK INTER:                  -4.717
REMARK INTRA:                  -0.121
REMARK UNBOUND:                -0.121
REMARK  Name = No_128-gen_results/8p0m/2024-11-27-11-27-31/
REMARK  2 active torsions:
REMARK  status: ('A' for Active; 'I' for Inactive)
REMARK    1  A    between atoms: C_2  and  C_3
REMARK    2  A    between atoms: C_3  and  C_5
REMARK                            x       y       z     vdW  Elec       q    Type
REMARK                         _______ _______ _______ _____ _____    ______ ____
ROOT
ATOM      1  C   UNL A   1      -9.605  -9.341  19.635  0.00  0.00    +0.209 C 
ATOM      2  F   UNL A   1     -10.028  -9.230  20.552  0.00  0.00    -0.233 F 
ENDROOT
BRANCH   1   3
ATOM      3  C   UNL A   1      -8.035  -9.106  19.743  0.00  0.00    +0.195 C 
ATOM      4  F   UNL A   1      -7.743  -7.971  19.979  0.00  0.00    -0.234 F 
ATOM      5  C   UNL A   1      -7.390  -9.961  20.784  0.00  0.00    +0.041 C 
ENDBRANCH   1   3
BRANCH   1   7
ATOM      6 CL   UNL A   1      -9.226 -10.562  17.647  0.00  0.00    -0.111 Cl
ATOM      7  C   UNL A   1     -10.007  -9.738  18.398  0.00  0.00    +0.133 C 
ENDBRANCH   1   7
TORSDOF 2
ENDMDL
ENDMDL
