MODEL 1290
MODEL 1
REMARK VINA RESULT:    -5.521      0.000      0.000
REMARK INTER + INTRA:          -5.521
REMARK INTER:                  -5.521
REMARK INTRA:                   0.000
REMARK UNBOUND:                 0.000
REMARK  Name = No_1290-gen_results/8p0m/2024-11-27-11-27-31/
REMARK  0 active torsions:
REMARK  status: ('A' for Active; 'I' for Inactive)
REMARK                            x       y       z     vdW  Elec       q    Type
REMARK                         _______ _______ _______ _____ _____    ______ ____
ROOT
ATOM      1 CL   UNL A   1     -23.831  -4.813  28.333  0.00  0.00    -0.082 Cl
ATOM      2  C   UNL A   1     -24.874  -4.158  28.914  0.00  0.00    +0.058 A 
ATOM      3  C   UNL A   1     -25.956  -4.846  29.368  0.00  0.00    +0.011 A 
ATOM      4  C   UNL A   1     -26.997  -4.162  30.095  0.00  0.00    +0.001 A 
ATOM      5  C   UNL A   1     -26.846  -2.785  30.378  0.00  0.00    +0.000 A 
ATOM      6  C   UNL A   1     -25.709  -2.155  29.986  0.00  0.00    +0.001 A 
ATOM      7  C   UNL A   1     -24.739  -2.807  29.309  0.00  0.00    +0.011 A 
ATOM      8  C   UNL A   1     -23.558  -2.025  28.940  0.00  0.00    +0.001 A 
ATOM      9  C   UNL A   1     -22.947  -1.152  29.852  0.00  0.00    +0.000 A 
ATOM     10  C   UNL A   1     -23.486  -1.121  31.190  0.00  0.00    +0.000 A 
ATOM     11  C   UNL A   1     -24.973  -1.325  31.213  0.00  0.00    +0.000 A 
ENDROOT
TORSDOF 0
ENDMDL
ENDMDL
