MODEL 1291
MODEL 1
REMARK VINA RESULT:    -7.062      0.000      0.000
REMARK INTER + INTRA:          -9.127
REMARK INTER:                  -8.301
REMARK INTRA:                  -0.826
REMARK UNBOUND:                -0.826
REMARK  Name = No_1291-gen_results/8p0m/2024-11-27-11-27-31/
REMARK  3 active torsions:
REMARK  status: ('A' for Active; 'I' for Inactive)
REMARK    1  A    between atoms: C_1  and  C_2
REMARK    2  A    between atoms: C_5  and  C_10
REMARK    3  A    between atoms: C_14  and  C_19
REMARK                            x       y       z     vdW  Elec       q    Type
REMARK                         _______ _______ _______ _____ _____    ______ ____
ROOT
ATOM      1  C   UNL A   1     -26.056   1.226  25.992  0.00  0.00    +0.174 C 
ATOM      2  N   UNL A   1     -27.240   1.076  26.431  0.00  0.00    -0.195 NA
ATOM      3  C   UNL A   1     -28.340   1.280  25.642  0.00  0.00    +0.246 C 
ATOM      4  C   UNL A   1     -28.313   0.901  24.295  0.00  0.00    +0.108 C 
ATOM      5  C   UNL A   1     -27.604   0.237  23.998  0.00  0.00    +0.080 C 
ATOM      6  C   UNL A   1     -26.105   0.436  24.580  0.00  0.00    +0.175 C 
ATOM      7  O   UNL A   1     -29.435   1.690  26.236  0.00  0.00    -0.273 OA
ATOM      8  O   UNL A   1     -25.017   0.040  24.013  0.00  0.00    -0.294 OA
ENDROOT
BRANCH   1   9
ATOM      9  C   UNL A   1     -25.108   0.949  26.689  0.00  0.00    +0.004 A 
ATOM     10  C   UNL A   1     -24.030   1.757  26.858  0.00  0.00    -0.002 A 
ATOM     11  C   UNL A   1     -22.863   1.434  27.709  0.00  0.00    +0.004 A 
ATOM     12  C   UNL A   1     -22.899   0.187  28.415  0.00  0.00    +0.071 A 
ATOM     13  C   UNL A   1     -24.070  -0.591  28.270  0.00  0.00    +0.004 A 
ATOM     14  C   UNL A   1     -25.115  -0.227  27.461  0.00  0.00    -0.002 A 
BRANCH  12  15
ATOM     15  C   UNL A   1     -21.849  -0.227  29.305  0.00  0.00    +0.419 C 
ATOM     16  F   UNL A   1     -21.965  -0.017  30.399  0.00  0.00    -0.166 F 
ATOM     17  F   UNL A   1     -21.748  -1.659  29.128  0.00  0.00    -0.166 F 
ATOM     18  F   UNL A   1     -20.616   0.176  28.841  0.00  0.00    -0.166 F 
ENDBRANCH  12  15
ENDBRANCH   1   9
BRANCH   4  19
ATOM     19  C   UNL A   1     -29.772   0.345  23.898  0.00  0.00    -0.013 A 
ATOM     20  C   UNL A   1     -29.918  -1.023  24.018  0.00  0.00    -0.004 A 
ATOM     21  C   UNL A   1     -31.038  -1.561  23.616  0.00  0.00    -0.000 A 
ATOM     22  C   UNL A   1     -32.075  -0.750  23.026  0.00  0.00    -0.000 A 
ATOM     23  C   UNL A   1     -31.880   0.563  22.828  0.00  0.00    -0.000 A 
ATOM     24  C   UNL A   1     -30.693   1.176  23.242  0.00  0.00    -0.004 A 
ENDBRANCH   4  19
TORSDOF 3
ENDMDL
ENDMDL
