MODEL 1292
MODEL 1
REMARK VINA RESULT:    -5.470      0.000      0.000
REMARK INTER + INTRA:          -6.189
REMARK INTER:                  -6.110
REMARK INTRA:                  -0.079
REMARK UNBOUND:                -0.079
REMARK  Name = No_1292-gen_results/8p0m/2024-11-27-11-27-31/
REMARK  2 active torsions:
REMARK  status: ('A' for Active; 'I' for Inactive)
REMARK    1  A    between atoms: C_2  and  C_7
REMARK    2  A    between atoms: C_7  and  C_9
REMARK                            x       y       z     vdW  Elec       q    Type
REMARK                         _______ _______ _______ _____ _____    ______ ____
ROOT
ATOM      1  C   UNL A   1     -23.855  -3.180  28.838  0.00  0.00    +0.002 A 
ATOM      2  C   UNL A   1     -24.625  -2.747  29.412  0.00  0.00    +0.024 A 
ATOM      3  C   UNL A   1     -23.999  -4.661  28.568  0.00  0.00    +0.000 A 
ATOM      4  C   UNL A   1     -25.182  -5.323  28.959  0.00  0.00    +0.000 A 
ATOM      5  C   UNL A   1     -25.950  -3.192  29.901  0.00  0.00    +0.002 A 
ATOM      6  C   UNL A   1     -26.121  -4.549  29.665  0.00  0.00    +0.000 A 
ENDROOT
BRANCH   2   7
ATOM      7  C   UNL A   1     -24.505  -1.172  29.702  0.00  0.00    +0.158 C 
ATOM      8  N   UNL A   1     -25.460  -0.524  29.997  0.00  0.00    -0.143 NA
BRANCH   7   9
ATOM      9  C   UNL A   1     -23.241  -0.590  29.426  0.00  0.00    +0.284 C 
ATOM     10  N   UNL A   1     -22.965   0.127  28.351  0.00  0.00    -0.198 NA
ATOM     11  O   UNL A   1     -22.349  -0.552  30.352  0.00  0.00    -0.267 OA
ATOM     12  C   UNL A   1     -21.716   0.758  28.085  0.00  0.00    +0.139 C 
ENDBRANCH   7   9
ENDBRANCH   2   7
TORSDOF 2
ENDMDL
ENDMDL
