REMARK  Name = No_1292-gen_results/8p0m/2024-11-27-11-27-31/
REMARK  2 active torsions:
REMARK  status: ('A' for Active; 'I' for Inactive)
REMARK    1  A    between atoms: C_2  and  C_7
REMARK    2  A    between atoms: C_7  and  C_9
REMARK                            x       y       z     vdW  Elec       q    Type
REMARK                         _______ _______ _______ _____ _____    ______ ____
ROOT
ATOM      1  C   UNL A   1     -28.016  -0.814  28.878  0.00  0.00    +0.002 A 
ATOM      2  C   UNL A   1     -28.469  -0.785  29.829  0.00  0.00    +0.024 A 
ATOM      3  C   UNL A   1     -26.504  -0.778  28.877  0.00  0.00    +0.000 A 
ATOM      4  C   UNL A   1     -25.810  -0.853  30.103  0.00  0.00    +0.000 A 
ATOM      5  C   UNL A   1     -27.991  -0.892  31.226  0.00  0.00    +0.002 A 
ATOM      6  C   UNL A   1     -26.604  -0.868  31.265  0.00  0.00    +0.000 A 
ENDROOT
BRANCH   2   7
ATOM      7  C   UNL A   1     -30.074  -0.836  29.861  0.00  0.00    +0.158 C 
ATOM      8  N   UNL A   1     -30.653  -1.794  30.268  0.00  0.00    -0.143 NA
BRANCH   7   9
ATOM      9  C   UNL A   1     -30.737   0.248  29.229  0.00  0.00    +0.284 C 
ATOM     10  N   UNL A   1     -30.136   1.338  28.785  0.00  0.00    -0.198 NA
ATOM     11  O   UNL A   1     -31.959   0.106  28.854  0.00  0.00    -0.267 OA
ATOM     12  C   UNL A   1     -30.781   2.410  28.105  0.00  0.00    +0.139 C 
ENDBRANCH   7   9
ENDBRANCH   2   7
TORSDOF 2
