MODEL 1293
MODEL 1
REMARK VINA RESULT:    -6.533      0.000      0.000
REMARK INTER + INTRA:          -8.597
REMARK INTER:                  -8.061
REMARK INTRA:                  -0.536
REMARK UNBOUND:                -0.536
REMARK  Name = No_1293-gen_results/8p0m/2024-11-27-11-27-31/
REMARK  4 active torsions:
REMARK  status: ('A' for Active; 'I' for Inactive)
REMARK    1  A    between atoms: C_1  and  C_2
REMARK    2  A    between atoms: C_1  and  N_8
REMARK    3  A    between atoms: C_9  and  C_10
REMARK    4  A    between atoms: C_10  and  C_11
REMARK                            x       y       z     vdW  Elec       q    Type
REMARK                         _______ _______ _______ _____ _____    ______ ____
ROOT
ATOM      1  N   UNL A   1     -23.287  -0.861  29.965  0.00  0.00    -0.268 NA
ATOM      2  C   UNL A   1     -22.702   0.067  29.944  0.00  0.00    +0.072 C 
ENDROOT
BRANCH   1   3
ATOM      3  C   UNL A   1     -24.570  -1.342  29.729  0.00  0.00    +0.151 C 
BRANCH   3   4
ATOM      4  C   UNL A   1     -24.754  -2.510  29.477  0.00  0.00    +0.002 A 
ATOM      5  C   UNL A   1     -23.847  -3.303  28.853  0.00  0.00    -0.002 A 
ATOM      6  C   UNL A   1     -24.055  -4.734  28.539  0.00  0.00    -0.000 A 
ATOM      7  C   UNL A   1     -25.300  -5.314  28.952  0.00  0.00    -0.000 A 
ATOM      8  C   UNL A   1     -26.187  -4.475  29.662  0.00  0.00    -0.000 A 
ATOM      9  C   UNL A   1     -25.926  -3.153  29.917  0.00  0.00    -0.002 A 
ENDBRANCH   3   4
ENDBRANCH   1   3
BRANCH   2  10
ATOM     10  C   UNL A   1     -23.368   1.301  29.571  0.00  0.00    +0.073 C 
BRANCH  10  11
ATOM     11  C   UNL A   1     -23.250   1.734  28.295  0.00  0.00    -0.016 A 
ATOM     12  C   UNL A   1     -22.039   1.725  27.709  0.00  0.00    -0.004 A 
ATOM     13  C   UNL A   1     -21.965   1.906  26.357  0.00  0.00    -0.000 A 
ATOM     14  C   UNL A   1     -23.199   2.159  25.652  0.00  0.00    -0.000 A 
ATOM     15  C   UNL A   1     -24.409   2.128  26.241  0.00  0.00    -0.000 A 
ATOM     16  C   UNL A   1     -24.452   1.851  27.570  0.00  0.00    -0.004 A 
ENDBRANCH  10  11
ENDBRANCH   2  10
TORSDOF 4
ENDMDL
ENDMDL
