MODEL 1294
MODEL 1
REMARK VINA RESULT:    -6.547      0.000      0.000
REMARK INTER + INTRA:          -7.903
REMARK INTER:                  -7.312
REMARK INTRA:                  -0.590
REMARK UNBOUND:                -0.590
REMARK  Name = No_1294-gen_results/8p0m/2024-11-27-11-27-31/
REMARK  2 active torsions:
REMARK  status: ('A' for Active; 'I' for Inactive)
REMARK    1  A    between atoms: C_3  and  C_4
REMARK    2  A    between atoms: C_4  and  C_8
REMARK                            x       y       z     vdW  Elec       q    Type
REMARK                         _______ _______ _______ _____ _____    ______ ____
ROOT
ATOM      1  C   UNL A   1     -24.898  -1.105  29.755  0.00  0.00    +0.055 C 
ENDROOT
BRANCH   1   2
ATOM      2  C   UNL A   1     -24.192  -0.270  28.769  0.00  0.00    +0.010 A 
ATOM      3  C   UNL A   1     -22.981   0.236  29.127  0.00  0.00    +0.137 A 
ATOM      4  C   UNL A   1     -22.285   1.068  28.187  0.00  0.00    +0.029 A 
ATOM      5  C   UNL A   1     -22.921   1.391  26.942  0.00  0.00    +0.002 A 
ATOM      6  C   UNL A   1     -24.704   0.064  27.524  0.00  0.00    -0.002 A 
ATOM      7  C   UNL A   1     -24.133   0.890  26.671  0.00  0.00    -0.000 A 
ATOM      8  F   UNL A   1     -22.379   0.023  30.202  0.00  0.00    -0.204 F 
ENDBRANCH   1   2
BRANCH   1  11
ATOM      9  C   UNL A   1     -23.834  -3.324  28.849  0.00  0.00    -0.004 A 
ATOM     10  C   UNL A   1     -24.057  -4.331  28.634  0.00  0.00    -0.000 A 
ATOM     11  C   UNL A   1     -24.898  -2.536  29.492  0.00  0.00    -0.018 A 
ATOM     12  C   UNL A   1     -25.189  -5.197  29.042  0.00  0.00    -0.000 A 
ATOM     13  C   UNL A   1     -26.237  -4.527  29.664  0.00  0.00    -0.000 A 
ATOM     14  C   UNL A   1     -26.138  -3.180  29.943  0.00  0.00    -0.004 A 
ENDBRANCH   1  11
TORSDOF 2
ENDMDL
ENDMDL
