REMARK  Name = outputs/IAG933/test6/raw/output_1295_IAG933_linker_design_.xyz
REMARK  20 active torsions:
REMARK  status: ('A' for Active; 'I' for Inactive)
REMARK    1  A    between atoms: C_1  and  C_2
REMARK    2  A    between atoms: C_1  and  C_8
REMARK    3  A    between atoms: C_1  and  C_45
REMARK    4  A    between atoms: C_9  and  C_34
REMARK    5  A    between atoms: C_13  and  C_47
REMARK    6  A    between atoms: C_14  and  C_15
REMARK    7  A    between atoms: C_21  and  O_22
REMARK    8  A    between atoms: O_22  and  C_23
REMARK    9  A    between atoms: C_23  and  C_24
REMARK   10  A    between atoms: C_28  and  C_34
REMARK   11  A    between atoms: C_28  and  C_42
REMARK   12  A    between atoms: C_29  and  C_36
REMARK   13  A    between atoms: C_32  and  C_42
REMARK   14  A    between atoms: C_33  and  C_40
REMARK   15  A    between atoms: C_33  and  C_49
REMARK   16  A    between atoms: C_37  and  C_43
REMARK   17  A    between atoms: C_37  and  C_47
REMARK   18  A    between atoms: C_38  and  C_49
REMARK   19  A    between atoms: C_43  and  C_45
REMARK   20  A    between atoms: C_49  and  C_51
REMARK                            x       y       z     vdW  Elec       q    Type
REMARK                         _______ _______ _______ _____ _____    ______ ____
ROOT
ATOM      1  C   UNL A   1     -25.387  -0.679  31.571  0.00  0.00    +0.077 C 
ATOM      2  C   UNL A   1     -25.189   0.773  32.028  0.00  0.00    +0.018 C 
ATOM      3  C   UNL A   1     -25.336   0.684  33.544  0.00  0.00    +0.020 C 
ATOM      4  C   UNL A   1     -24.829  -0.715  33.905  0.00  0.00    +0.089 C 
ATOM      5  N   UNL A   1     -24.758  -1.481  32.646  0.00  0.00    -0.219 NA
ENDROOT
BRANCH   1   6
ATOM      6  C   UNL A   1     -24.855  -1.012  30.143  0.00  0.00    +0.038 C 
BRANCH   6   7
ATOM      7  C   UNL A   1     -24.973  -2.505  29.788  0.00  0.00    -0.021 C 
ATOM      8  C   UNL A   1     -23.906  -3.173  29.146  0.00  0.00    -0.004 C 
ATOM      9  C   UNL A   1     -23.989  -4.549  28.853  0.00  0.00    -0.000 C 
ATOM     10  C   UNL A   1     -25.137  -5.280  29.205  0.00  0.00    -0.000 C 
ATOM     11  C   UNL A   1     -26.232  -4.611  29.784  0.00  0.00    -0.000 C 
ATOM     12  C   UNL A   1     -26.155  -3.232  30.065  0.00  0.00    -0.004 C 
ENDBRANCH   6   7
BRANCH   6  13
ATOM     13  C   UNL A   1     -23.679  -0.145  29.859  0.00  0.00    +0.006 C 
BRANCH  13  14
ATOM     14  C   UNL A   1     -23.595   0.502  28.632  0.00  0.00    +0.001 C 
ATOM     15  C   UNL A   1     -22.158   0.943  28.209  0.00  0.00    +0.000 C 
BRANCH  14  16
ATOM     16  C   UNL A   1     -24.631   0.566  28.217  0.00  0.00    +0.005 C 
BRANCH  16  17
ATOM     17  C   UNL A   1     -24.632   1.456  27.212  0.00  0.00    +0.029 C 
BRANCH  17  18
ATOM     18  C   UNL A   1     -25.688   1.614  26.461  0.00  0.00    +0.016 C 
ATOM     19  C   UNL A   1     -26.250   2.920  26.395  0.00  0.00    +0.073 C 
ATOM     20  C   UNL A   1     -27.438   3.091  25.645  0.00  0.00    +0.106 C 
ATOM     21  N   UNL A   1     -28.075   2.089  25.003  0.00  0.00    -0.208 NA
ATOM     22  C   UNL A   1     -27.543   0.849  25.079  0.00  0.00    +0.253 C 
ATOM     23  C   UNL A   1     -26.354   0.576  25.777  0.00  0.00    +0.189 C 
ATOM     24  F   UNL A   1     -25.860  -0.681  25.795  0.00  0.00    -0.200 F 
BRANCH  19  25
ATOM     25  C   UNL A   1     -25.642   4.093  27.123  0.00  0.00    +0.266 C 
ATOM     26  N   UNL A   1     -25.614   5.252  26.449  0.00  0.00    -0.200 NA
ATOM     27  C   UNL A   1     -25.026   6.479  26.963  0.00  0.00    +0.139 C 
ATOM     28  O   UNL A   1     -25.143   3.966  28.243  0.00  0.00    -0.268 OA
ENDBRANCH  19  25
BRANCH  22  29
ATOM     29  O   UNL A   1     -28.193  -0.208  24.477  0.00  0.00    -0.456 OA
BRANCH  29  30
ATOM     30  C   UNL A   1     -29.460   0.005  23.866  0.00  0.00    +0.243 C 
BRANCH  30  31
ATOM     31  C   UNL A   1     -30.065  -1.377  23.573  0.00  0.00    +0.229 C 
ATOM     32  O   UNL A   1     -30.729  -1.878  24.721  0.00  0.00    -0.216 OA
ENDBRANCH  30  31
ENDBRANCH  29  30
ENDBRANCH  22  29
ENDBRANCH  17  18
ENDBRANCH  16  17
ENDBRANCH  14  16
ENDBRANCH  13  14
ENDBRANCH   6  13
ENDBRANCH   1   6
BRANCH   2  33
ATOM     33  C   UNL A   1     -25.896   2.100  31.300  0.00  0.00    +0.001 C 
BRANCH  33  34
ATOM     34  C   UNL A   1     -27.191   2.739  30.613  0.00  0.00    +0.000 C 
BRANCH  34  35
ATOM     35  C   UNL A   1     -28.082   2.999  31.671  0.00  0.00    +0.001 C 
BRANCH  35  36
ATOM     36  C   UNL A   1     -28.340   1.823  32.593  0.00  0.00    +0.009 C 
ATOM     37  C   UNL A   1     -29.157   0.752  31.913  0.00  0.00    +0.060 C 
ATOM     38  C   UNL A   1     -29.787  -0.208  32.624  0.00  0.00    +0.080 C 
ATOM     39  C   UNL A   1     -29.146   2.390  33.763  0.00  0.00    +0.019 C 
ATOM     40  N   UNL A   1     -30.580   0.312  33.542  0.00  0.00    -0.219 NA
ATOM     41  C   UNL A   1     -30.427   1.643  34.011  0.00  0.00    +0.089 C 
BRANCH  37  42
ATOM     42  C   UNL A   1     -29.716   1.185  30.642  0.00  0.00    +0.069 C 
ATOM     43  O   UNL A   1     -31.044   3.092  31.428  0.00  0.00    -0.420 OA
ATOM     44  N   UNL A   1     -30.773   1.910  30.641  0.00  0.00    -0.283 N 
ATOM     45  C   UNL A   1     -31.999   1.288  30.223  0.00  0.00    +0.120 C 
ATOM     46  O   UNL A   1     -29.258   0.901  29.533  0.00  0.00    -0.541 OA
ENDBRANCH  37  42
BRANCH  38  47
ATOM     47  C   UNL A   1     -29.682  -1.624  32.304  0.00  0.00    +0.038 C 
BRANCH  47  50
ATOM     48  S   UNL A   1     -31.373  -3.315  30.279  0.00  0.00    -0.010 S 
ATOM     49  C   UNL A   1     -28.850  -3.478  30.568  0.00  0.00    +0.025 C 
ATOM     50  C   UNL A   1     -30.063  -2.443  30.977  0.00  0.00    +0.134 C 
ATOM     51  O   UNL A   1     -31.620  -2.938  29.005  0.00  0.00    -0.173 OA
ATOM     52  O   UNL A   1     -31.281  -4.722  30.421  0.00  0.00    -0.173 OA
ATOM     53  C   UNL A   1     -31.638  -2.696  31.461  0.00  0.00    +0.172 C 
ENDBRANCH  47  50
BRANCH  47  54
ATOM     54  C   UNL A   1     -29.670  -2.698  33.119  0.00  0.00    +0.006 C 
BRANCH  54  57
ATOM     55  C   UNL A   1     -29.719  -2.135  35.228  0.00  0.00    +0.035 C 
ATOM     56  O   UNL A   1     -30.615  -4.253  35.596  0.00  0.00    -0.354 OA
ATOM     57  C   UNL A   1     -29.059  -3.147  34.296  0.00  0.00    +0.032 C 
ATOM     58  C   UNL A   1     -30.350  -3.019  36.278  0.00  0.00    +0.142 C 
ATOM     59  C   UNL A   1     -29.522  -4.516  34.611  0.00  0.00    +0.142 C 
ENDBRANCH  54  57
ENDBRANCH  47  54
ENDBRANCH  38  47
ENDBRANCH  35  36
ENDBRANCH  34  35
ENDBRANCH  33  34
ENDBRANCH   2  33
TORSDOF 20
