MODEL 1295
MODEL 1
REMARK VINA RESULT:    -5.163      0.000      0.000
REMARK INTER + INTRA:          -5.503
REMARK INTER:                  -5.465
REMARK INTRA:                  -0.038
REMARK UNBOUND:                -0.038
REMARK  Name = No_1295-gen_results/8p0m/2024-11-27-11-27-31/
REMARK  1 active torsions:
REMARK  status: ('A' for Active; 'I' for Inactive)
REMARK    1  A    between atoms: C_2  and  C_7
REMARK                            x       y       z     vdW  Elec       q    Type
REMARK                         _______ _______ _______ _____ _____    ______ ____
ROOT
ATOM      1  C   UNL A   1      -8.508 -10.512  18.435  0.00  0.00    +0.007 A 
ATOM      2  C   UNL A   1      -9.480 -10.123  18.311  0.00  0.00    +0.080 A 
ATOM      3  C   UNL A   1      -7.806 -10.111  19.713  0.00  0.00    +0.000 A 
ATOM      4  C   UNL A   1      -8.516  -9.390  20.695  0.00  0.00    +0.000 A 
ATOM      5  C   UNL A   1     -10.439  -9.395  19.172  0.00  0.00    +0.007 A 
ATOM      6  C   UNL A   1      -9.831  -9.015  20.360  0.00  0.00    +0.000 A 
ENDROOT
BRANCH   2   7
ATOM      7  C   UNL A   1     -10.255 -10.543  16.969  0.00  0.00    +0.388 C 
ATOM      8  O   UNL A   1      -9.559 -10.992  15.988  0.00  0.00    -0.241 OA
ATOM      9  O   UNL A   1     -11.479 -10.507  17.002  0.00  0.00    -0.241 OA
ENDBRANCH   2   7
TORSDOF 1
ENDMDL
ENDMDL
