MODEL 1296
MODEL 1
REMARK VINA RESULT:    -7.070      0.000      0.000
REMARK INTER + INTRA:          -8.813
REMARK INTER:                  -8.310
REMARK INTRA:                  -0.502
REMARK UNBOUND:                -0.502
REMARK  Name = No_1296-gen_results/8p0m/2024-11-27-11-27-31/
REMARK  3 active torsions:
REMARK  status: ('A' for Active; 'I' for Inactive)
REMARK    1  A    between atoms: N_12  and  C_13
REMARK    2  A    between atoms: C_14  and  C_19
REMARK    3  A    between atoms: C_20  and  C_21
REMARK                            x       y       z     vdW  Elec       q    Type
REMARK                         _______ _______ _______ _____ _____    ______ ____
ROOT
ATOM      1 CL   UNL A   1     -25.789  -0.939  36.801  0.00  0.00    -0.082 Cl
ATOM      2  C   UNL A   1     -25.550  -0.703  35.482  0.00  0.00    +0.058 A 
ATOM      3  C   UNL A   1     -26.505  -0.397  34.664  0.00  0.00    +0.013 A 
ATOM      4  C   UNL A   1     -26.357  -0.238  33.217  0.00  0.00    +0.020 A 
ATOM      5  C   UNL A   1     -25.064  -0.452  32.679  0.00  0.00    +0.083 A 
ATOM      6  C   UNL A   1     -24.062  -0.851  33.555  0.00  0.00    +0.019 A 
ATOM      7  C   UNL A   1     -24.274  -1.027  34.887  0.00  0.00    +0.013 A 
ATOM      8  N   UNL A   1     -24.864  -0.324  31.331  0.00  0.00    -0.229 NA
ATOM      9  C   UNL A   1     -23.954  -0.967  30.732  0.00  0.00    +0.152 A 
ATOM     10  C   UNL A   1     -22.843  -1.388  31.525  0.00  0.00    +0.036 A 
ATOM     11  C   UNL A   1     -22.948  -1.551  32.890  0.00  0.00    +0.004 A 
ATOM     12  N   UNL A   1     -23.730  -0.827  29.355  0.00  0.00    -0.194 NA
ENDROOT
BRANCH  12  13
ATOM     13  C   UNL A   1     -23.329   0.016  28.643  0.00  0.00    +0.072 A 
ATOM     14  C   UNL A   1     -23.610   0.836  28.075  0.00  0.00    +0.015 A 
ATOM     15  C   UNL A   1     -22.862   1.867  27.295  0.00  0.00    +0.001 A 
ATOM     16  C   UNL A   1     -21.742  -0.092  28.632  0.00  0.00    +0.017 A 
ATOM     17  C   UNL A   1     -20.921   0.800  27.972  0.00  0.00    +0.001 A 
ATOM     18  C   UNL A   1     -21.541   1.765  27.242  0.00  0.00    +0.000 A 
BRANCH  14  19
ATOM     19  C   UNL A   1     -25.172   1.108  27.926  0.00  0.00    +0.001 C 
ATOM     20  C   UNL A   1     -25.776   0.566  26.882  0.00  0.00    -0.000 C 
BRANCH  20  21
ATOM     21  C   UNL A   1     -25.068  -0.018  25.764  0.00  0.00    -0.005 C 
ATOM     22  C   UNL A   1     -25.818  -0.128  24.518  0.00  0.00    -0.026 C 
ATOM     23  C   UNL A   1     -27.232   0.118  24.613  0.00  0.00    +0.031 C 
ENDBRANCH  20  21
ENDBRANCH  14  19
ENDBRANCH  12  13
TORSDOF 3
ENDMDL
ENDMDL
