REMARK  Name = outputs/IAG933/test6/raw/output_1296_IAG933_linker_design_.xyz
REMARK  16 active torsions:
REMARK  status: ('A' for Active; 'I' for Inactive)
REMARK    1  A    between atoms: C_1  and  C_2
REMARK    2  A    between atoms: C_1  and  C_8
REMARK    3  A    between atoms: C_1  and  C_35
REMARK    4  A    between atoms: C_13  and  C_29
REMARK    5  A    between atoms: C_14  and  C_15
REMARK    6  A    between atoms: C_21  and  O_22
REMARK    7  A    between atoms: O_22  and  C_23
REMARK    8  A    between atoms: C_23  and  C_24
REMARK    9  A    between atoms: O_28  and  N_37
REMARK   10  A    between atoms: C_29  and  C_35
REMARK   11  A    between atoms: C_29  and  N_37
REMARK   12  A    between atoms: C_33  and  C_39
REMARK   13  A    between atoms: C_35  and  C_42
REMARK   14  A    between atoms: O_38  and  C_43
REMARK   15  A    between atoms: C_39  and  C_43
REMARK   16  A    between atoms: N_41  and  C_42
REMARK                            x       y       z     vdW  Elec       q    Type
REMARK                         _______ _______ _______ _____ _____    ______ ____
ROOT
ATOM      1  C   UNL A   1     -24.948   1.106  27.766  0.00  0.00    +0.184 C 
ENDROOT
BRANCH   1   2
ATOM      2  C   UNL A   1     -25.688   1.614  26.461  0.00  0.00    +0.109 C 
ATOM      3  C   UNL A   1     -26.250   2.920  26.395  0.00  0.00    +0.058 C 
ATOM      4  C   UNL A   1     -27.438   3.091  25.645  0.00  0.00    +0.102 C 
ATOM      5  N   UNL A   1     -28.075   2.089  25.003  0.00  0.00    -0.212 NA
ATOM      6  C   UNL A   1     -27.543   0.849  25.079  0.00  0.00    +0.234 C 
ATOM      7  C   UNL A   1     -26.354   0.576  25.777  0.00  0.00    +0.243 C 
ATOM      8  F   UNL A   1     -25.860  -0.681  25.795  0.00  0.00    -0.227 F 
BRANCH   3   9
ATOM      9  C   UNL A   1     -25.642   4.093  27.123  0.00  0.00    +0.263 C 
ATOM     10  N   UNL A   1     -25.614   5.252  26.449  0.00  0.00    -0.200 NA
ATOM     11  C   UNL A   1     -25.026   6.479  26.963  0.00  0.00    +0.139 C 
ATOM     12  O   UNL A   1     -25.143   3.966  28.243  0.00  0.00    -0.269 OA
ENDBRANCH   3   9
BRANCH   6  13
ATOM     13  O   UNL A   1     -28.193  -0.208  24.477  0.00  0.00    -0.459 OA
BRANCH  13  14
ATOM     14  C   UNL A   1     -29.460   0.005  23.866  0.00  0.00    +0.242 C 
BRANCH  14  15
ATOM     15  C   UNL A   1     -30.065  -1.377  23.573  0.00  0.00    +0.229 C 
ATOM     16  O   UNL A   1     -30.729  -1.878  24.721  0.00  0.00    -0.216 OA
ENDBRANCH  14  15
ENDBRANCH  13  14
ENDBRANCH   6  13
ENDBRANCH   1   2
BRANCH   1  19
ATOM     17  C   UNL A   1     -22.364   1.196  28.165  0.00  0.00    +0.529 C 
ATOM     18  N   UNL A   1     -22.444   0.652  29.414  0.00  0.00    +0.135 NA
ATOM     19  N   UNL A   1     -23.526   1.143  27.347  0.00  0.00    -0.104 N 
ATOM     20  N   UNL A   1     -21.218   1.662  27.760  0.00  0.00    +0.135 NA
BRANCH  19  21
ATOM     21  O   UNL A   1     -23.145   1.286  26.014  0.00  0.00    -0.199 OA
ATOM     22  C   UNL A   1     -23.182   2.456  25.173  0.00  0.00    +0.227 C 
ENDBRANCH  19  21
ENDBRANCH   1  19
BRANCH   1  23
ATOM     23  C   UNL A   1     -25.362  -0.054  28.926  0.00  0.00    +0.067 C 
BRANCH  23  24
ATOM     24  C   UNL A   1     -24.855  -1.012  30.143  0.00  0.00    +0.043 C 
BRANCH  24  25
ATOM     25  C   UNL A   1     -24.973  -2.505  29.788  0.00  0.00    -0.021 C 
ATOM     26  C   UNL A   1     -23.906  -3.173  29.146  0.00  0.00    -0.004 C 
ATOM     27  C   UNL A   1     -23.989  -4.549  28.853  0.00  0.00    -0.000 C 
ATOM     28  C   UNL A   1     -25.137  -5.280  29.205  0.00  0.00    -0.000 C 
ATOM     29  C   UNL A   1     -26.232  -4.611  29.784  0.00  0.00    -0.000 C 
ATOM     30  C   UNL A   1     -26.155  -3.232  30.065  0.00  0.00    -0.004 C 
ENDBRANCH  24  25
BRANCH  24  31
ATOM     31  C   UNL A   1     -25.387  -0.679  31.571  0.00  0.00    +0.077 C 
ATOM     32  C   UNL A   1     -25.189   0.773  32.028  0.00  0.00    +0.019 C 
ATOM     33  C   UNL A   1     -25.336   0.684  33.544  0.00  0.00    +0.020 C 
ATOM     34  C   UNL A   1     -24.829  -0.715  33.905  0.00  0.00    +0.089 C 
ATOM     35  N   UNL A   1     -24.758  -1.481  32.646  0.00  0.00    -0.219 NA
ENDBRANCH  24  31
ENDBRANCH  23  24
BRANCH  23  36
ATOM     36  C   UNL A   1     -26.847  -0.452  28.679  0.00  0.00    +0.119 C 
BRANCH  36  39
ATOM     37  C   UNL A   1     -28.617   1.109  29.181  0.00  0.00    +0.244 C 
ATOM     38  O   UNL A   1     -29.373   1.563  28.353  0.00  0.00    -0.273 OA
ATOM     39  N   UNL A   1     -27.498   0.483  28.832  0.00  0.00    -0.205 NA
BRANCH  37  40
ATOM     40  C   UNL A   1     -28.924   0.995  30.618  0.00  0.00    +0.119 C 
BRANCH  40  41
ATOM     41  C   UNL A   1     -28.338   2.309  31.181  0.00  0.00    +0.152 C 
BRANCH  41  43
ATOM     42  C   UNL A   1     -30.456   3.234  30.449  0.00  0.00    +0.174 C 
ATOM     43  O   UNL A   1     -29.029   3.377  30.535  0.00  0.00    -0.351 OA
ENDBRANCH  41  43
ENDBRANCH  40  41
ENDBRANCH  37  40
ENDBRANCH  36  39
ENDBRANCH  23  36
ENDBRANCH   1  23
TORSDOF 16
