MODEL 1297
MODEL 1
REMARK VINA RESULT:    -3.575      0.000      0.000
REMARK INTER + INTRA:          -3.784
REMARK INTER:                  -3.784
REMARK INTRA:                   0.000
REMARK UNBOUND:                 0.000
REMARK  Name = No_1297-gen_results/8p0m/2024-11-27-11-27-31/
REMARK  1 active torsions:
REMARK  status: ('A' for Active; 'I' for Inactive)
REMARK    1  A    between atoms: C_2  and  C_4
REMARK                            x       y       z     vdW  Elec       q    Type
REMARK                         _______ _______ _______ _____ _____    ______ ____
ROOT
ATOM      1  F   UNL A   1      -9.929  -9.253  21.026  0.00  0.00    -0.198 F 
ATOM      2  C   UNL A   1      -9.472  -9.254  19.975  0.00  0.00    +0.319 C 
ATOM      3  F   UNL A   1     -10.221  -9.183  19.068  0.00  0.00    -0.198 F 
ENDROOT
BRANCH   2   4
ATOM      4  C   UNL A   1      -8.054  -9.404  19.851  0.00  0.00    +0.072 C 
ATOM      5  C   UNL A   1      -7.203  -8.228  19.706  0.00  0.00    +0.006 C 
ENDBRANCH   2   4
TORSDOF 1
ENDMDL
ENDMDL
