REMARK  Name = No_1297-gen_results/8p0m/2024-11-27-11-27-31/
REMARK  1 active torsions:
REMARK  status: ('A' for Active; 'I' for Inactive)
REMARK    1  A    between atoms: C_2  and  C_4
REMARK                            x       y       z     vdW  Elec       q    Type
REMARK                         _______ _______ _______ _____ _____    ______ ____
ROOT
ATOM      1  F   UNL A   1     -28.073  -1.254  28.532  0.00  0.00    -0.198 F 
ATOM      2  C   UNL A   1     -27.359  -0.379  28.722  0.00  0.00    +0.319 C 
ATOM      3  F   UNL A   1     -27.758   0.497  29.401  0.00  0.00    -0.198 F 
ENDROOT
BRANCH   2   4
ATOM      4  C   UNL A   1     -26.081  -0.392  28.077  0.00  0.00    +0.072 C 
ATOM      5  C   UNL A   1     -24.920  -0.949  28.762  0.00  0.00    +0.006 C 
ENDBRANCH   2   4
TORSDOF 1
