MODEL 1298
MODEL 1
REMARK VINA RESULT:    -8.380      0.000      0.000
REMARK INTER + INTRA:         -12.811
REMARK INTER:                 -11.319
REMARK INTRA:                  -1.492
REMARK UNBOUND:                -1.492
REMARK  Name = No_1298-gen_results/8p0m/2024-11-27-11-27-31/
REMARK  6 active torsions:
REMARK  status: ('A' for Active; 'I' for Inactive)
REMARK    1  A    between atoms: C_2  and  C_11
REMARK    2  A    between atoms: C_3  and  C_4
REMARK    3  A    between atoms: C_14  and  C_15
REMARK    4  A    between atoms: C_15  and  C_16
REMARK    5  A    between atoms: C_15  and  C_27
REMARK    6  A    between atoms: C_18  and  C_34
REMARK                            x       y       z     vdW  Elec       q    Type
REMARK                         _______ _______ _______ _____ _____    ______ ____
ROOT
ATOM      1  C   UNL A   1     -10.092   1.517  35.732  0.00  0.00    +0.123 C 
ENDROOT
BRANCH   1   2
ATOM      2  C   UNL A   1     -10.174   0.785  36.713  0.00  0.00    -0.010 A 
ATOM      3  C   UNL A   1      -9.420   1.143  37.767  0.00  0.00    -0.008 A 
ATOM      4  C   UNL A   1      -9.414   0.400  39.056  0.00  0.00    -0.022 A 
ATOM      5  C   UNL A   1     -10.236  -0.728  39.089  0.00  0.00    -0.004 A 
ATOM      6  C   UNL A   1     -10.953  -1.102  37.979  0.00  0.00    -0.001 A 
ATOM      7  C   UNL A   1     -10.939  -0.354  36.853  0.00  0.00    -0.004 A 
ATOM      8  C   UNL A   1     -11.833  -2.310  38.100  0.00  0.00    -0.000 A 
ATOM      9  C   UNL A   1     -12.262  -2.724  38.967  0.00  0.00    -0.000 A 
ATOM     10  C   UNL A   1     -11.574  -2.344  40.327  0.00  0.00    -0.000 A 
ATOM     11  C   UNL A   1     -10.592  -1.389  40.370  0.00  0.00    -0.000 A 
BRANCH   4  12
ATOM     12  C   UNL A   1      -8.677   0.825  40.243  0.00  0.00    +0.026 C 
ATOM     13  C   UNL A   1      -7.384   0.736  40.364  0.00  0.00    +0.005 C 
ENDBRANCH   4  12
ENDBRANCH   1   2
BRANCH   1  14
ATOM     14  C   UNL A   1     -10.314   2.949  35.793  0.00  0.00    -0.010 A 
ATOM     15  C   UNL A   1     -11.492   3.429  36.271  0.00  0.00    -0.003 A 
ATOM     16  C   UNL A   1      -9.274   3.888  35.468  0.00  0.00    -0.003 A 
ATOM     17  C   UNL A   1     -11.761   4.738  36.496  0.00  0.00    +0.011 A 
ATOM     18  C   UNL A   1      -9.531   5.245  35.609  0.00  0.00    +0.011 A 
ATOM     19  C   UNL A   1     -10.739   5.664  36.107  0.00  0.00    +0.058 A 
ATOM     20 CL   UNL A   1     -10.985   7.348  36.262  0.00  0.00    -0.082 Cl
ENDBRANCH   1  14
BRANCH   1  24
ATOM     21  C   UNL A   1      -7.371   0.573  34.989  0.00  0.00    +0.271 C 
ATOM     22  O   UNL A   1      -7.150   1.482  35.595  0.00  0.00    -0.268 OA
ATOM     23  N   UNL A   1      -8.563   0.237  34.426  0.00  0.00    -0.140 NA
ATOM     24  C   UNL A   1      -9.726   1.154  34.499  0.00  0.00    +0.256 C 
ATOM     25  O   UNL A   1     -10.136   1.352  33.347  0.00  0.00    -0.272 OA
BRANCH  21  27
ATOM     26  C   UNL A   1      -5.118   0.140  34.744  0.00  0.00    +0.008 A 
ATOM     27  C   UNL A   1      -6.051  -0.350  34.744  0.00  0.00    +0.055 A 
ATOM     28  C   UNL A   1      -3.992  -0.744  34.447  0.00  0.00    +0.072 A 
ATOM     29  C   UNL A   1      -6.495  -1.718  34.514  0.00  0.00    +0.005 A 
ATOM     30  C   UNL A   1      -5.458  -2.586  34.243  0.00  0.00    +0.000 A 
ATOM     31  C   UNL A   1      -4.202  -2.116  34.152  0.00  0.00    +0.004 A 
BRANCH  28  32
ATOM     32  C   UNL A   1      -2.598  -0.273  34.288  0.00  0.00    +0.419 C 
ATOM     33  F   UNL A   1      -2.335   0.667  34.610  0.00  0.00    -0.166 F 
ATOM     34  F   UNL A   1      -2.242  -0.455  32.917  0.00  0.00    -0.166 F 
ATOM     35  F   UNL A   1      -1.711  -1.250  34.902  0.00  0.00    -0.166 F 
ENDBRANCH  28  32
ENDBRANCH  21  27
ENDBRANCH   1  24
TORSDOF 6
ENDMDL
ENDMDL
