REMARK  Name = No_1298-gen_results/8p0m/2024-11-27-11-27-31/
REMARK  6 active torsions:
REMARK  status: ('A' for Active; 'I' for Inactive)
REMARK    1  A    between atoms: C_2  and  C_11
REMARK    2  A    between atoms: C_3  and  C_4
REMARK    3  A    between atoms: C_14  and  C_15
REMARK    4  A    between atoms: C_15  and  C_16
REMARK    5  A    between atoms: C_15  and  C_27
REMARK    6  A    between atoms: C_18  and  C_34
REMARK                            x       y       z     vdW  Elec       q    Type
REMARK                         _______ _______ _______ _____ _____    ______ ____
ROOT
ATOM      1  C   UNL A   1     -31.006  -4.078  31.703  0.00  0.00    +0.123 C 
ENDROOT
BRANCH   1   2
ATOM      2  C   UNL A   1     -31.319  -3.076  32.338  0.00  0.00    -0.010 A 
ATOM      3  C   UNL A   1     -30.608  -2.855  33.457  0.00  0.00    -0.008 A 
ATOM      4  C   UNL A   1     -30.817  -1.673  34.337  0.00  0.00    -0.022 A 
ATOM      5  C   UNL A   1     -31.836  -0.810  33.931  0.00  0.00    -0.004 A 
ATOM      6  C   UNL A   1     -32.584  -1.090  32.813  0.00  0.00    -0.001 A 
ATOM      7  C   UNL A   1     -32.309  -2.164  32.039  0.00  0.00    -0.004 A 
ATOM      8  C   UNL A   1     -33.643  -0.102  32.426  0.00  0.00    -0.000 A 
ATOM      9  C   UNL A   1     -33.697   0.924  32.652  0.00  0.00    -0.000 A 
ATOM     10  C   UNL A   1     -32.850   1.405  33.885  0.00  0.00    -0.000 A 
ATOM     11  C   UNL A   1     -31.966   0.556  34.498  0.00  0.00    -0.000 A 
BRANCH   4  12
ATOM     12  C   UNL A   1     -29.994  -1.364  35.503  0.00  0.00    +0.026 C 
ATOM     13  C   UNL A   1     -28.858  -0.732  35.441  0.00  0.00    +0.005 C 
ENDBRANCH   4  12
ENDBRANCH   1   2
BRANCH   1  14
ATOM     14  C   UNL A   1     -31.924  -5.170  31.445  0.00  0.00    -0.010 A 
ATOM     15  C   UNL A   1     -32.440  -5.877  32.484  0.00  0.00    -0.003 A 
ATOM     16  C   UNL A   1     -32.399  -5.459  30.118  0.00  0.00    -0.003 A 
ATOM     17  C   UNL A   1     -33.401  -6.827  32.374  0.00  0.00    +0.011 A 
ATOM     18  C   UNL A   1     -33.327  -6.477  29.947  0.00  0.00    +0.011 A 
ATOM     19  C   UNL A   1     -33.816  -7.146  31.040  0.00  0.00    +0.058 A 
ATOM     20 CL   UNL A   1     -34.962  -8.382  30.758  0.00  0.00    -0.082 Cl
ENDBRANCH   1  14
BRANCH   1  24
ATOM     21  C   UNL A   1     -29.461  -2.018  30.213  0.00  0.00    +0.271 C 
ATOM     22  O   UNL A   1     -30.492  -1.877  29.814  0.00  0.00    -0.268 OA
ATOM     23  N   UNL A   1     -28.989  -3.099  30.892  0.00  0.00    -0.140 NA
ATOM     24  C   UNL A   1     -29.835  -4.299  31.097  0.00  0.00    +0.256 C 
ATOM     25  O   UNL A   1     -29.217  -5.286  30.675  0.00  0.00    -0.272 OA
BRANCH  21  27
ATOM     26  C   UNL A   1     -28.016  -0.814  28.878  0.00  0.00    +0.008 A 
ATOM     27  C   UNL A   1     -28.469  -0.785  29.829  0.00  0.00    +0.055 A 
ATOM     28  C   UNL A   1     -27.087   0.290  28.638  0.00  0.00    +0.072 A 
ATOM     29  C   UNL A   1     -28.391   0.104  30.980  0.00  0.00    +0.005 A 
ATOM     30  C   UNL A   1     -27.533   1.167  30.787  0.00  0.00    +0.000 A 
ATOM     31  C   UNL A   1     -26.828   1.256  29.645  0.00  0.00    +0.004 A 
BRANCH  28  32
ATOM     32  C   UNL A   1     -26.252   0.411  27.422  0.00  0.00    +0.419 C 
ATOM     33  F   UNL A   1     -26.289  -0.321  26.701  0.00  0.00    -0.166 F 
ATOM     34  F   UNL A   1     -24.907   0.630  27.850  0.00  0.00    -0.166 F 
ATOM     35  F   UNL A   1     -26.525   1.700  26.805  0.00  0.00    -0.166 F 
ENDBRANCH  28  32
ENDBRANCH  21  27
ENDBRANCH   1  24
TORSDOF 6
