MODEL 12
MODEL 1
REMARK VINA RESULT:    -6.159      0.000      0.000
REMARK INTER + INTRA:          -6.633
REMARK INTER:                  -6.519
REMARK INTRA:                  -0.115
REMARK UNBOUND:                -0.115
REMARK  Name = No_12-gen_results/8p0m/2024-11-27-11-27-31/
REMARK  1 active torsions:
REMARK  status: ('A' for Active; 'I' for Inactive)
REMARK    1  A    between atoms: C_5  and  C_6
REMARK                            x       y       z     vdW  Elec       q    Type
REMARK                         _______ _______ _______ _____ _____    ______ ____
ROOT
ATOM      1  C   UNL A   1     -24.614  -0.345  27.574  0.00  0.00    +0.173 C 
ATOM      2  C   UNL A   1     -23.618   0.049  28.135  0.00  0.00    +0.031 A 
ATOM      3  C   UNL A   1     -23.083  -0.641  29.218  0.00  0.00    -0.019 A 
ATOM      4  C   UNL A   1     -23.478  -1.844  29.517  0.00  0.00    +0.027 C 
ATOM      5  C   UNL A   1     -24.670  -2.341  28.887  0.00  0.00    +0.012 C 
ATOM      6  C   UNL A   1     -25.229  -1.616  27.864  0.00  0.00    +0.070 C 
ATOM      7  C   UNL A   1     -23.005   1.439  27.892  0.00  0.00    +0.003 A 
ATOM      8  C   UNL A   1     -21.728   1.521  27.728  0.00  0.00    +0.000 A 
ATOM      9  C   UNL A   1     -20.820   0.497  28.074  0.00  0.00    -0.000 A 
ATOM     10  C   UNL A   1     -21.405  -0.531  29.042  0.00  0.00    -0.004 A 
ATOM     11  O   UNL A   1     -25.336   0.344  26.695  0.00  0.00    -0.291 OA
ENDROOT
BRANCH   5  12
ATOM     12  C   UNL A   1     -25.117  -3.644  29.184  0.00  0.00    +0.001 C 
ATOM     13  C   UNL A   1     -24.141  -4.667  28.536  0.00  0.00    +0.000 C 
ENDBRANCH   5  12
TORSDOF 1
ENDMDL
ENDMDL
