MODEL 1301
MODEL 1
REMARK VINA RESULT:    -7.139      0.000      0.000
REMARK INTER + INTRA:          -9.161
REMARK INTER:                  -8.391
REMARK INTRA:                  -0.770
REMARK UNBOUND:                -0.770
REMARK  Name = No_1301-gen_results/8p0m/2024-11-27-11-27-31/
REMARK  3 active torsions:
REMARK  status: ('A' for Active; 'I' for Inactive)
REMARK    1  A    between atoms: C_3  and  C_8
REMARK    2  A    between atoms: C_6  and  O_7
REMARK    3  A    between atoms: O_7  and  C_14
REMARK                            x       y       z     vdW  Elec       q    Type
REMARK                         _______ _______ _______ _____ _____    ______ ____
ROOT
ATOM      1  C   UNL A   1      -6.388   0.988  35.203  0.00  0.00    +0.037 A 
ATOM      2  C   UNL A   1      -5.237   0.759  34.910  0.00  0.00    +0.003 A 
ATOM      3  C   UNL A   1      -4.833  -0.515  34.527  0.00  0.00    +0.000 A 
ATOM      4  C   UNL A   1      -5.763  -1.614  34.514  0.00  0.00    +0.003 A 
ATOM      5  C   UNL A   1      -7.067  -1.267  34.890  0.00  0.00    +0.037 A 
ATOM      6  C   UNL A   1      -7.394  -0.050  35.260  0.00  0.00    +0.145 A 
ENDROOT
BRANCH   3   7
ATOM      7  C   UNL A   1      -3.434  -0.921  34.129  0.00  0.00    +0.000 A 
ATOM      8  C   UNL A   1      -2.423  -0.087  34.298  0.00  0.00    +0.000 A 
ATOM      9  C   UNL A   1      -1.102  -0.453  33.846  0.00  0.00    +0.000 A 
ATOM     10  C   UNL A   1      -0.874  -1.635  33.119  0.00  0.00    +0.000 A 
ATOM     11  C   UNL A   1      -3.182  -2.253  33.638  0.00  0.00    +0.000 A 
ATOM     12  C   UNL A   1      -1.878  -2.525  33.056  0.00  0.00    +0.000 A 
ENDBRANCH   3   7
BRANCH   6  13
ATOM     13  O   UNL A   1      -8.676   0.195  35.648  0.00  0.00    -0.454 OA
BRANCH  13  14
ATOM     14  C   UNL A   1      -9.125  -0.167  36.863  0.00  0.00    +0.145 A 
ATOM     15  C   UNL A   1      -9.960  -1.165  36.802  0.00  0.00    +0.037 A 
ATOM     16  C   UNL A   1     -10.727  -1.529  37.964  0.00  0.00    +0.003 A 
ATOM     17  C   UNL A   1     -11.700  -2.429  37.960  0.00  0.00    +0.000 A 
ATOM     18  C   UNL A   1     -12.534  -2.700  39.034  0.00  0.00    +0.000 A 
ATOM     19  C   UNL A   1     -12.254  -1.984  40.236  0.00  0.00    +0.000 A 
ATOM     20  C   UNL A   1     -11.271  -1.075  40.306  0.00  0.00    +0.000 A 
ATOM     21  C   UNL A   1     -10.513  -0.761  39.161  0.00  0.00    +0.000 A 
ATOM     22  C   UNL A   1      -9.521   0.255  39.169  0.00  0.00    +0.003 A 
ATOM     23  C   UNL A   1      -8.870   0.659  37.964  0.00  0.00    +0.037 A 
ENDBRANCH  13  14
ENDBRANCH   6  13
TORSDOF 3
ENDMDL
ENDMDL
