MODEL 1303
MODEL 1
REMARK VINA RESULT:    -8.169      0.000      0.000
REMARK INTER + INTRA:         -11.195
REMARK INTER:                 -10.080
REMARK INTRA:                  -1.115
REMARK UNBOUND:                -1.115
REMARK  Name = No_1303-gen_results/8p0m/2024-11-27-11-27-31/
REMARK  4 active torsions:
REMARK  status: ('A' for Active; 'I' for Inactive)
REMARK    1  A    between atoms: C_2  and  C_7
REMARK    2  A    between atoms: C_3  and  C_15
REMARK    3  A    between atoms: C_15  and  C_16
REMARK    4  A    between atoms: C_16  and  C_17
REMARK                            x       y       z     vdW  Elec       q    Type
REMARK                         _______ _______ _______ _____ _____    ______ ____
ROOT
ATOM      1  C   UNL A   1     -23.566   0.953  28.596  0.00  0.00    +0.000 A 
ATOM      2  C   UNL A   1     -23.181   1.541  27.812  0.00  0.00    +0.053 A 
ATOM      3  C   UNL A   1     -22.592  -0.026  29.214  0.00  0.00    -0.022 A 
ATOM      4  C   UNL A   1     -21.238   0.006  28.820  0.00  0.00    -0.004 A 
ATOM      5  C   UNL A   1     -21.836   1.789  27.245  0.00  0.00    +0.004 A 
ATOM      6  C   UNL A   1     -20.911   0.911  27.793  0.00  0.00    -0.000 A 
ENDROOT
BRANCH   2   7
ATOM      7  C   UNL A   1     -24.062   2.691  27.080  0.00  0.00    +0.249 C 
ATOM      8  O   UNL A   1     -24.238   3.747  27.541  0.00  0.00    -0.270 OA
ATOM      9  N   UNL A   1     -24.800   2.225  26.002  0.00  0.00    -0.276 N 
ATOM     10  C   UNL A   1     -25.754   3.084  25.414  0.00  0.00    +0.094 C 
ATOM     11  C   UNL A   1     -24.602   0.897  25.426  0.00  0.00    +0.094 C 
ATOM     12  C   UNL A   1     -25.611   0.167  25.554  0.00  0.00    +0.022 C 
ATOM     13  C   UNL A   1     -26.876   0.661  24.914  0.00  0.00    +0.004 C 
ATOM     14  C   UNL A   1     -27.027   2.122  25.287  0.00  0.00    +0.022 C 
ENDBRANCH   2   7
BRANCH   3  15
ATOM     15  C   UNL A   1     -22.945  -1.030  30.240  0.00  0.00    +0.031 C 
BRANCH  15  16
ATOM     16  C   UNL A   1     -24.375  -1.382  30.244  0.00  0.00    +0.027 C 
ATOM     17  C   UNL A   1     -24.976  -1.206  31.641  0.00  0.00    +0.005 C 
BRANCH  16  18
ATOM     18  C   UNL A   1     -24.640  -2.591  29.651  0.00  0.00    -0.022 A 
ATOM     19  C   UNL A   1     -23.870  -3.484  28.964  0.00  0.00    -0.004 A 
ATOM     20  C   UNL A   1     -24.215  -4.827  28.711  0.00  0.00    -0.000 A 
ATOM     21  C   UNL A   1     -25.516  -5.241  28.930  0.00  0.00    -0.000 A 
ATOM     22  C   UNL A   1     -25.883  -3.295  30.126  0.00  0.00    -0.004 A 
ATOM     23  C   UNL A   1     -26.351  -4.470  29.700  0.00  0.00    -0.000 A 
ENDBRANCH  16  18
ENDBRANCH  15  16
ENDBRANCH   3  15
TORSDOF 4
ENDMDL
ENDMDL
