MODEL 1304
MODEL 1
REMARK VINA RESULT:    -6.548      0.000      0.000
REMARK INTER + INTRA:          -6.548
REMARK INTER:                  -6.548
REMARK INTRA:                   0.000
REMARK UNBOUND:                 0.000
REMARK  Name = No_1304-gen_results/8p0m/2024-11-27-11-27-31/
REMARK  0 active torsions:
REMARK  status: ('A' for Active; 'I' for Inactive)
REMARK                            x       y       z     vdW  Elec       q    Type
REMARK                         _______ _______ _______ _____ _____    ______ ____
ROOT
ATOM      1  C   UNL A   1     -31.244  -9.784  29.700  0.00  0.00    +0.052 C 
ATOM      2  C   UNL A   1     -30.291 -10.351  30.182  0.00  0.00    -0.018 A 
ATOM      3  C   UNL A   1     -29.955 -10.182  31.520  0.00  0.00    -0.004 A 
ATOM      4  C   UNL A   1     -28.804 -10.814  32.226  0.00  0.00    +0.003 A 
ATOM      5  C   UNL A   1     -28.084 -11.799  31.487  0.00  0.00    +0.019 A 
ATOM      6  C   UNL A   1     -28.478 -11.998  30.149  0.00  0.00    +0.001 A 
ATOM      7  C   UNL A   1     -29.494 -11.357  29.552  0.00  0.00    -0.004 A 
ATOM      8  C   UNL A   1     -30.992  -9.186  28.363  0.00  0.00    -0.021 C 
ATOM      9  C   UNL A   1     -31.009 -10.102  27.381  0.00  0.00    -0.004 C 
ATOM     10  C   UNL A   1     -30.131 -11.232  27.198  0.00  0.00    -0.000 C 
ATOM     11  C   UNL A   1     -29.476 -11.664  28.104  0.00  0.00    -0.000 C 
ATOM     12  C   UNL A   1     -27.041 -12.492  32.208  0.00  0.00    +0.099 A 
ATOM     13  N   UNL A   1     -26.808 -12.243  33.517  0.00  0.00    -0.242 NA
ATOM     14  C   UNL A   1     -27.535 -11.340  34.233  0.00  0.00    +0.099 A 
ATOM     15  C   UNL A   1     -28.565 -10.602  33.641  0.00  0.00    +0.021 A 
ENDROOT
TORSDOF 0
ENDMDL
ENDMDL
