MODEL 1305
MODEL 1
REMARK VINA RESULT:    -5.918      0.000      0.000
REMARK INTER + INTRA:          -6.999
REMARK INTER:                  -6.610
REMARK INTRA:                  -0.389
REMARK UNBOUND:                -0.389
REMARK  Name = No_1305-gen_results/8p0m/2024-11-27-11-27-31/
REMARK  2 active torsions:
REMARK  status: ('A' for Active; 'I' for Inactive)
REMARK    1  A    between atoms: C_1  and  C_2
REMARK    2  A    between atoms: C_5  and  C_10
REMARK                            x       y       z     vdW  Elec       q    Type
REMARK                         _______ _______ _______ _____ _____    ______ ____
ROOT
ATOM      1  C   UNL A   1     -24.072  -1.857  28.798  0.00  0.00    +0.071 A 
ATOM      2  C   UNL A   1     -24.815  -1.144  27.877  0.00  0.00    +0.004 A 
ATOM      3  C   UNL A   1     -24.437   0.126  27.287  0.00  0.00    +0.004 A 
ATOM      4  C   UNL A   1     -23.215   0.720  27.675  0.00  0.00    +0.071 A 
ATOM      5  C   UNL A   1     -22.424  -0.021  28.625  0.00  0.00    +0.004 A 
ATOM      6  C   UNL A   1     -22.785  -1.242  29.143  0.00  0.00    +0.004 A 
ENDROOT
BRANCH   1   7
ATOM      7  C   UNL A   1     -24.391  -2.945  29.218  0.00  0.00    +0.419 C 
ATOM      8  F   UNL A   1     -24.146  -3.103  30.371  0.00  0.00    -0.166 F 
ATOM      9  F   UNL A   1     -25.685  -3.352  28.911  0.00  0.00    -0.166 F 
ATOM     10  F   UNL A   1     -23.637  -3.895  28.503  0.00  0.00    -0.166 F 
ENDBRANCH   1   7
BRANCH   4  11
ATOM     11  C   UNL A   1     -22.759   1.980  27.189  0.00  0.00    +0.419 C 
ATOM     12  F   UNL A   1     -23.410   2.956  27.556  0.00  0.00    -0.166 F 
ATOM     13  F   UNL A   1     -21.459   2.265  27.561  0.00  0.00    -0.166 F 
ATOM     14  F   UNL A   1     -22.673   1.961  25.786  0.00  0.00    -0.166 F 
ENDBRANCH   4  11
TORSDOF 2
ENDMDL
ENDMDL
