MODEL 1306
MODEL 1
REMARK VINA RESULT:    -4.900      0.000      0.000
REMARK INTER + INTRA:          -5.306
REMARK INTER:                  -5.187
REMARK INTRA:                  -0.119
REMARK UNBOUND:                -0.119
REMARK  Name = No_1306-gen_results/8p0m/2024-11-27-11-27-31/
REMARK  1 active torsions:
REMARK  status: ('A' for Active; 'I' for Inactive)
REMARK    1  A    between atoms: C_3  and  C_4
REMARK                            x       y       z     vdW  Elec       q    Type
REMARK                         _______ _______ _______ _____ _____    ______ ____
ROOT
ATOM      1  C   UNL A   1     -25.865  -2.508  29.682  0.00  0.00    -0.000 A 
ATOM      2  C   UNL A   1     -26.420  -3.370  29.925  0.00  0.00    -0.000 A 
ATOM      3  C   UNL A   1     -24.510  -2.724  29.151  0.00  0.00    -0.000 A 
ATOM      4  C   UNL A   1     -26.180  -4.806  29.643  0.00  0.00    -0.000 A 
ATOM      5  C   UNL A   1     -24.920  -5.094  29.131  0.00  0.00    -0.000 A 
ATOM      6  C   UNL A   1     -24.036  -4.077  28.836  0.00  0.00    -0.000 A 
ENDROOT
BRANCH   3   7
ATOM      7  C   UNL A   1     -23.499  -1.714  28.881  0.00  0.00    -0.005 C 
ATOM      8  C   UNL A   1     -23.163  -0.741  29.861  0.00  0.00    -0.026 C 
ATOM      9  C   UNL A   1     -23.252  -1.138  31.224  0.00  0.00    +0.031 C 
ENDBRANCH   3   7
TORSDOF 1
ENDMDL
ENDMDL
