REMARK  Name = outputs/IAG933/test6/raw/output_1307_IAG933_linker_design_.xyz
REMARK  10 active torsions:
REMARK  status: ('A' for Active; 'I' for Inactive)
REMARK    1  A    between atoms: C_1  and  C_2
REMARK    2  A    between atoms: C_1  and  C_8
REMARK    3  A    between atoms: C_1  and  C_36
REMARK    4  A    between atoms: C_14  and  C_15
REMARK    5  A    between atoms: C_21  and  O_22
REMARK    6  A    between atoms: O_22  and  C_23
REMARK    7  A    between atoms: C_23  and  C_24
REMARK    8  A    between atoms: C_28  and  C_36
REMARK    9  A    between atoms: C_31  and  C_40
REMARK   10  A    between atoms: N_34  and  C_36
REMARK                            x       y       z     vdW  Elec       q    Type
REMARK                         _______ _______ _______ _____ _____    ______ ____
ROOT
ATOM      1  C   UNL A   1     -25.688   1.614  26.461  0.00  0.00    +0.059 C 
ATOM      2  C   UNL A   1     -26.250   2.920  26.395  0.00  0.00    +0.080 C 
ATOM      3  C   UNL A   1     -27.438   3.091  25.645  0.00  0.00    +0.107 C 
ATOM      4  N   UNL A   1     -28.075   2.089  25.003  0.00  0.00    -0.211 NA
ATOM      5  C   UNL A   1     -27.543   0.849  25.079  0.00  0.00    +0.239 C 
ATOM      6  C   UNL A   1     -26.354   0.576  25.777  0.00  0.00    +0.265 C 
ATOM      7  F   UNL A   1     -25.860  -0.681  25.795  0.00  0.00    -0.222 F 
ATOM      8  C   UNL A   1     -23.140   0.168  28.803  0.00  0.00    +0.175 C 
ATOM      9  O   UNL A   1     -21.127   1.113  27.243  0.00  0.00    -0.348 OA
ATOM     10  C   UNL A   1     -22.617   2.158  26.126  0.00  0.00    +0.269 A 
ATOM     11  C   UNL A   1     -24.379   1.454  26.932  0.00  0.00    -0.096 C 
ATOM     12  N   UNL A   1     -21.296   1.982  26.145  0.00  0.00    -0.046 NA
ATOM     13  C   UNL A   1     -22.458   0.874  27.721  0.00  0.00    +0.211 A 
ATOM     14  F   UNL A   1     -23.225   2.882  25.163  0.00  0.00    -0.179 F 
ATOM     15  F   UNL A   1     -22.321  -0.174  29.729  0.00  0.00    -0.204 F 
ATOM     16  C   UNL A   1     -23.276   1.495  26.925  0.00  0.00    +0.122 A 
ENDROOT
BRANCH   2  17
ATOM     17  C   UNL A   1     -25.642   4.093  27.123  0.00  0.00    +0.267 C 
ATOM     18  N   UNL A   1     -25.614   5.252  26.449  0.00  0.00    -0.200 NA
ATOM     19  C   UNL A   1     -25.026   6.479  26.963  0.00  0.00    +0.139 C 
ATOM     20  O   UNL A   1     -25.143   3.966  28.243  0.00  0.00    -0.268 OA
ENDBRANCH   2  17
BRANCH   5  21
ATOM     21  O   UNL A   1     -28.193  -0.208  24.477  0.00  0.00    -0.458 OA
BRANCH  21  22
ATOM     22  C   UNL A   1     -29.460   0.005  23.866  0.00  0.00    +0.242 C 
BRANCH  22  23
ATOM     23  C   UNL A   1     -30.065  -1.377  23.573  0.00  0.00    +0.229 C 
ATOM     24  O   UNL A   1     -30.729  -1.878  24.721  0.00  0.00    -0.216 OA
ENDBRANCH  22  23
ENDBRANCH  21  22
ENDBRANCH   5  21
BRANCH   8  25
ATOM     25  C   UNL A   1     -24.629  -0.110  28.974  0.00  0.00    +0.154 C 
BRANCH  25  27
ATOM     26  C   UNL A   1     -27.239  -0.019  28.550  0.00  0.00    +0.281 C 
ATOM     27  N   UNL A   1     -25.880   0.325  28.655  0.00  0.00    -0.195 NA
ATOM     28  O   UNL A   1     -27.570  -1.000  27.949  0.00  0.00    -0.267 OA
BRANCH  26  31
ATOM     29  C   UNL A   1     -29.763   0.358  28.788  0.00  0.00    +0.059 C 
ATOM     30  N   UNL A   1     -28.133   1.842  29.768  0.00  0.00    -0.148 NA
ATOM     31  C   UNL A   1     -28.350   0.761  29.045  0.00  0.00    +0.136 C 
ENDBRANCH  26  31
ENDBRANCH  25  27
BRANCH  25  32
ATOM     32  C   UNL A   1     -24.855  -1.012  30.143  0.00  0.00    +0.065 C 
BRANCH  32  33
ATOM     33  C   UNL A   1     -24.973  -2.505  29.788  0.00  0.00    -0.019 C 
ATOM     34  C   UNL A   1     -23.906  -3.173  29.146  0.00  0.00    -0.004 C 
ATOM     35  C   UNL A   1     -23.989  -4.549  28.853  0.00  0.00    -0.000 C 
ATOM     36  C   UNL A   1     -25.137  -5.280  29.205  0.00  0.00    -0.000 C 
ATOM     37  C   UNL A   1     -26.232  -4.611  29.784  0.00  0.00    -0.000 C 
ATOM     38  C   UNL A   1     -26.155  -3.232  30.065  0.00  0.00    -0.004 C 
ENDBRANCH  32  33
BRANCH  32  39
ATOM     39  C   UNL A   1     -25.387  -0.679  31.571  0.00  0.00    +0.079 C 
ATOM     40  C   UNL A   1     -25.189   0.773  32.028  0.00  0.00    +0.019 C 
ATOM     41  C   UNL A   1     -25.336   0.684  33.544  0.00  0.00    +0.020 C 
ATOM     42  C   UNL A   1     -24.829  -0.715  33.905  0.00  0.00    +0.089 C 
ATOM     43  N   UNL A   1     -24.758  -1.481  32.646  0.00  0.00    -0.219 NA
ENDBRANCH  32  39
ENDBRANCH  25  32
ENDBRANCH   8  25
TORSDOF 10
