MODEL 1307
MODEL 1
REMARK VINA RESULT:    -8.297      0.000      0.000
REMARK INTER + INTRA:         -10.536
REMARK INTER:                  -9.752
REMARK INTRA:                  -0.784
REMARK UNBOUND:                -0.784
REMARK  Name = No_1307-gen_results/8p0m/2024-11-27-11-27-31/
REMARK  3 active torsions:
REMARK  status: ('A' for Active; 'I' for Inactive)
REMARK    1  A    between atoms: C_2  and  C_4
REMARK    2  A    between atoms: C_5  and  C_6
REMARK    3  A    between atoms: C_6  and  C_7
REMARK                            x       y       z     vdW  Elec       q    Type
REMARK                         _______ _______ _______ _____ _____    ______ ____
ROOT
ATOM      1  C   UNL A   1     -23.463  -0.708  30.491  0.00  0.00    +0.058 A 
ATOM      2  C   UNL A   1     -24.710  -0.411  29.898  0.00  0.00    +0.064 A 
ATOM      3  C   UNL A   1     -22.263  -0.372  29.959  0.00  0.00    +0.004 A 
ATOM      4  C   UNL A   1     -22.188   0.303  28.841  0.00  0.00    +0.018 A 
ATOM      5  C   UNL A   1     -21.474   0.753  28.270  0.00  0.00    +0.002 A 
ATOM      6  C   UNL A   1     -21.616   1.655  27.046  0.00  0.00    +0.000 A 
ATOM      7  C   UNL A   1     -22.951   1.927  26.650  0.00  0.00    +0.002 A 
ATOM      8  C   UNL A   1     -23.949   1.376  27.354  0.00  0.00    +0.019 A 
ATOM      9  C   UNL A   1     -23.704   0.656  28.456  0.00  0.00    +0.081 A 
ATOM     10  N   UNL A   1     -24.789   0.384  29.045  0.00  0.00    -0.249 NA
ENDROOT
BRANCH   1  12
ATOM     11  F   UNL A   1     -22.605  -1.523  32.379  0.00  0.00    -0.193 F 
ATOM     12  C   UNL A   1     -23.541  -1.356  31.740  0.00  0.00    +0.342 C 
ATOM     13  F   UNL A   1     -24.542  -1.594  32.250  0.00  0.00    -0.193 F 
ENDBRANCH   1  12
BRANCH   2  14
ATOM     14  C   UNL A   1     -25.260  -1.040  29.014  0.00  0.00    +0.062 C 
ATOM     15  C   UNL A   1     -26.703  -0.443  28.560  0.00  0.00    +0.011 C 
BRANCH  14  16
ATOM     16  C   UNL A   1     -25.114  -2.406  28.898  0.00  0.00    -0.017 A 
ATOM     17  C   UNL A   1     -24.207  -3.020  28.440  0.00  0.00    -0.004 A 
ATOM     18  C   UNL A   1     -24.064  -4.430  28.680  0.00  0.00    -0.000 A 
ATOM     19  C   UNL A   1     -25.154  -5.084  29.272  0.00  0.00    -0.000 A 
ATOM     20  C   UNL A   1     -26.239  -4.416  29.771  0.00  0.00    -0.000 A 
ATOM     21  C   UNL A   1     -26.290  -3.098  29.726  0.00  0.00    -0.004 A 
ENDBRANCH  14  16
ENDBRANCH   2  14
TORSDOF 3
ENDMDL
ENDMDL
