MODEL 1308
MODEL 1
REMARK VINA RESULT:    -5.002      0.000      0.000
REMARK INTER + INTRA:          -5.002
REMARK INTER:                  -5.002
REMARK INTRA:                   0.000
REMARK UNBOUND:                 0.000
REMARK  Name = No_1308-gen_results/8p0m/2024-11-27-11-27-31/
REMARK  0 active torsions:
REMARK  status: ('A' for Active; 'I' for Inactive)
REMARK                            x       y       z     vdW  Elec       q    Type
REMARK                         _______ _______ _______ _____ _____    ______ ____
ROOT
ATOM      1  C   UNL A   1     -10.526  -9.283  19.192  0.00  0.00    +0.042 A 
ATOM      2  C   UNL A   1      -9.805  -9.091  20.143  0.00  0.00    +0.003 A 
ATOM      3  C   UNL A   1      -8.509  -9.594  20.175  0.00  0.00    +0.000 A 
ATOM      4  C   UNL A   1      -8.001 -10.401  19.095  0.00  0.00    +0.003 A 
ATOM      5  C   UNL A   1      -8.910 -10.593  18.047  0.00  0.00    +0.042 A 
ATOM      6  C   UNL A   1     -10.130 -10.109  18.072  0.00  0.00    +0.196 A 
ATOM      7  O   UNL A   1     -10.964 -10.375  17.029  0.00  0.00    -0.287 OA
ENDROOT
TORSDOF 0
ENDMDL
ENDMDL
