MODEL 1309
MODEL 1
REMARK VINA RESULT:    -6.511      0.000      0.000
REMARK INTER + INTRA:          -7.096
REMARK INTER:                  -6.891
REMARK INTRA:                  -0.205
REMARK UNBOUND:                -0.205
REMARK  Name = No_1309-gen_results/8p0m/2024-11-27-11-27-31/
REMARK  1 active torsions:
REMARK  status: ('A' for Active; 'I' for Inactive)
REMARK    1  A    between atoms: C_9  and  C_11
REMARK                            x       y       z     vdW  Elec       q    Type
REMARK                         _______ _______ _______ _____ _____    ______ ____
ROOT
ATOM      1  C   UNL A   1     -26.563  -3.545  30.023  0.00  0.00    -0.000 A 
ATOM      2  C   UNL A   1     -26.445  -4.531  29.671  0.00  0.00    -0.000 A 
ATOM      3  C   UNL A   1     -25.450  -2.679  29.944  0.00  0.00    -0.000 A 
ATOM      4  C   UNL A   1     -25.479  -1.234  30.294  0.00  0.00    -0.000 A 
ATOM      5  C   UNL A   1     -25.280  -5.224  29.095  0.00  0.00    -0.000 A 
ATOM      6  C   UNL A   1     -24.139  -4.429  28.989  0.00  0.00    -0.000 A 
ATOM      7  C   UNL A   1     -24.203  -3.126  29.365  0.00  0.00    -0.000 A 
ATOM      8  C   UNL A   1     -24.890  -0.316  29.988  0.00  0.00    +0.004 A 
ATOM      9  C   UNL A   1     -23.643  -0.668  29.157  0.00  0.00    +0.071 A 
ATOM     10  C   UNL A   1     -23.335  -2.022  28.886  0.00  0.00    +0.004 A 
ENDROOT
BRANCH   9  11
ATOM     11  C   UNL A   1     -22.673   0.444  28.809  0.00  0.00    +0.419 C 
ATOM     12  F   UNL A   1     -22.540   0.740  27.603  0.00  0.00    -0.166 F 
ATOM     13  F   UNL A   1     -22.845   1.509  29.473  0.00  0.00    -0.166 F 
ATOM     14  F   UNL A   1     -21.417   0.010  29.263  0.00  0.00    -0.166 F 
ENDBRANCH   9  11
TORSDOF 1
ENDMDL
ENDMDL
