MODEL 130
MODEL 1
REMARK VINA RESULT:    -6.033      0.000      0.000
REMARK INTER + INTRA:          -6.452
REMARK INTER:                  -6.386
REMARK INTRA:                  -0.066
REMARK UNBOUND:                -0.066
REMARK  Name = No_130-gen_results/8p0m/2024-11-27-11-27-31/
REMARK  1 active torsions:
REMARK  status: ('A' for Active; 'I' for Inactive)
REMARK    1  A    between atoms: C_2  and  C_7
REMARK                            x       y       z     vdW  Elec       q    Type
REMARK                         _______ _______ _______ _____ _____    ______ ____
ROOT
ATOM      1  C   UNL A   1     -24.100  -2.072  29.921  0.00  0.00    -0.007 A 
ATOM      2  C   UNL A   1     -24.770  -2.508  29.235  0.00  0.00    -0.006 A 
ATOM      3  C   UNL A   1     -23.507  -0.746  29.498  0.00  0.00    -0.022 A 
ATOM      4  C   UNL A   1     -22.152  -0.425  29.683  0.00  0.00    +0.052 C 
ATOM      5  C   UNL A   1     -21.360  -0.483  28.517  0.00  0.00    -0.021 C 
ATOM      6  C   UNL A   1     -20.760   0.679  28.182  0.00  0.00    -0.005 C 
ATOM      7  C   UNL A   1     -21.480   1.807  27.756  0.00  0.00    -0.005 C 
ATOM      8  C   UNL A   1     -22.615   1.624  27.126  0.00  0.00    -0.021 C 
ATOM      9  C   UNL A   1     -25.663  -1.575  28.355  0.00  0.00    -0.003 A 
ATOM     10  C   UNL A   1     -25.281  -0.366  28.022  0.00  0.00    -0.004 A 
ATOM     11  C   UNL A   1     -24.220   0.141  28.681  0.00  0.00    -0.021 A 
ATOM     12  C   UNL A   1     -23.392   0.696  27.395  0.00  0.00    +0.052 C 
ENDROOT
BRANCH   2  13
ATOM     13  C   UNL A   1     -25.355  -3.893  29.534  0.00  0.00    +0.121 C 
ATOM     14 CL   UNL A   1     -24.647  -5.157  28.858  0.00  0.00    -0.108 Cl
ENDBRANCH   2  13
TORSDOF 1
ENDMDL
ENDMDL
