MODEL 1310
MODEL 1
REMARK VINA RESULT:    -4.659      0.000      0.000
REMARK INTER + INTRA:          -5.346
REMARK INTER:                  -5.203
REMARK INTRA:                  -0.143
REMARK UNBOUND:                -0.143
REMARK  Name = No_1310-gen_results/8p0m/2024-11-27-11-27-31/
REMARK  2 active torsions:
REMARK  status: ('A' for Active; 'I' for Inactive)
REMARK    1  A    between atoms: C_2  and  N_7
REMARK    2  A    between atoms: N_7  and  C_8
REMARK                            x       y       z     vdW  Elec       q    Type
REMARK                         _______ _______ _______ _____ _____    ______ ____
ROOT
ATOM      1  C   UNL A   1     -23.902  -3.319  28.642  0.00  0.00    +0.036 A 
ATOM      2  C   UNL A   1     -24.743  -2.621  29.160  0.00  0.00    +0.152 A 
ATOM      3  N   UNL A   1     -25.827  -3.076  29.716  0.00  0.00    -0.227 NA
ATOM      4  C   UNL A   1     -24.126  -4.761  28.632  0.00  0.00    +0.004 A 
ATOM      5  C   UNL A   1     -25.237  -5.271  29.105  0.00  0.00    +0.021 A 
ATOM      6  C   UNL A   1     -26.130  -4.389  29.677  0.00  0.00    +0.100 A 
ENDROOT
BRANCH   2   7
ATOM      7  N   UNL A   1     -24.583  -1.227  29.325  0.00  0.00    -0.193 NA
BRANCH   7   8
ATOM      8  C   UNL A   1     -23.399  -0.511  28.948  0.00  0.00    +0.083 C 
ATOM      9  C   UNL A   1     -23.384   0.503  28.155  0.00  0.00    -0.008 C 
ATOM     10  C   UNL A   1     -22.135   1.132  27.805  0.00  0.00    +0.032 C 
ENDBRANCH   7   8
ENDBRANCH   2   7
TORSDOF 2
ENDMDL
ENDMDL
