REMARK  Name = No_1311-gen_results/8p0m/2024-11-27-11-27-31/
REMARK  9 active torsions:
REMARK  status: ('A' for Active; 'I' for Inactive)
REMARK    1  A    between atoms: C_2  and  O_22
REMARK    2  A    between atoms: C_3  and  C_7
REMARK    3  A    between atoms: C_6  and  O_13
REMARK    4  A    between atoms: C_9  and  O_19
REMARK    5  A    between atoms: O_13  and  C_14
REMARK    6  A    between atoms: C_14  and  C_15
REMARK    7  A    between atoms: O_22  and  C_23
REMARK    8  A    between atoms: C_23  and  C_24
REMARK    9  A    between atoms: C_25  and  C_26
REMARK                            x       y       z     vdW  Elec       q    Type
REMARK                         _______ _______ _______ _____ _____    ______ ____
ROOT
ATOM      1  C   UNL A   1     -28.016  -0.814  28.878  0.00  0.00    +0.074 A 
ATOM      2  C   UNL A   1     -27.064  -0.119  28.608  0.00  0.00    +0.142 A 
ATOM      3  C   UNL A   1     -25.765  -0.390  29.036  0.00  0.00    +0.034 A 
ATOM      4  C   UNL A   1     -25.530  -1.530  29.901  0.00  0.00    +0.006 A 
ATOM      5  C   UNL A   1     -26.658  -2.292  30.203  0.00  0.00    +0.037 A 
ATOM      6  C   UNL A   1     -27.855  -1.956  29.763  0.00  0.00    +0.145 A 
ENDROOT
BRANCH   3   7
ATOM      7  C   UNL A   1     -24.544   0.413  28.738  0.00  0.00    +0.006 A 
ATOM      8  C   UNL A   1     -24.473   1.206  27.711  0.00  0.00    +0.037 A 
ATOM      9  C   UNL A   1     -23.399   1.880  27.369  0.00  0.00    +0.139 A 
ATOM     10  C   UNL A   1     -22.178   1.736  27.991  0.00  0.00    +0.037 A 
ATOM     11  C   UNL A   1     -23.319   0.192  29.476  0.00  0.00    +0.000 A 
ATOM     12  C   UNL A   1     -22.136   0.878  29.085  0.00  0.00    +0.003 A 
BRANCH   9  13
ATOM     13  O   UNL A   1     -23.415   2.779  26.310  0.00  0.00    -0.471 OA
ATOM     14  C   UNL A   1     -24.589   3.546  26.175  0.00  0.00    +0.253 C 
ENDBRANCH   9  13
ENDBRANCH   3   7
BRANCH   6  15
ATOM     15  O   UNL A   1     -28.932  -2.723  30.123  0.00  0.00    -0.446 OA
BRANCH  15  16
ATOM     16  C   UNL A   1     -29.276  -2.824  31.464  0.00  0.00    +0.395 C 
ATOM     17  O   UNL A   1     -28.686  -3.994  32.051  0.00  0.00    -0.167 OA
BRANCH  16  18
ATOM     18  C   UNL A   1     -30.657  -2.697  31.699  0.00  0.00    +0.396 C 
ATOM     19 CL   UNL A   1     -31.557  -2.374  30.518  0.00  0.00    -0.041 Cl
ATOM     20  F   UNL A   1     -30.803  -1.710  32.671  0.00  0.00    -0.180 F 
ATOM     21  F   UNL A   1     -31.124  -3.822  32.315  0.00  0.00    -0.180 F 
ENDBRANCH  16  18
ENDBRANCH  15  16
ENDBRANCH   6  15
BRANCH   2  22
ATOM     22  O   UNL A   1     -27.175   0.938  27.757  0.00  0.00    -0.470 OA
BRANCH  22  23
ATOM     23  C   UNL A   1     -27.936   1.992  28.171  0.00  0.00    +0.232 C 
BRANCH  23  24
ATOM     24  C   UNL A   1     -29.239   2.014  27.693  0.00  0.00    +0.021 C 
ATOM     25  C   UNL A   1     -29.496   1.711  26.454  0.00  0.00    -0.001 C 
BRANCH  25  26
ATOM     26  C   UNL A   1     -28.583   1.663  25.594  0.00  0.00    -0.000 C 
ATOM     27  C   UNL A   1     -28.769   1.223  24.158  0.00  0.00    -0.000 C 
ENDBRANCH  25  26
ENDBRANCH  23  24
ENDBRANCH  22  23
ENDBRANCH   2  22
TORSDOF 9
