MODEL 1311
MODEL 1
REMARK VINA RESULT:    -7.046      0.000      0.000
REMARK INTER + INTRA:         -12.140
REMARK INTER:                 -10.753
REMARK INTRA:                  -1.386
REMARK UNBOUND:                -1.386
REMARK  Name = No_1311-gen_results/8p0m/2024-11-27-11-27-31/
REMARK  9 active torsions:
REMARK  status: ('A' for Active; 'I' for Inactive)
REMARK    1  A    between atoms: C_2  and  O_22
REMARK    2  A    between atoms: C_3  and  C_7
REMARK    3  A    between atoms: C_6  and  O_13
REMARK    4  A    between atoms: C_9  and  O_19
REMARK    5  A    between atoms: O_13  and  C_14
REMARK    6  A    between atoms: C_14  and  C_15
REMARK    7  A    between atoms: O_22  and  C_23
REMARK    8  A    between atoms: C_23  and  C_24
REMARK    9  A    between atoms: C_25  and  C_26
REMARK                            x       y       z     vdW  Elec       q    Type
REMARK                         _______ _______ _______ _____ _____    ______ ____
ROOT
ATOM      1  C   UNL A   1     -10.617   1.174  35.709  0.00  0.00    +0.074 A 
ATOM      2  C   UNL A   1      -9.656   0.443  35.770  0.00  0.00    +0.142 A 
ATOM      3  C   UNL A   1      -8.476   0.659  35.058  0.00  0.00    +0.034 A 
ATOM      4  C   UNL A   1      -8.398   1.783  34.146  0.00  0.00    +0.006 A 
ATOM      5  C   UNL A   1      -9.536   2.588  34.092  0.00  0.00    +0.037 A 
ATOM      6  C   UNL A   1     -10.616   2.303  34.793  0.00  0.00    +0.145 A 
ENDROOT
BRANCH   3   7
ATOM      7  C   UNL A   1      -7.251  -0.190  35.088  0.00  0.00    +0.006 A 
ATOM      8  C   UNL A   1      -6.117   0.249  35.547  0.00  0.00    +0.037 A 
ATOM      9  C   UNL A   1      -4.997  -0.435  35.531  0.00  0.00    +0.139 A 
ATOM     10  C   UNL A   1      -4.860  -1.661  34.917  0.00  0.00    +0.037 A 
ATOM     11  C   UNL A   1      -7.231  -1.478  34.427  0.00  0.00    +0.000 A 
ATOM     12  C   UNL A   1      -6.012  -2.208  34.359  0.00  0.00    +0.003 A 
BRANCH   9  13
ATOM     13  O   UNL A   1      -3.838   0.058  36.117  0.00  0.00    -0.471 OA
ATOM     14  C   UNL A   1      -3.985   1.250  36.855  0.00  0.00    +0.253 C 
ENDBRANCH   9  13
ENDBRANCH   3   7
BRANCH   6  15
ATOM     15  O   UNL A   1     -11.716   3.110  34.671  0.00  0.00    -0.446 OA
BRANCH  15  16
ATOM     16  C   UNL A   1     -12.983   2.544  34.726  0.00  0.00    +0.395 C 
ATOM     17  O   UNL A   1     -13.636   2.641  33.451  0.00  0.00    -0.167 OA
BRANCH  16  18
ATOM     18  C   UNL A   1     -13.757   3.008  35.805  0.00  0.00    +0.396 C 
ATOM     19 CL   UNL A   1     -15.201   3.398  35.534  0.00  0.00    -0.041 Cl
ATOM     20  F   UNL A   1     -13.078   4.102  36.336  0.00  0.00    -0.180 F 
ATOM     21  F   UNL A   1     -13.729   2.094  36.817  0.00  0.00    -0.180 F 
ENDBRANCH  16  18
ENDBRANCH  15  16
ENDBRANCH   6  15
BRANCH   2  22
ATOM     22  O   UNL A   1      -9.613  -0.604  36.640  0.00  0.00    -0.470 OA
BRANCH  22  23
ATOM     23  C   UNL A   1     -10.686  -0.768  37.467  0.00  0.00    +0.232 C 
BRANCH  23  24
ATOM     24  C   UNL A   1     -11.229  -2.045  37.496  0.00  0.00    +0.021 C 
ATOM     25  C   UNL A   1     -11.963  -2.431  38.499  0.00  0.00    -0.001 C 
BRANCH  25  26
ATOM     26  C   UNL A   1     -11.979  -1.788  39.577  0.00  0.00    -0.000 C 
ATOM     27  C   UNL A   1     -11.368  -2.264  40.877  0.00  0.00    -0.000 C 
ENDBRANCH  25  26
ENDBRANCH  23  24
ENDBRANCH  22  23
ENDBRANCH   2  22
TORSDOF 9
ENDMDL
ENDMDL
