REMARK  Name = outputs/IAG933/test6/raw/output_1312_IAG933_linker_design_.xyz
REMARK  11 active torsions:
REMARK  status: ('A' for Active; 'I' for Inactive)
REMARK    1  A    between atoms: C_1  and  C_2
REMARK    2  A    between atoms: C_1  and  C_8
REMARK    3  A    between atoms: C_1  and  C_31
REMARK    4  A    between atoms: C_13  and  C_42
REMARK    5  A    between atoms: C_14  and  C_15
REMARK    6  A    between atoms: C_21  and  O_22
REMARK    7  A    between atoms: O_22  and  C_23
REMARK    8  A    between atoms: C_23  and  C_24
REMARK    9  A    between atoms: C_28  and  C_37
REMARK   10  A    between atoms: C_30  and  C_31
REMARK   11  A    between atoms: C_31  and  N_32
REMARK                            x       y       z     vdW  Elec       q    Type
REMARK                         _______ _______ _______ _____ _____    ______ ____
ROOT
ATOM      1  C   UNL A   1     -24.035   0.670  28.061  0.00  0.00    -0.024 C 
ATOM      2  C   UNL A   1     -21.950   2.167  26.090  0.00  0.00    -0.001 C 
ATOM      3  C   UNL A   1     -23.306   1.955  25.897  0.00  0.00    -0.004 C 
ATOM      4  C   UNL A   1     -21.558   1.082  28.278  0.00  0.00    -0.022 C 
ATOM      5  C   UNL A   1     -21.156   1.803  27.169  0.00  0.00    -0.004 C 
ATOM      6  C   UNL A   1     -22.764   0.514  28.578  0.00  0.00    +0.049 C 
ATOM      7  C   UNL A   1     -24.245   1.401  26.814  0.00  0.00    -0.021 C 
ENDROOT
BRANCH   7   8
ATOM      8  C   UNL A   1     -25.688   1.614  26.461  0.00  0.00    +0.092 C 
ATOM      9  C   UNL A   1     -26.250   2.920  26.395  0.00  0.00    +0.059 C 
ATOM     10  C   UNL A   1     -27.438   3.091  25.645  0.00  0.00    +0.102 C 
ATOM     11  N   UNL A   1     -28.075   2.089  25.003  0.00  0.00    -0.212 NA
ATOM     12  C   UNL A   1     -27.543   0.849  25.079  0.00  0.00    +0.234 C 
ATOM     13  C   UNL A   1     -26.354   0.576  25.777  0.00  0.00    +0.244 C 
ATOM     14  F   UNL A   1     -25.860  -0.681  25.795  0.00  0.00    -0.227 F 
BRANCH   9  15
ATOM     15  C   UNL A   1     -25.642   4.093  27.123  0.00  0.00    +0.263 C 
ATOM     16  N   UNL A   1     -25.614   5.252  26.449  0.00  0.00    -0.200 NA
ATOM     17  C   UNL A   1     -25.026   6.479  26.963  0.00  0.00    +0.139 C 
ATOM     18  O   UNL A   1     -25.143   3.966  28.243  0.00  0.00    -0.269 OA
ENDBRANCH   9  15
BRANCH  12  19
ATOM     19  O   UNL A   1     -28.193  -0.208  24.477  0.00  0.00    -0.459 OA
BRANCH  19  20
ATOM     20  C   UNL A   1     -29.460   0.005  23.866  0.00  0.00    +0.242 C 
BRANCH  20  21
ATOM     21  C   UNL A   1     -30.065  -1.377  23.573  0.00  0.00    +0.229 C 
ATOM     22  O   UNL A   1     -30.729  -1.878  24.721  0.00  0.00    -0.216 OA
ENDBRANCH  20  21
ENDBRANCH  19  20
ENDBRANCH  12  19
ENDBRANCH   7   8
BRANCH   1  23
ATOM     23  C   UNL A   1     -24.973   0.022  29.013  0.00  0.00    +0.119 C 
BRANCH  23  25
ATOM     24  C   UNL A   1     -27.504  -0.590  28.918  0.00  0.00    +0.241 C 
ATOM     25  N   UNL A   1     -26.399   0.213  28.752  0.00  0.00    -0.203 NA
ATOM     26  O   UNL A   1     -27.642  -1.708  29.316  0.00  0.00    -0.273 OA
BRANCH  24  29
ATOM     27  C   UNL A   1     -29.910  -0.647  28.022  0.00  0.00    +0.009 C 
ATOM     28  C   UNL A   1     -29.924   2.167  28.960  0.00  0.00    +0.001 C 
ATOM     29  C   UNL A   1     -28.797   0.078  28.533  0.00  0.00    +0.078 C 
ATOM     30  C   UNL A   1     -29.326   0.954  29.689  0.00  0.00    +0.009 C 
ATOM     31  C   UNL A   1     -31.129   1.763  28.061  0.00  0.00    +0.000 C 
ATOM     32  C   UNL A   1     -30.816   0.406  27.378  0.00  0.00    +0.001 C 
ENDBRANCH  24  29
ENDBRANCH  23  25
BRANCH  23  33
ATOM     33  C   UNL A   1     -24.855  -1.012  30.143  0.00  0.00    +0.062 C 
BRANCH  33  34
ATOM     34  C   UNL A   1     -24.973  -2.505  29.788  0.00  0.00    -0.019 C 
ATOM     35  C   UNL A   1     -23.906  -3.173  29.146  0.00  0.00    -0.004 C 
ATOM     36  C   UNL A   1     -23.989  -4.549  28.853  0.00  0.00    -0.000 C 
ATOM     37  C   UNL A   1     -25.137  -5.280  29.205  0.00  0.00    -0.000 C 
ATOM     38  C   UNL A   1     -26.232  -4.611  29.784  0.00  0.00    -0.000 C 
ATOM     39  C   UNL A   1     -26.155  -3.232  30.065  0.00  0.00    -0.004 C 
ENDBRANCH  33  34
BRANCH  33  40
ATOM     40  C   UNL A   1     -25.387  -0.679  31.571  0.00  0.00    +0.079 C 
ATOM     41  C   UNL A   1     -25.189   0.773  32.028  0.00  0.00    +0.019 C 
ATOM     42  C   UNL A   1     -25.336   0.684  33.544  0.00  0.00    +0.020 C 
ATOM     43  C   UNL A   1     -24.829  -0.715  33.905  0.00  0.00    +0.089 C 
ATOM     44  N   UNL A   1     -24.758  -1.481  32.646  0.00  0.00    -0.219 NA
ENDBRANCH  33  40
ENDBRANCH  23  33
ENDBRANCH   1  23
TORSDOF 11
