MODEL 1312
MODEL 1
REMARK VINA RESULT:    -5.804      0.000      0.000
REMARK INTER + INTRA:          -7.193
REMARK INTER:                  -6.822
REMARK INTRA:                  -0.372
REMARK UNBOUND:                -0.372
REMARK  Name = No_1312-gen_results/8p0m/2024-11-27-11-27-31/
REMARK  3 active torsions:
REMARK  status: ('A' for Active; 'I' for Inactive)
REMARK    1  A    between atoms: C_3  and  N_4
REMARK    2  A    between atoms: N_4  and  C_8
REMARK    3  A    between atoms: C_9  and  C_10
REMARK                            x       y       z     vdW  Elec       q    Type
REMARK                         _______ _______ _______ _____ _____    ______ ____
ROOT
ATOM      1  N   UNL A   1     -23.873  -1.752  28.713  0.00  0.00    -0.284 N 
ATOM      2  C   UNL A   1     -24.650  -0.870  27.877  0.00  0.00    +0.117 C 
ENDROOT
BRANCH   1   5
ATOM      3  C   UNL A   1     -25.583  -2.748  30.011  0.00  0.00    +0.015 A 
ATOM      4  C   UNL A   1     -26.340  -3.440  29.767  0.00  0.00    +0.001 A 
ATOM      5  C   UNL A   1     -24.387  -2.867  29.168  0.00  0.00    +0.052 A 
ATOM      6  C   UNL A   1     -26.172  -4.847  29.663  0.00  0.00    +0.000 A 
ATOM      7  C   UNL A   1     -24.980  -5.205  28.987  0.00  0.00    +0.001 A 
ATOM      8  C   UNL A   1     -24.075  -4.119  28.677  0.00  0.00    +0.015 A 
ENDBRANCH   1   5
BRANCH   1   9
ATOM      9  C   UNL A   1     -22.779  -1.110  29.139  0.00  0.00    +0.065 C 
ATOM     10  C   UNL A   1     -22.499  -0.308  29.773  0.00  0.00    +0.016 C 
BRANCH  10  11
ATOM     11  C   UNL A   1     -23.331   0.425  30.733  0.00  0.00    -0.003 C 
ATOM     12  C   UNL A   1     -23.752  -0.219  32.050  0.00  0.00    -0.026 C 
ATOM     13  C   UNL A   1     -22.930  -1.268  32.432  0.00  0.00    +0.031 C 
ENDBRANCH  10  11
ENDBRANCH   1   9
TORSDOF 3
ENDMDL
ENDMDL
