MODEL 1313
MODEL 1
REMARK VINA RESULT:    -6.779      0.000      0.000
REMARK INTER + INTRA:          -7.977
REMARK INTER:                  -7.572
REMARK INTRA:                  -0.405
REMARK UNBOUND:                -0.405
REMARK  Name = No_1313-gen_results/8p0m/2024-11-27-11-27-31/
REMARK  2 active torsions:
REMARK  status: ('A' for Active; 'I' for Inactive)
REMARK    1  A    between atoms: C_6  and  C_8
REMARK    2  A    between atoms: C_8  and  C_9
REMARK                            x       y       z     vdW  Elec       q    Type
REMARK                         _______ _______ _______ _____ _____    ______ ____
ROOT
ATOM      1  C   UNL A   1     -22.566   1.445  27.515  0.00  0.00    +0.011 A 
ATOM      2  C   UNL A   1     -23.484   1.606  26.745  0.00  0.00    +0.058 A 
ATOM      3  C   UNL A   1     -24.541   0.760  26.637  0.00  0.00    +0.011 A 
ATOM      4  C   UNL A   1     -24.575  -0.375  27.468  0.00  0.00    -0.003 A 
ATOM      5  C   UNL A   1     -22.584   0.359  28.461  0.00  0.00    -0.003 A 
ATOM      6  C   UNL A   1     -23.608  -0.536  28.374  0.00  0.00    -0.018 A 
ATOM      7 CL   UNL A   1     -23.556   2.988  25.685  0.00  0.00    -0.082 Cl
ENDROOT
BRANCH   6   8
ATOM      8  C   UNL A   1     -23.614  -1.699  29.312  0.00  0.00    +0.053 C 
BRANCH   8   9
ATOM      9  C   UNL A   1     -24.318  -2.599  29.367  0.00  0.00    -0.018 A 
ATOM     10  C   UNL A   1     -25.679  -2.472  29.988  0.00  0.00    -0.004 A 
ATOM     11  C   UNL A   1     -26.579  -3.601  30.045  0.00  0.00    -0.000 A 
ATOM     12  C   UNL A   1     -26.099  -4.810  29.513  0.00  0.00    -0.000 A 
ATOM     13  C   UNL A   1     -24.899  -4.965  28.957  0.00  0.00    -0.000 A 
ATOM     14  C   UNL A   1     -23.971  -3.920  28.860  0.00  0.00    -0.004 A 
ENDBRANCH   8   9
ENDBRANCH   6   8
TORSDOF 2
ENDMDL
ENDMDL
