MODEL 1314
MODEL 1
REMARK VINA RESULT:    -8.089      0.000      0.000
REMARK INTER + INTRA:         -11.446
REMARK INTER:                 -10.453
REMARK INTRA:                  -0.993
REMARK UNBOUND:                -0.993
REMARK  Name = No_1314-gen_results/8p0m/2024-11-27-11-27-31/
REMARK  5 active torsions:
REMARK  status: ('A' for Active; 'I' for Inactive)
REMARK    1  A    between atoms: C_4  and  C_11
REMARK    2  A    between atoms: C_5  and  O_27
REMARK    3  A    between atoms: C_6  and  O_15
REMARK    4  A    between atoms: C_12  and  C_13
REMARK    5  A    between atoms: O_15  and  C_16
REMARK                            x       y       z     vdW  Elec       q    Type
REMARK                         _______ _______ _______ _____ _____    ______ ____
ROOT
ATOM      1  C   UNL A   1     -25.901  -0.151  26.646  0.00  0.00    +0.037 A 
ATOM      2  C   UNL A   1     -25.542  -0.825  27.584  0.00  0.00    +0.003 A 
ATOM      3  C   UNL A   1     -24.834  -0.387  28.686  0.00  0.00    +0.003 A 
ATOM      4  C   UNL A   1     -24.382  -1.167  29.835  0.00  0.00    +0.034 A 
ATOM      5  C   UNL A   1     -23.630  -0.659  30.926  0.00  0.00    +0.139 A 
ATOM      6  C   UNL A   1     -25.443   1.310  26.639  0.00  0.00    +0.143 A 
ATOM      7  C   UNL A   1     -24.826   1.879  27.736  0.00  0.00    +0.037 A 
ATOM      8  C   UNL A   1     -24.430   1.035  28.845  0.00  0.00    +0.003 A 
ATOM      9  C   UNL A   1     -23.465   0.774  30.921  0.00  0.00    +0.037 A 
ATOM     10  C   UNL A   1     -23.755   1.585  29.914  0.00  0.00    +0.003 A 
ENDROOT
BRANCH   4  11
ATOM     11  C   UNL A   1     -24.652  -2.606  29.924  0.00  0.00    -0.001 A 
ATOM     12  C   UNL A   1     -25.727  -3.073  30.071  0.00  0.00    -0.022 A 
ATOM     13  C   UNL A   1     -23.768  -3.207  28.732  0.00  0.00    -0.000 A 
ATOM     14  C   UNL A   1     -23.982  -4.636  28.570  0.00  0.00    -0.000 A 
ATOM     15  C   UNL A   1     -25.240  -5.218  28.923  0.00  0.00    -0.000 A 
ATOM     16  C   UNL A   1     -26.128  -4.468  29.623  0.00  0.00    -0.004 A 
BRANCH  12  17
ATOM     17  C   UNL A   1     -26.929  -2.347  30.370  0.00  0.00    +0.026 C 
ATOM     18  C   UNL A   1     -28.085  -2.885  30.824  0.00  0.00    +0.005 C 
ENDBRANCH  12  17
ENDBRANCH   4  11
BRANCH   5  19
ATOM     19  O   UNL A   1     -23.293  -1.333  31.984  0.00  0.00    -0.471 OA
ATOM     20  C   UNL A   1     -23.840  -1.136  33.209  0.00  0.00    +0.253 C 
ENDBRANCH   5  19
BRANCH   6  21
ATOM     21  O   UNL A   1     -25.771   2.049  25.573  0.00  0.00    -0.436 OA
BRANCH  21  22
ATOM     22  C   UNL A   1     -27.033   2.237  25.248  0.00  0.00    +0.425 C 
ATOM     23  C   UNL A   1     -27.559   3.504  25.684  0.00  0.00    +0.331 C 
ATOM     24  O   UNL A   1     -26.952   4.205  26.338  0.00  0.00    -0.265 OA
ATOM     25  N   UNL A   1     -28.877   3.845  25.281  0.00  0.00    -0.168 NA
ATOM     26  C   UNL A   1     -29.733   2.975  24.512  0.00  0.00    +0.127 A 
ATOM     27  C   UNL A   1     -30.757   3.197  24.234  0.00  0.00    +0.023 A 
ATOM     28  C   UNL A   1     -31.578   2.283  23.354  0.00  0.00    +0.022 A 
ATOM     29  C   UNL A   1     -30.971   1.088  22.917  0.00  0.00    +0.102 A 
ATOM     30  N   UNL A   1     -29.703   0.918  23.264  0.00  0.00    -0.209 NA
ATOM     31  C   UNL A   1     -29.002   1.758  24.078  0.00  0.00    +0.244 A 
ATOM     32  O   UNL A   1     -27.721   1.489  24.434  0.00  0.00    -0.418 OA
ENDBRANCH  21  22
ENDBRANCH   6  21
TORSDOF 5
ENDMDL
ENDMDL
