MODEL 1315
MODEL 1
REMARK VINA RESULT:    -7.412      0.000      0.000
REMARK INTER + INTRA:         -12.417
REMARK INTER:                 -10.445
REMARK INTRA:                  -1.971
REMARK UNBOUND:                -1.971
REMARK  Name = No_1315-gen_results/8p0m/2024-11-27-11-27-31/
REMARK  7 active torsions:
REMARK  status: ('A' for Active; 'I' for Inactive)
REMARK    1  A    between atoms: C_5  and  C_14
REMARK    2  A    between atoms: C_7  and  O_19
REMARK    3  A    between atoms: N_8  and  C_18
REMARK    4  A    between atoms: C_18  and  C_31
REMARK    5  A    between atoms: O_19  and  C_20
REMARK    6  A    between atoms: C_20  and  C_21
REMARK    7  A    between atoms: C_32  and  C_33
REMARK                            x       y       z     vdW  Elec       q    Type
REMARK                         _______ _______ _______ _____ _____    ______ ____
ROOT
ATOM      1  C   UNL A   1     -11.487   2.917  35.974  0.00  0.00    +0.091 A 
ATOM      2  C   UNL A   1     -10.590   2.381  35.835  0.00  0.00    +0.258 C 
ATOM      3  C   UNL A   1     -12.642   2.310  35.300  0.00  0.00    +0.051 A 
ATOM      4  C   UNL A   1     -14.009   2.807  35.546  0.00  0.00    +0.007 A 
ATOM      5  C   UNL A   1     -14.292   3.348  36.820  0.00  0.00    +0.074 A 
ATOM      6  C   UNL A   1     -13.229   3.590  37.728  0.00  0.00    +0.041 A 
ATOM      7  C   UNL A   1     -11.958   3.301  37.378  0.00  0.00    +0.143 A 
ATOM      8  N   UNL A   1     -10.114   1.819  34.797  0.00  0.00    -0.216 N 
ATOM      9  O   UNL A   1      -9.534   2.527  36.768  0.00  0.00    -0.269 OA
ATOM     10  C   UNL A   1     -10.900   1.477  33.729  0.00  0.00    +0.294 C 
ATOM     11  C   UNL A   1     -12.368   1.788  34.009  0.00  0.00    +0.249 C 
ATOM     12  O   UNL A   1     -10.464   1.166  32.658  0.00  0.00    -0.266 OA
ATOM     13  O   UNL A   1     -13.267   1.528  33.143  0.00  0.00    -0.282 OA
ENDROOT
BRANCH   5  14
ATOM     14  C   UNL A   1     -15.711   3.472  37.079  0.00  0.00    +0.419 C 
ATOM     15  F   UNL A   1     -16.226   2.835  37.963  0.00  0.00    -0.166 F 
ATOM     16  F   UNL A   1     -16.388   3.390  35.886  0.00  0.00    -0.166 F 
ATOM     17  F   UNL A   1     -15.917   4.882  37.349  0.00  0.00    -0.166 F 
ENDBRANCH   5  14
BRANCH   8  18
ATOM     18  C   UNL A   1      -8.656   1.362  34.552  0.00  0.00    +0.128 C 
BRANCH  18  19
ATOM     19  C   UNL A   1      -8.457   0.048  34.772  0.00  0.00    -0.004 C 
ATOM     20  C   UNL A   1      -7.354  -0.376  34.686  0.00  0.00    -0.003 C 
BRANCH  20  21
ATOM     21  C   UNL A   1      -7.027  -1.857  34.710  0.00  0.00    -0.005 C 
ATOM     22  C   UNL A   1      -5.655  -2.184  34.672  0.00  0.00    -0.026 C 
ATOM     23  C   UNL A   1      -4.717  -1.156  34.738  0.00  0.00    +0.031 C 
ENDBRANCH  20  21
ENDBRANCH  18  19
ENDBRANCH   8  18
BRANCH   7  24
ATOM     24  O   UNL A   1     -11.086   3.692  38.293  0.00  0.00    -0.470 OA
BRANCH  24  25
ATOM     25  C   UNL A   1     -11.251   3.232  39.624  0.00  0.00    +0.232 C 
BRANCH  25  26
ATOM     26  C   UNL A   1     -10.292   2.361  40.194  0.00  0.00    +0.024 A 
ATOM     27  C   UNL A   1      -8.976   2.640  40.201  0.00  0.00    -0.001 A 
ATOM     28  C   UNL A   1      -8.098   1.896  39.873  0.00  0.00    +0.003 A 
ATOM     29  C   UNL A   1      -8.384   0.477  39.490  0.00  0.00    +0.037 A 
ATOM     30  C   UNL A   1      -9.726   0.136  39.674  0.00  0.00    +0.139 A 
ATOM     31  C   UNL A   1     -10.661   1.070  39.857  0.00  0.00    +0.033 A 
ATOM     32  O   UNL A   1     -10.017  -1.182  39.385  0.00  0.00    -0.471 OA
ATOM     33  C   UNL A   1     -11.339  -1.602  39.385  0.00  0.00    +0.232 C 
ATOM     34  C   UNL A   1     -11.996   0.726  40.336  0.00  0.00    +0.002 C 
ATOM     35  C   UNL A   1     -12.280  -0.814  40.175  0.00  0.00    +0.021 C 
ENDBRANCH  25  26
ENDBRANCH  24  25
ENDBRANCH   7  24
TORSDOF 7
ENDMDL
ENDMDL
