REMARK  Name = outputs/IAG933/test6/raw/output_1315_IAG933_linker_design_.xyz
REMARK  18 active torsions:
REMARK  status: ('A' for Active; 'I' for Inactive)
REMARK    1  A    between atoms: C_1  and  C_2
REMARK    2  A    between atoms: C_1  and  C_8
REMARK    3  A    between atoms: C_9  and  C_29
REMARK    4  A    between atoms: C_14  and  C_15
REMARK    5  A    between atoms: C_15  and  O_18
REMARK    6  A    between atoms: O_18  and  C_31
REMARK    7  A    between atoms: C_21  and  O_22
REMARK    8  A    between atoms: O_22  and  C_23
REMARK    9  A    between atoms: C_23  and  C_24
REMARK   10  A    between atoms: C_28  and  C_30
REMARK   11  A    between atoms: C_28  and  C_47
REMARK   12  A    between atoms: C_28  and  C_48
REMARK   13  A    between atoms: C_29  and  C_48
REMARK   14  A    between atoms: C_29  and  O_51
REMARK   15  A    between atoms: C_31  and  C_34
REMARK   16  A    between atoms: C_31  and  O_51
REMARK   17  A    between atoms: O_35  and  C_37
REMARK   18  A    between atoms: O_35  and  C_46
REMARK                            x       y       z     vdW  Elec       q    Type
REMARK                         _______ _______ _______ _____ _____    ______ ____
ROOT
ATOM      1  C   UNL A   1     -25.490   1.954  31.133  0.00  0.00    +0.121 C 
ENDROOT
BRANCH   1   3
ATOM      2  C   UNL A   1     -25.387  -0.679  31.571  0.00  0.00    +0.080 C 
ATOM      3  C   UNL A   1     -25.189   0.773  32.028  0.00  0.00    +0.045 C 
ATOM      4  C   UNL A   1     -25.336   0.684  33.544  0.00  0.00    +0.023 C 
ATOM      5  C   UNL A   1     -24.829  -0.715  33.905  0.00  0.00    +0.089 C 
ATOM      6  N   UNL A   1     -24.758  -1.481  32.646  0.00  0.00    -0.219 NA
BRANCH   2   7
ATOM      7  C   UNL A   1     -24.855  -1.012  30.143  0.00  0.00    +0.044 C 
BRANCH   7   8
ATOM      8  C   UNL A   1     -24.973  -2.505  29.788  0.00  0.00    -0.021 C 
ATOM      9  C   UNL A   1     -23.906  -3.173  29.146  0.00  0.00    -0.004 C 
ATOM     10  C   UNL A   1     -23.989  -4.549  28.853  0.00  0.00    -0.000 C 
ATOM     11  C   UNL A   1     -25.137  -5.280  29.205  0.00  0.00    -0.000 C 
ATOM     12  C   UNL A   1     -26.232  -4.611  29.784  0.00  0.00    -0.000 C 
ATOM     13  C   UNL A   1     -26.155  -3.232  30.065  0.00  0.00    -0.004 C 
ENDBRANCH   7   8
ENDBRANCH   2   7
ENDBRANCH   1   3
BRANCH   1  14
ATOM     14  O   UNL A   1     -25.504   1.784  29.805  0.00  0.00    -0.323 OA
BRANCH  14  15
ATOM     15  C   UNL A   1     -24.651   2.678  28.802  0.00  0.00    +0.289 C 
BRANCH  15  16
ATOM     16  C   UNL A   1     -23.543   2.125  27.880  0.00  0.00    +0.075 C 
ATOM     17  C   UNL A   1     -23.660   1.821  26.698  0.00  0.00    +0.038 C 
ATOM     18  C   UNL A   1     -21.181   1.903  27.555  0.00  0.00    +0.142 C 
ATOM     19  O   UNL A   1     -21.363   2.111  26.241  0.00  0.00    -0.354 OA
ATOM     20  C   UNL A   1     -22.238   1.786  28.448  0.00  0.00    +0.038 C 
ATOM     21  C   UNL A   1     -22.563   2.086  25.716  0.00  0.00    +0.142 C 
ENDBRANCH  15  16
BRANCH  15  22
ATOM     22  O   UNL A   1     -25.143   3.966  28.243  0.00  0.00    -0.436 OA
BRANCH  22  23
ATOM     23  C   UNL A   1     -25.642   4.093  27.123  0.00  0.00    +0.224 C 
ATOM     24  N   UNL A   1     -25.614   5.252  26.449  0.00  0.00    -0.236 NA
ATOM     25  C   UNL A   1     -25.026   6.479  26.963  0.00  0.00    +0.155 C 
BRANCH  23  27
ATOM     26  C   UNL A   1     -25.688   1.614  26.461  0.00  0.00    +0.041 C 
ATOM     27  C   UNL A   1     -26.250   2.920  26.395  0.00  0.00    +0.074 C 
ATOM     28  C   UNL A   1     -27.438   3.091  25.645  0.00  0.00    +0.107 C 
ATOM     29  N   UNL A   1     -28.075   2.089  25.003  0.00  0.00    -0.208 NA
ATOM     30  C   UNL A   1     -27.543   0.849  25.079  0.00  0.00    +0.253 C 
ATOM     31  C   UNL A   1     -26.354   0.576  25.777  0.00  0.00    +0.193 C 
ATOM     32  F   UNL A   1     -25.860  -0.681  25.795  0.00  0.00    -0.199 F 
BRANCH  30  33
ATOM     33  O   UNL A   1     -28.193  -0.208  24.477  0.00  0.00    -0.456 OA
BRANCH  33  34
ATOM     34  C   UNL A   1     -29.460   0.005  23.866  0.00  0.00    +0.243 C 
BRANCH  34  35
ATOM     35  C   UNL A   1     -30.065  -1.377  23.573  0.00  0.00    +0.229 C 
ATOM     36  O   UNL A   1     -30.729  -1.878  24.721  0.00  0.00    -0.216 OA
ENDBRANCH  34  35
ENDBRANCH  33  34
ENDBRANCH  30  33
ENDBRANCH  23  27
ENDBRANCH  22  23
ENDBRANCH  15  22
ENDBRANCH  14  15
ENDBRANCH   1  14
BRANCH   1  37
ATOM     37  C   UNL A   1     -25.801   3.364  31.791  0.00  0.00    +0.042 C 
BRANCH  37  38
ATOM     38  C   UNL A   1     -26.297   4.412  30.639  0.00  0.00    +0.117 C 
BRANCH  38  43
ATOM     39  N   UNL A   1     -26.965   5.561  32.608  0.00  0.00    +0.075 NA
ATOM     40  N   UNL A   1     -26.746   6.908  30.654  0.00  0.00    +0.192 NA
ATOM     41  O   UNL A   1     -26.826   6.981  34.220  0.00  0.00    -0.195 OA
ATOM     42  O   UNL A   1     -24.957   6.375  33.358  0.00  0.00    -0.195 OA
ATOM     43  C   UNL A   1     -26.692   5.620  31.241  0.00  0.00    +0.400 C 
ATOM     44  C   UNL A   1     -26.191   6.324  33.407  0.00  0.00    +0.583 C 
ENDBRANCH  38  43
BRANCH  38  45
ATOM     45  C   UNL A   1     -27.923   3.855  30.128  0.00  0.00    +0.016 C 
ATOM     46  C   UNL A   1     -28.877   4.997  29.893  0.00  0.00    +0.046 C 
ATOM     47  C   UNL A   1     -30.148   3.157  30.745  0.00  0.00    +0.046 C 
ATOM     48  N   UNL A   1     -30.245   3.689  28.527  0.00  0.00    -0.104 NA
ATOM     49  C   UNL A   1     -30.287   4.290  29.744  0.00  0.00    +0.170 C 
ATOM     50  C   UNL A   1     -28.605   3.018  31.077  0.00  0.00    +0.005 C 
BRANCH  49  51
ATOM     51  O   UNL A   1     -31.165   5.429  29.803  0.00  0.00    -0.323 OA
BRANCH  51  53
ATOM     52  N   UNL A   1     -31.735   7.302  31.198  0.00  0.00    -0.096 NA
ATOM     53  C   UNL A   1     -31.816   5.834  31.007  0.00  0.00    +0.254 C 
ENDBRANCH  51  53
ENDBRANCH  49  51
ENDBRANCH  38  45
ENDBRANCH  37  38
ENDBRANCH   1  37
TORSDOF 18
