MODEL 1316
MODEL 1
REMARK VINA RESULT:    -6.822      0.000      0.000
REMARK INTER + INTRA:         -10.721
REMARK INTER:                  -9.614
REMARK INTRA:                  -1.107
REMARK UNBOUND:                -1.107
REMARK  Name = No_1316-gen_results/8p0m/2024-11-27-11-27-31/
REMARK  7 active torsions:
REMARK  status: ('A' for Active; 'I' for Inactive)
REMARK    1  A    between atoms: C_1  and  C_2
REMARK    2  A    between atoms: C_1  and  N_8
REMARK    3  A    between atoms: C_5  and  C_10
REMARK    4  A    between atoms: C_9  and  C_13
REMARK    5  A    between atoms: C_13  and  C_15
REMARK    6  A    between atoms: C_15  and  C_18
REMARK    7  A    between atoms: C_23  and  N_25
REMARK                            x       y       z     vdW  Elec       q    Type
REMARK                         _______ _______ _______ _____ _____    ______ ____
ROOT
ATOM      1  C   UNL A   1     -23.941   2.268  26.486  0.00  0.00    +0.339 C 
ATOM      2  F   UNL A   1     -24.613   1.347  26.034  0.00  0.00    -0.194 F 
ATOM      3  F   UNL A   1     -23.386   2.955  25.361  0.00  0.00    -0.194 F 
ENDROOT
BRANCH   1   4
ATOM      4  C   UNL A   1     -22.643   1.548  27.096  0.00  0.00    +0.291 C 
ATOM      5  O   UNL A   1     -21.561   1.836  26.631  0.00  0.00    -0.269 OA
ATOM      6  N   UNL A   1     -22.729   0.918  28.267  0.00  0.00    -0.252 N 
ATOM      7  C   UNL A   1     -23.948   0.521  28.900  0.00  0.00    +0.078 C 
ATOM      8  C   UNL A   1     -21.521   0.317  28.842  0.00  0.00    +0.104 C 
ATOM      9  C   UNL A   1     -23.766  -0.347  29.937  0.00  0.00    +0.042 C 
ATOM     10  C   UNL A   1     -22.314  -0.483  30.029  0.00  0.00    +0.064 C 
BRANCH   9  11
ATOM     11  N   UNL A   1     -24.389  -1.635  29.846  0.00  0.00    -0.310 N 
ATOM     12  C   UNL A   1     -25.600  -1.791  29.939  0.00  0.00    +0.090 C 
ATOM     13  C   UNL A   1     -26.187  -3.158  29.938  0.00  0.00    +0.021 C 
ATOM     14  C   UNL A   1     -23.778  -2.660  28.998  0.00  0.00    +0.090 C 
ATOM     15  C   UNL A   1     -24.172  -4.045  29.076  0.00  0.00    +0.021 C 
ATOM     16  C   UNL A   1     -25.598  -4.173  29.152  0.00  0.00    +0.004 C 
ENDBRANCH   9  11
ENDBRANCH   1   4
BRANCH   1  17
ATOM     17  C   UNL A   1     -24.406   3.109  27.356  0.00  0.00    +0.163 C 
BRANCH  17  19
ATOM     18  N   UNL A   1     -26.776   3.104  27.466  0.00  0.00    -0.200 NA
ATOM     19  C   UNL A   1     -25.616   3.712  27.113  0.00  0.00    +0.248 C 
ATOM     20  O   UNL A   1     -25.591   4.867  26.566  0.00  0.00    -0.273 OA
BRANCH  18  21
ATOM     21  C   UNL A   1     -27.899   3.335  26.724  0.00  0.00    +0.141 C 
BRANCH  21  22
ATOM     22  C   UNL A   1     -28.289   2.398  26.067  0.00  0.00    -0.001 A 
ATOM     23  C   UNL A   1     -29.231   1.508  26.573  0.00  0.00    -0.002 A 
ATOM     24  C   UNL A   1     -29.781   0.314  25.870  0.00  0.00    +0.008 A 
ATOM     25  C   UNL A   1     -29.414   0.174  24.499  0.00  0.00    +0.098 A 
ATOM     26  C   UNL A   1     -28.504   1.121  23.988  0.00  0.00    +0.008 A 
ATOM     27  C   UNL A   1     -28.001   2.147  24.690  0.00  0.00    -0.002 A 
BRANCH  25  28
ATOM     28  C   UNL A   1     -29.976  -0.952  23.796  0.00  0.00    +0.477 C 
ATOM     29  N   UNL A   1     -30.931  -1.115  23.402  0.00  0.00    +0.205 NA
ATOM     30  N   UNL A   1     -28.920  -1.815  23.280  0.00  0.00    +0.205 NA
ENDBRANCH  25  28
ENDBRANCH  21  22
ENDBRANCH  18  21
ENDBRANCH  17  19
ENDBRANCH   1  17
TORSDOF 7
ENDMDL
ENDMDL
