REMARK  Name = No_1316-gen_results/8p0m/2024-11-27-11-27-31/
REMARK  7 active torsions:
REMARK  status: ('A' for Active; 'I' for Inactive)
REMARK    1  A    between atoms: C_1  and  C_2
REMARK    2  A    between atoms: C_1  and  N_8
REMARK    3  A    between atoms: C_5  and  C_10
REMARK    4  A    between atoms: C_9  and  C_13
REMARK    5  A    between atoms: C_13  and  C_15
REMARK    6  A    between atoms: C_15  and  C_18
REMARK    7  A    between atoms: C_23  and  N_25
REMARK                            x       y       z     vdW  Elec       q    Type
REMARK                         _______ _______ _______ _____ _____    ______ ____
ROOT
ATOM      1  C   UNL A   1     -32.377  -1.438  29.381  0.00  0.00    +0.339 C 
ATOM      2  F   UNL A   1     -32.379  -2.380  30.166  0.00  0.00    -0.194 F 
ATOM      3  F   UNL A   1     -33.710  -0.920  29.368  0.00  0.00    -0.194 F 
ENDROOT
BRANCH   1   4
ATOM      4  C   UNL A   1     -32.286  -2.128  27.935  0.00  0.00    +0.291 C 
ATOM      5  O   UNL A   1     -32.151  -3.332  27.886  0.00  0.00    -0.269 OA
ATOM      6  N   UNL A   1     -32.669  -1.446  26.856  0.00  0.00    -0.252 N 
ATOM      7  C   UNL A   1     -32.847  -0.029  26.799  0.00  0.00    +0.078 C 
ATOM      8  C   UNL A   1     -32.639  -2.109  25.548  0.00  0.00    +0.104 C 
ATOM      9  C   UNL A   1     -32.964   0.454  25.528  0.00  0.00    +0.042 C 
ATOM     10  C   UNL A   1     -32.919  -0.743  24.692  0.00  0.00    +0.064 C 
BRANCH   9  11
ATOM     11  N   UNL A   1     -31.995   1.414  25.087  0.00  0.00    -0.310 N 
ATOM     12  C   UNL A   1     -30.816   1.363  25.416  0.00  0.00    +0.090 C 
ATOM     13  C   UNL A   1     -29.872   2.439  25.012  0.00  0.00    +0.021 C 
ATOM     14  C   UNL A   1     -32.159   2.033  23.770  0.00  0.00    +0.090 C 
ATOM     15  C   UNL A   1     -31.404   3.198  23.378  0.00  0.00    +0.021 C 
ATOM     16  C   UNL A   1     -30.027   3.073  23.760  0.00  0.00    +0.004 C 
ENDBRANCH   9  11
ENDBRANCH   1   4
BRANCH   1  17
ATOM     17  C   UNL A   1     -31.510  -0.477  29.447  0.00  0.00    +0.163 C 
BRANCH  17  19
ATOM     18  N   UNL A   1     -29.188  -0.147  29.092  0.00  0.00    -0.200 NA
ATOM     19  C   UNL A   1     -30.202  -0.783  29.730  0.00  0.00    +0.248 C 
ATOM     20  O   UNL A   1     -29.992  -1.669  30.628  0.00  0.00    -0.273 OA
BRANCH  18  21
ATOM     21  C   UNL A   1     -28.016  -0.814  28.878  0.00  0.00    +0.141 C 
BRANCH  21  22
ATOM     22  C   UNL A   1     -27.064  -0.119  28.608  0.00  0.00    -0.001 A 
ATOM     23  C   UNL A   1     -25.792  -0.430  29.076  0.00  0.00    -0.002 A 
ATOM     24  C   UNL A   1     -24.546   0.349  28.823  0.00  0.00    +0.008 A 
ATOM     25  C   UNL A   1     -24.659   1.420  27.888  0.00  0.00    +0.098 A 
ATOM     26  C   UNL A   1     -25.947   1.681  27.379  0.00  0.00    +0.008 A 
ATOM     27  C   UNL A   1     -27.044   0.974  27.687  0.00  0.00    -0.002 A 
BRANCH  25  28
ATOM     28  C   UNL A   1     -23.451   2.152  27.601  0.00  0.00    +0.477 C 
ATOM     29  N   UNL A   1     -22.517   1.836  27.255  0.00  0.00    +0.205 NA
ATOM     30  N   UNL A   1     -23.735   3.575  27.456  0.00  0.00    +0.205 NA
ENDBRANCH  25  28
ENDBRANCH  21  22
ENDBRANCH  18  21
ENDBRANCH  17  19
ENDBRANCH   1  17
TORSDOF 7
