REMARK  Name = No_1317-gen_results/8p0m/2024-11-27-11-27-31/
REMARK  4 active torsions:
REMARK  status: ('A' for Active; 'I' for Inactive)
REMARK    1  A    between atoms: C_3  and  C_4
REMARK    2  A    between atoms: C_7  and  C_13
REMARK    3  A    between atoms: C_12  and  O_19
REMARK    4  A    between atoms: O_19  and  C_20
REMARK                            x       y       z     vdW  Elec       q    Type
REMARK                         _______ _______ _______ _____ _____    ______ ____
ROOT
ATOM      1  C   UNL A   1     -28.016  -0.814  28.878  0.00  0.00    +0.030 A 
ATOM      2  C   UNL A   1     -28.469  -0.785  29.829  0.00  0.00    +0.140 A 
ATOM      3  C   UNL A   1     -28.182   0.428  28.113  0.00  0.00    +0.006 A 
ATOM      4  C   UNL A   1     -29.426   0.110  30.418  0.00  0.00    +0.034 A 
ATOM      5  C   UNL A   1     -29.623   1.220  29.735  0.00  0.00    +0.074 A 
ATOM      6  C   UNL A   1     -28.961   1.453  28.551  0.00  0.00    +0.004 A 
ATOM      7  F   UNL A   1     -28.371  -2.006  30.651  0.00  0.00    -0.204 F 
ENDROOT
BRANCH   3   8
ATOM      8  C   UNL A   1     -27.450   0.643  26.850  0.00  0.00    +0.045 A 
ATOM      9  C   UNL A   1     -27.860   1.457  25.908  0.00  0.00    +0.061 A 
ATOM     10  C   UNL A   1     -27.173   1.574  24.703  0.00  0.00    +0.012 A 
ATOM     11  C   UNL A   1     -26.089   0.747  24.413  0.00  0.00    +0.004 A 
ATOM     12  C   UNL A   1     -25.636  -0.119  25.397  0.00  0.00    +0.037 A 
ATOM     13  C   UNL A   1     -26.281  -0.206  26.582  0.00  0.00    +0.146 A 
ATOM     14 CL   UNL A   1     -29.242   2.517  26.043  0.00  0.00    -0.082 Cl
BRANCH  13  15
ATOM     15  O   UNL A   1     -25.752  -1.060  27.487  0.00  0.00    -0.451 OA
BRANCH  15  16
ATOM     16  C   UNL A   1     -24.694  -0.642  28.249  0.00  0.00    +0.175 C 
ATOM     17  C   UNL A   1     -24.138  -1.631  29.112  0.00  0.00    +0.015 C 
ATOM     18  C   UNL A   1     -24.803  -2.741  29.527  0.00  0.00    +0.034 C 
ENDBRANCH  15  16
ENDBRANCH  13  15
ENDBRANCH   3   8
BRANCH   5  19
ATOM     19  C   UNL A   1     -30.546   2.320  30.242  0.00  0.00    +0.419 C 
ATOM     20  F   UNL A   1     -31.081   2.889  29.451  0.00  0.00    -0.166 F 
ATOM     21  F   UNL A   1     -29.731   3.146  31.016  0.00  0.00    -0.166 F 
ATOM     22  F   UNL A   1     -31.373   1.709  31.178  0.00  0.00    -0.166 F 
ENDBRANCH   5  19
TORSDOF 4
