MODEL 1317
MODEL 1
REMARK VINA RESULT:    -6.691      0.000      0.000
REMARK INTER + INTRA:         -10.003
REMARK INTER:                  -8.255
REMARK INTRA:                  -1.748
REMARK UNBOUND:                -1.748
REMARK  Name = No_1317-gen_results/8p0m/2024-11-27-11-27-31/
REMARK  4 active torsions:
REMARK  status: ('A' for Active; 'I' for Inactive)
REMARK    1  A    between atoms: C_3  and  C_4
REMARK    2  A    between atoms: C_7  and  C_13
REMARK    3  A    between atoms: C_12  and  O_19
REMARK    4  A    between atoms: O_19  and  C_20
REMARK                            x       y       z     vdW  Elec       q    Type
REMARK                         _______ _______ _______ _____ _____    ______ ____
ROOT
ATOM      1  C   UNL A   1     -24.105  -2.563  28.321  0.00  0.00    +0.030 A 
ATOM      2  C   UNL A   1     -24.528  -3.305  28.938  0.00  0.00    +0.140 A 
ATOM      3  C   UNL A   1     -24.808  -1.276  28.389  0.00  0.00    +0.006 A 
ATOM      4  C   UNL A   1     -25.789  -3.393  29.620  0.00  0.00    +0.034 A 
ATOM      5  C   UNL A   1     -26.461  -2.260  29.667  0.00  0.00    +0.074 A 
ATOM      6  C   UNL A   1     -25.968  -1.117  29.081  0.00  0.00    +0.004 A 
ATOM      7  F   UNL A   1     -23.895  -4.638  28.907  0.00  0.00    -0.204 F 
ENDROOT
BRANCH   3   8
ATOM      8  C   UNL A   1     -24.244  -0.071  27.751  0.00  0.00    +0.045 A 
ATOM      9  C   UNL A   1     -24.549   0.312  26.536  0.00  0.00    +0.061 A 
ATOM     10  C   UNL A   1     -23.938   1.418  25.950  0.00  0.00    +0.012 A 
ATOM     11  C   UNL A   1     -22.900   2.088  26.596  0.00  0.00    +0.004 A 
ATOM     12  C   UNL A   1     -22.564   1.702  27.885  0.00  0.00    +0.037 A 
ATOM     13  C   UNL A   1     -23.183   0.651  28.468  0.00  0.00    +0.146 A 
ATOM     14 CL   UNL A   1     -25.762  -0.443  25.531  0.00  0.00    -0.082 Cl
BRANCH  13  15
ATOM     15  O   UNL A   1     -22.806   0.364  29.734  0.00  0.00    -0.451 OA
BRANCH  15  16
ATOM     16  C   UNL A   1     -23.508   0.913  30.773  0.00  0.00    +0.175 C 
ATOM     17  C   UNL A   1     -23.667   0.071  31.912  0.00  0.00    +0.015 C 
ATOM     18  C   UNL A   1     -23.563  -1.283  31.879  0.00  0.00    +0.034 C 
ENDBRANCH  15  16
ENDBRANCH  13  15
ENDBRANCH   3   8
BRANCH   5  19
ATOM     19  C   UNL A   1     -27.783  -2.143  30.413  0.00  0.00    +0.419 C 
ATOM     20  F   UNL A   1     -28.396  -3.070  30.435  0.00  0.00    -0.166 F 
ATOM     21  F   UNL A   1     -28.455  -1.091  29.791  0.00  0.00    -0.166 F 
ATOM     22  F   UNL A   1     -27.460  -1.630  31.664  0.00  0.00    -0.166 F 
ENDBRANCH   5  19
TORSDOF 4
ENDMDL
ENDMDL
