MODEL 1318
MODEL 1
REMARK VINA RESULT:    -4.953      0.000      0.000
REMARK INTER + INTRA:          -5.096
REMARK INTER:                  -5.242
REMARK INTRA:                   0.146
REMARK UNBOUND:                 0.146
REMARK  Name = No_1318-gen_results/8p0m/2024-11-27-11-27-31/
REMARK  1 active torsions:
REMARK  status: ('A' for Active; 'I' for Inactive)
REMARK    1  A    between atoms: C_3  and  C_4
REMARK                            x       y       z     vdW  Elec       q    Type
REMARK                         _______ _______ _______ _____ _____    ______ ____
ROOT
ATOM      1  C   UNL A   1     -24.252  -2.834  29.298  0.00  0.00    +0.001 A 
ATOM      2  C   UNL A   1     -24.033  -4.070  28.649  0.00  0.00    +0.000 A 
ATOM      3  C   UNL A   1     -24.816  -5.180  28.922  0.00  0.00    +0.000 A 
ATOM      4  C   UNL A   1     -26.012  -4.921  29.549  0.00  0.00    +0.000 A 
ATOM      5  C   UNL A   1     -26.348  -3.641  29.869  0.00  0.00    +0.000 A 
ATOM      6  C   UNL A   1     -25.488  -2.680  29.857  0.00  0.00    +0.000 A 
ENDROOT
BRANCH   1   9
ATOM      7  N   UNL A   1     -24.209  -0.531  27.916  0.00  0.00    -0.127 NA
ATOM      8  C   UNL A   1     -23.561  -0.914  28.668  0.00  0.00    +0.106 C 
ATOM      9  C   UNL A   1     -23.326  -1.663  29.296  0.00  0.00    +0.019 C 
ENDBRANCH   1   9
TORSDOF 1
ENDMDL
ENDMDL
