REMARK  Name = outputs/IAG933/test6/raw/output_1318_IAG933_linker_design_.xyz
REMARK  15 active torsions:
REMARK  status: ('A' for Active; 'I' for Inactive)
REMARK    1  A    between atoms: C_1  and  C_2
REMARK    2  A    between atoms: C_1  and  C_8
REMARK    3  A    between atoms: C_9  and  S_46
REMARK    4  A    between atoms: C_13  and  C_42
REMARK    5  A    between atoms: C_14  and  C_15
REMARK    6  A    between atoms: C_21  and  O_22
REMARK    7  A    between atoms: O_22  and  C_23
REMARK    8  A    between atoms: C_23  and  C_24
REMARK    9  A    between atoms: N_32  and  C_42
REMARK   10  A    between atoms: C_38  and  C_50
REMARK   11  A    between atoms: C_42  and  N_49
REMARK   12  A    between atoms: O_45  and  S_46
REMARK   13  A    between atoms: O_45  and  C_47
REMARK   14  A    between atoms: S_46  and  N_49
REMARK   15  A    between atoms: C_47  and  C_50
REMARK                            x       y       z     vdW  Elec       q    Type
REMARK                         _______ _______ _______ _____ _____    ______ ____
ROOT
ATOM      1  S   UNL A   1     -25.901   1.861  30.834  0.00  0.00    +0.099 S 
ATOM      2  O   UNL A   1     -27.241   1.623  30.567  0.00  0.00    -0.129 OA
ENDROOT
BRANCH   1   4
ATOM      3  C   UNL A   1     -25.387  -0.679  31.571  0.00  0.00    +0.091 C 
ATOM      4  C   UNL A   1     -25.189   0.773  32.028  0.00  0.00    +0.114 C 
ATOM      5  C   UNL A   1     -25.336   0.684  33.544  0.00  0.00    +0.035 C 
ATOM      6  C   UNL A   1     -24.829  -0.715  33.905  0.00  0.00    +0.090 C 
ATOM      7  N   UNL A   1     -24.758  -1.481  32.646  0.00  0.00    -0.218 NA
BRANCH   3   8
ATOM      8  C   UNL A   1     -24.855  -1.012  30.143  0.00  0.00    +0.045 C 
BRANCH   8   9
ATOM      9  C   UNL A   1     -24.973  -2.505  29.788  0.00  0.00    -0.021 C 
ATOM     10  C   UNL A   1     -23.906  -3.173  29.146  0.00  0.00    -0.004 C 
ATOM     11  C   UNL A   1     -23.989  -4.549  28.853  0.00  0.00    -0.000 C 
ATOM     12  C   UNL A   1     -25.137  -5.280  29.205  0.00  0.00    -0.000 C 
ATOM     13  C   UNL A   1     -26.232  -4.611  29.784  0.00  0.00    -0.000 C 
ATOM     14  C   UNL A   1     -26.155  -3.232  30.065  0.00  0.00    -0.004 C 
ENDBRANCH   8   9
ENDBRANCH   3   8
ENDBRANCH   1   4
BRANCH   1  15
ATOM     15  O   UNL A   1     -25.738   3.074  31.650  0.00  0.00    -0.280 OA
BRANCH  15  16
ATOM     16  C   UNL A   1     -24.514   3.554  32.185  0.00  0.00    +0.197 C 
BRANCH  16  18
ATOM     17  O   UNL A   1     -24.093   6.109  31.388  0.00  0.00    -0.216 OA
ATOM     18  C   UNL A   1     -24.780   4.982  31.953  0.00  0.00    +0.208 C 
BRANCH  18  25
ATOM     19  C   UNL A   1     -26.333   4.548  33.684  0.00  0.00    +0.050 C 
ATOM     20  C   UNL A   1     -26.102   6.814  33.116  0.00  0.00    +0.397 C 
ATOM     21  N   UNL A   1     -27.720   5.253  34.995  0.00  0.00    -0.228 NA
ATOM     22  C   UNL A   1     -27.832   6.432  34.844  0.00  0.00    +0.283 C 
ATOM     23  N   UNL A   1     -27.131   7.195  33.986  0.00  0.00    -0.015 NA
ATOM     24  N   UNL A   1     -25.387   7.779  32.500  0.00  0.00    +0.213 NA
ATOM     25  C   UNL A   1     -25.746   5.489  32.900  0.00  0.00    +0.078 C 
ATOM     26  C   UNL A   1     -28.648   5.623  35.953  0.00  0.00    +0.145 C 
ATOM     27  C   UNL A   1     -27.176   4.115  34.510  0.00  0.00    +0.081 C 
ENDBRANCH  18  25
ENDBRANCH  16  18
ENDBRANCH  15  16
ENDBRANCH   1  15
BRANCH   1  28
ATOM     28  N   UNL A   1     -25.430   2.099  29.010  0.00  0.00    -0.091 NA
BRANCH  28  30
ATOM     29  O   UNL A   1     -24.840  -0.090  27.985  0.00  0.00    -0.189 OA
ATOM     30  C   UNL A   1     -24.816   1.262  27.686  0.00  0.00    +0.257 C 
BRANCH  30  31
ATOM     31  C   UNL A   1     -25.688   1.614  26.461  0.00  0.00    +0.130 C 
ATOM     32  C   UNL A   1     -26.250   2.920  26.395  0.00  0.00    +0.060 C 
ATOM     33  C   UNL A   1     -27.438   3.091  25.645  0.00  0.00    +0.102 C 
ATOM     34  N   UNL A   1     -28.075   2.089  25.003  0.00  0.00    -0.212 NA
ATOM     35  C   UNL A   1     -27.543   0.849  25.079  0.00  0.00    +0.234 C 
ATOM     36  C   UNL A   1     -26.354   0.576  25.777  0.00  0.00    +0.245 C 
ATOM     37  F   UNL A   1     -25.860  -0.681  25.795  0.00  0.00    -0.227 F 
BRANCH  32  38
ATOM     38  C   UNL A   1     -25.642   4.093  27.123  0.00  0.00    +0.263 C 
ATOM     39  N   UNL A   1     -25.614   5.252  26.449  0.00  0.00    -0.200 NA
ATOM     40  C   UNL A   1     -25.026   6.479  26.963  0.00  0.00    +0.139 C 
ATOM     41  O   UNL A   1     -25.143   3.966  28.243  0.00  0.00    -0.269 OA
ENDBRANCH  32  38
BRANCH  35  42
ATOM     42  O   UNL A   1     -28.193  -0.208  24.477  0.00  0.00    -0.459 OA
BRANCH  42  43
ATOM     43  C   UNL A   1     -29.460   0.005  23.866  0.00  0.00    +0.242 C 
BRANCH  43  44
ATOM     44  C   UNL A   1     -30.065  -1.377  23.573  0.00  0.00    +0.229 C 
ATOM     45  O   UNL A   1     -30.729  -1.878  24.721  0.00  0.00    -0.216 OA
ENDBRANCH  43  44
ENDBRANCH  42  43
ENDBRANCH  35  42
ENDBRANCH  30  31
BRANCH  30  46
ATOM     46  N   UNL A   1     -23.506   1.748  27.413  0.00  0.00    -0.209 NA
ATOM     47  O   UNL A   1     -21.657   2.393  26.398  0.00  0.00    -0.336 OA
ATOM     48  C   UNL A   1     -22.361   1.272  28.368  0.00  0.00    +0.110 C 
ATOM     49  C   UNL A   1     -21.208   1.381  27.434  0.00  0.00    +0.161 C 
ATOM     50  C   UNL A   1     -23.004   1.992  26.023  0.00  0.00    +0.223 C 
ENDBRANCH  30  46
ENDBRANCH  28  30
ENDBRANCH   1  28
TORSDOF 15
