REMARK  Name = outputs/IAG933/test6/raw/output_1319_IAG933_linker_design_.xyz
REMARK  14 active torsions:
REMARK  status: ('A' for Active; 'I' for Inactive)
REMARK    1  A    between atoms: C_1  and  C_2
REMARK    2  A    between atoms: C_1  and  C_8
REMARK    3  A    between atoms: C_1  and  C_46
REMARK    4  A    between atoms: C_13  and  C_48
REMARK    5  A    between atoms: C_14  and  C_15
REMARK    6  A    between atoms: C_21  and  O_22
REMARK    7  A    between atoms: O_22  and  C_23
REMARK    8  A    between atoms: C_23  and  C_24
REMARK    9  A    between atoms: C_31  and  C_38
REMARK   10  A    between atoms: C_33  and  O_42
REMARK   11  A    between atoms: C_35  and  N_36
REMARK   12  A    between atoms: C_38  and  C_46
REMARK   13  A    between atoms: C_38  and  C_48
REMARK   14  A    between atoms: O_42  and  C_48
REMARK                            x       y       z     vdW  Elec       q    Type
REMARK                         _______ _______ _______ _____ _____    ______ ____
ROOT
ATOM      1  C   UNL A   1     -25.224   1.049  28.750  0.00  0.00    +0.110 C 
ENDROOT
BRANCH   1   2
ATOM      2  C   UNL A   1     -26.668   0.988  29.160  0.00  0.00    +0.245 C 
ATOM      3  N   UNL A   1     -27.095   1.982  30.146  0.00  0.00    -0.188 NA
ATOM      4  O   UNL A   1     -27.339   0.084  28.740  0.00  0.00    -0.273 OA
BRANCH   3  10
ATOM      5  C   UNL A   1     -26.100   7.327  31.634  0.00  0.00    -0.000 C 
ATOM      6  C   UNL A   1     -29.097   5.174  32.712  0.00  0.00    +0.153 C 
ATOM      7  C   UNL A   1     -27.223   4.771  31.068  0.00  0.00    +0.009 C 
ATOM      8  S   UNL A   1     -29.365   3.267  30.974  0.00  0.00    +0.050 S 
ATOM      9  O   UNL A   1     -29.999   1.944  31.159  0.00  0.00    -0.144 OA
ATOM     10  C   UNL A   1     -27.576   3.242  30.970  0.00  0.00    +0.197 C 
ATOM     11  O   UNL A   1     -29.835   4.159  31.973  0.00  0.00    -0.291 OA
ATOM     12  C   UNL A   1     -25.716   6.661  30.450  0.00  0.00    -0.000 C 
ATOM     13  C   UNL A   1     -30.183   6.287  32.832  0.00  0.00    +0.038 C 
ATOM     14  C   UNL A   1     -26.291   5.404  30.176  0.00  0.00    -0.002 C 
ATOM     15  C   UNL A   1     -27.110   6.807  32.504  0.00  0.00    -0.002 C 
ATOM     16  C   UNL A   1     -27.772   5.640  32.087  0.00  0.00    +0.004 C 
ATOM     17  C   UNL A   1     -29.587   3.546  29.652  0.00  0.00    +0.110 C 
ENDBRANCH   3  10
ENDBRANCH   1   2
BRANCH   1  18
ATOM     18  C   UNL A   1     -24.552  -0.247  29.139  0.00  0.00    +0.018 C 
BRANCH  18  19
ATOM     19  C   UNL A   1     -24.855  -1.012  30.143  0.00  0.00    +0.039 C 
BRANCH  19  20
ATOM     20  C   UNL A   1     -24.973  -2.505  29.788  0.00  0.00    -0.021 C 
ATOM     21  C   UNL A   1     -23.906  -3.173  29.146  0.00  0.00    -0.004 C 
ATOM     22  C   UNL A   1     -23.989  -4.549  28.853  0.00  0.00    -0.000 C 
ATOM     23  C   UNL A   1     -25.137  -5.280  29.205  0.00  0.00    -0.000 C 
ATOM     24  C   UNL A   1     -26.232  -4.611  29.784  0.00  0.00    -0.000 C 
ATOM     25  C   UNL A   1     -26.155  -3.232  30.065  0.00  0.00    -0.004 C 
ENDBRANCH  19  20
BRANCH  19  26
ATOM     26  C   UNL A   1     -25.387  -0.679  31.571  0.00  0.00    +0.077 C 
ATOM     27  C   UNL A   1     -25.189   0.773  32.028  0.00  0.00    +0.019 C 
ATOM     28  C   UNL A   1     -25.336   0.684  33.544  0.00  0.00    +0.020 C 
ATOM     29  C   UNL A   1     -24.829  -0.715  33.905  0.00  0.00    +0.089 C 
ATOM     30  N   UNL A   1     -24.758  -1.481  32.646  0.00  0.00    -0.219 NA
ENDBRANCH  19  26
ENDBRANCH  18  19
ENDBRANCH   1  18
BRANCH   1  31
ATOM     31  C   UNL A   1     -24.534   1.322  27.398  0.00  0.00    +0.148 C 
BRANCH  31  32
ATOM     32  C   UNL A   1     -25.688   1.614  26.461  0.00  0.00    +0.043 C 
ATOM     33  C   UNL A   1     -26.250   2.920  26.395  0.00  0.00    +0.075 C 
ATOM     34  C   UNL A   1     -27.438   3.091  25.645  0.00  0.00    +0.106 C 
ATOM     35  N   UNL A   1     -28.075   2.089  25.003  0.00  0.00    -0.208 NA
ATOM     36  C   UNL A   1     -27.543   0.849  25.079  0.00  0.00    +0.253 C 
ATOM     37  C   UNL A   1     -26.354   0.576  25.777  0.00  0.00    +0.191 C 
ATOM     38  F   UNL A   1     -25.860  -0.681  25.795  0.00  0.00    -0.200 F 
BRANCH  33  39
ATOM     39  C   UNL A   1     -25.642   4.093  27.123  0.00  0.00    +0.266 C 
ATOM     40  N   UNL A   1     -25.614   5.252  26.449  0.00  0.00    -0.200 NA
ATOM     41  C   UNL A   1     -25.026   6.479  26.963  0.00  0.00    +0.139 C 
ATOM     42  O   UNL A   1     -25.143   3.966  28.243  0.00  0.00    -0.268 OA
ENDBRANCH  33  39
BRANCH  36  43
ATOM     43  O   UNL A   1     -28.193  -0.208  24.477  0.00  0.00    -0.456 OA
BRANCH  43  44
ATOM     44  C   UNL A   1     -29.460   0.005  23.866  0.00  0.00    +0.243 C 
BRANCH  44  45
ATOM     45  C   UNL A   1     -30.065  -1.377  23.573  0.00  0.00    +0.229 C 
ATOM     46  O   UNL A   1     -30.729  -1.878  24.721  0.00  0.00    -0.216 OA
ENDBRANCH  44  45
ENDBRANCH  43  44
ENDBRANCH  36  43
ENDBRANCH  31  32
BRANCH  31  47
ATOM     47  O   UNL A   1     -23.182   1.066  27.920  0.00  0.00    -0.351 OA
BRANCH  47  48
ATOM     48  C   UNL A   1     -21.856   1.543  27.712  0.00  0.00    +0.143 C 
ATOM     49  C   UNL A   1     -22.153   2.324  26.554  0.00  0.00    +0.035 C 
ENDBRANCH  47  48
ENDBRANCH  31  47
ENDBRANCH   1  31
TORSDOF 14
