MODEL 1319
MODEL 1
REMARK VINA RESULT:    -6.990      0.000      0.000
REMARK INTER + INTRA:         -14.211
REMARK INTER:                 -10.668
REMARK INTRA:                  -3.543
REMARK UNBOUND:                -3.543
REMARK  Name = No_1319-gen_results/8p0m/2024-11-27-11-27-31/
REMARK  9 active torsions:
REMARK  status: ('A' for Active; 'I' for Inactive)
REMARK    1  A    between atoms: C_1  and  C_18
REMARK    2  A    between atoms: C_3  and  C_7
REMARK    3  A    between atoms: C_5  and  C_13
REMARK    4  A    between atoms: C_11  and  O_16
REMARK    5  A    between atoms: C_18  and  O_20
REMARK    6  A    between atoms: O_20  and  C_21
REMARK    7  A    between atoms: C_21  and  C_22
REMARK    8  A    between atoms: C_22  and  N_24
REMARK    9  A    between atoms: C_29  and  C_30
REMARK                            x       y       z     vdW  Elec       q    Type
REMARK                         _______ _______ _______ _____ _____    ______ ____
ROOT
ATOM      1  C   UNL A   1     -22.830   0.514  28.882  0.00  0.00    +0.076 A 
ATOM      2  C   UNL A   1     -23.230  -0.615  28.718  0.00  0.00    +0.006 A 
ATOM      3  C   UNL A   1     -24.059  -1.301  29.590  0.00  0.00    +0.001 A 
ATOM      4  C   UNL A   1     -24.493  -0.604  30.756  0.00  0.00    +0.007 A 
ATOM      5  C   UNL A   1     -24.165   0.696  30.834  0.00  0.00    +0.080 A 
ATOM      6  C   UNL A   1     -23.415   1.272  29.940  0.00  0.00    +0.013 A 
ENDROOT
BRANCH   3   7
ATOM      7  C   UNL A   1     -24.416  -2.754  29.411  0.00  0.00    +0.003 A 
ATOM      8  C   UNL A   1     -23.896  -3.647  28.840  0.00  0.00    +0.000 A 
ATOM      9  C   UNL A   1     -24.397  -5.036  28.764  0.00  0.00    +0.003 A 
ATOM     10  C   UNL A   1     -25.687  -5.291  29.271  0.00  0.00    +0.037 A 
ATOM     11  C   UNL A   1     -26.431  -4.206  29.771  0.00  0.00    +0.139 A 
ATOM     12  C   UNL A   1     -25.874  -2.950  29.883  0.00  0.00    +0.037 A 
BRANCH  11  13
ATOM     13  O   UNL A   1     -27.672  -4.523  30.212  0.00  0.00    -0.471 OA
ATOM     14  C   UNL A   1     -28.267  -3.412  30.822  0.00  0.00    +0.253 C 
ENDBRANCH  11  13
ENDBRANCH   3   7
BRANCH   5  15
ATOM     15  C   UNL A   1     -24.704   1.430  32.006  0.00  0.00    +0.388 C 
ATOM     16  O   UNL A   1     -24.850   2.648  31.997  0.00  0.00    -0.241 OA
ATOM     17  O   UNL A   1     -25.283   0.827  32.982  0.00  0.00    -0.241 OA
ENDBRANCH   5  15
BRANCH   1  18
ATOM     18  C   UNL A   1     -21.958   1.216  27.887  0.00  0.00    +0.341 C 
ATOM     19  O   UNL A   1     -20.779   0.874  27.764  0.00  0.00    -0.245 OA
BRANCH  18  20
ATOM     20  O   UNL A   1     -22.375   2.268  27.310  0.00  0.00    -0.441 OA
BRANCH  20  21
ATOM     21  C   UNL A   1     -22.888   2.230  26.004  0.00  0.00    +0.259 C 
BRANCH  21  22
ATOM     22  C   UNL A   1     -24.171   1.648  25.808  0.00  0.00    +0.257 C 
ATOM     23  O   UNL A   1     -24.311   0.731  25.296  0.00  0.00    -0.201 OA
BRANCH  22  24
ATOM     24  N   UNL A   1     -25.255   2.300  26.396  0.00  0.00    -0.245 NA
ATOM     25  C   UNL A   1     -25.386   3.734  26.733  0.00  0.00    +0.074 C 
ATOM     26  C   UNL A   1     -26.464   1.490  26.657  0.00  0.00    +0.083 C 
ATOM     27  C   UNL A   1     -25.612   4.017  27.946  0.00  0.00    +0.018 C 
ATOM     28  C   UNL A   1     -26.273   2.910  28.619  0.00  0.00    +0.011 C 
ATOM     29  C   UNL A   1     -26.696   1.766  28.160  0.00  0.00    +0.111 C 
BRANCH  29  30
ATOM     30  C   UNL A   1     -27.452   0.755  28.840  0.00  0.00    +0.399 C 
ATOM     31  F   UNL A   1     -27.361   0.730  30.028  0.00  0.00    -0.170 F 
ATOM     32  F   UNL A   1     -27.114  -0.491  28.375  0.00  0.00    -0.170 F 
ATOM     33  F   UNL A   1     -28.780   0.932  28.520  0.00  0.00    -0.170 F 
ENDBRANCH  29  30
ENDBRANCH  22  24
ENDBRANCH  21  22
ENDBRANCH  20  21
ENDBRANCH  18  20
ENDBRANCH   1  18
TORSDOF 9
ENDMDL
ENDMDL
