REMARK  Name = No_132-gen_results/8p0m/2024-11-27-11-27-31/
REMARK  0 active torsions:
REMARK  status: ('A' for Active; 'I' for Inactive)
REMARK                            x       y       z     vdW  Elec       q    Type
REMARK                         _______ _______ _______ _____ _____    ______ ____
ROOT
ATOM      1  C   UNL A   1     -28.016  -0.814  28.878  0.00  0.00    +0.000 A 
ATOM      2  C   UNL A   1     -27.064  -0.119  28.608  0.00  0.00    +0.000 A 
ATOM      3  C   UNL A   1     -26.929   1.171  29.008  0.00  0.00    +0.000 A 
ATOM      4  C   UNL A   1     -25.770   2.034  28.688  0.00  0.00    +0.000 A 
ATOM      5  C   UNL A   1     -25.619   3.348  29.092  0.00  0.00    +0.000 A 
ATOM      6  C   UNL A   1     -29.071  -0.334  29.769  0.00  0.00    +0.000 A 
ATOM      7  C   UNL A   1     -29.013   0.933  30.172  0.00  0.00    +0.000 A 
ATOM      8  C   UNL A   1     -27.899   1.776  29.859  0.00  0.00    +0.000 A 
ATOM      9  C   UNL A   1     -24.542   4.109  28.653  0.00  0.00    +0.000 A 
ATOM     10  C   UNL A   1     -23.733   3.552  27.613  0.00  0.00    +0.000 A 
ATOM     11  C   UNL A   1     -24.851   1.683  27.630  0.00  0.00    +0.000 A 
ATOM     12  C   UNL A   1     -25.053   0.281  27.170  0.00  0.00    +0.000 A 
ATOM     13  C   UNL A   1     -23.871   2.347  27.071  0.00  0.00    +0.000 A 
ATOM     14  C   UNL A   1     -26.047  -0.587  27.615  0.00  0.00    +0.000 A 
ENDROOT
TORSDOF 0
