REMARK  Name = No_1320-gen_results/8p0m/2024-11-27-11-27-31/
REMARK  2 active torsions:
REMARK  status: ('A' for Active; 'I' for Inactive)
REMARK    1  A    between atoms: C_1  and  C_2
REMARK    2  A    between atoms: C_5  and  C_11
REMARK                            x       y       z     vdW  Elec       q    Type
REMARK                         _______ _______ _______ _____ _____    ______ ____
ROOT
ATOM      1  C   UNL A   1     -27.064  -0.119  28.608  0.00  0.00    +0.071 A 
ATOM      2  C   UNL A   1     -27.001   0.691  27.491  0.00  0.00    +0.004 A 
ATOM      3  C   UNL A   1     -25.855   1.482  27.083  0.00  0.00    +0.006 A 
ATOM      4  C   UNL A   1     -24.690   1.453  27.881  0.00  0.00    +0.080 A 
ATOM      5  C   UNL A   1     -24.738   0.601  29.042  0.00  0.00    +0.006 A 
ATOM      6  C   UNL A   1     -25.823  -0.169  29.389  0.00  0.00    +0.004 A 
ENDROOT
BRANCH   1   7
ATOM      7  C   UNL A   1     -28.016  -0.814  28.878  0.00  0.00    +0.419 C 
ATOM      8  F   UNL A   1     -27.785  -2.003  29.301  0.00  0.00    -0.166 F 
ATOM      9  F   UNL A   1     -28.885  -0.986  27.861  0.00  0.00    -0.166 F 
ATOM     10  F   UNL A   1     -28.744  -0.218  29.909  0.00  0.00    -0.166 F 
ENDBRANCH   1   7
BRANCH   4  11
ATOM     11  C   UNL A   1     -23.534   2.246  27.600  0.00  0.00    +0.388 C 
ATOM     12  O   UNL A   1     -22.395   1.941  28.064  0.00  0.00    -0.241 OA
ATOM     13  O   UNL A   1     -23.672   3.347  26.948  0.00  0.00    -0.241 OA
ENDBRANCH   4  11
TORSDOF 2
