REMARK  Name = outputs/IAG933/test6/raw/output_1321_IAG933_linker_design_.xyz
REMARK  15 active torsions:
REMARK  status: ('A' for Active; 'I' for Inactive)
REMARK    1  A    between atoms: C_1  and  C_2
REMARK    2  A    between atoms: C_1  and  C_8
REMARK    3  A    between atoms: C_1  and  N_38
REMARK    4  A    between atoms: C_13  and  C_33
REMARK    5  A    between atoms: C_14  and  C_15
REMARK    6  A    between atoms: C_21  and  O_22
REMARK    7  A    between atoms: O_22  and  C_23
REMARK    8  A    between atoms: C_23  and  C_24
REMARK    9  A    between atoms: C_28  and  N_51
REMARK   10  A    between atoms: C_28  and  C_57
REMARK   11  A    between atoms: C_37  and  O_45
REMARK   12  A    between atoms: C_37  and  C_48
REMARK   13  A    between atoms: C_39  and  O_58
REMARK   14  A    between atoms: C_40  and  O_45
REMARK   15  A    between atoms: C_53  and  O_58
REMARK                            x       y       z     vdW  Elec       q    Type
REMARK                         _______ _______ _______ _____ _____    ______ ____
ROOT
ATOM      1  C   UNL A   1     -22.841   0.133  29.192  0.00  0.00    +0.076 C 
ATOM      2  C   UNL A   1     -22.385   1.302  28.266  0.00  0.00    +0.018 C 
ATOM      3  C   UNL A   1     -24.736   1.118  27.407  0.00  0.00    +0.064 C 
ATOM      4  N   UNL A   1     -24.359  -0.063  29.449  0.00  0.00    -0.236 NA
ATOM      5  C   UNL A   1     -25.328   0.953  28.911  0.00  0.00    +0.233 C 
ATOM      6  C   UNL A   1     -23.289   1.514  27.028  0.00  0.00    +0.007 C 
ENDROOT
BRANCH   3   7
ATOM      7  C   UNL A   1     -25.688   1.614  26.461  0.00  0.00    +0.075 C 
ATOM      8  C   UNL A   1     -26.250   2.920  26.395  0.00  0.00    +0.055 C 
ATOM      9  C   UNL A   1     -27.438   3.091  25.645  0.00  0.00    +0.102 C 
ATOM     10  N   UNL A   1     -28.075   2.089  25.003  0.00  0.00    -0.212 NA
ATOM     11  C   UNL A   1     -27.543   0.849  25.079  0.00  0.00    +0.234 C 
ATOM     12  C   UNL A   1     -26.354   0.576  25.777  0.00  0.00    +0.240 C 
ATOM     13  F   UNL A   1     -25.860  -0.681  25.795  0.00  0.00    -0.227 F 
BRANCH   8  14
ATOM     14  C   UNL A   1     -25.642   4.093  27.123  0.00  0.00    +0.262 C 
ATOM     15  N   UNL A   1     -25.614   5.252  26.449  0.00  0.00    -0.200 NA
ATOM     16  C   UNL A   1     -25.026   6.479  26.963  0.00  0.00    +0.139 C 
ATOM     17  O   UNL A   1     -25.143   3.966  28.243  0.00  0.00    -0.269 OA
ENDBRANCH   8  14
BRANCH  11  18
ATOM     18  O   UNL A   1     -28.193  -0.208  24.477  0.00  0.00    -0.459 OA
BRANCH  18  19
ATOM     19  C   UNL A   1     -29.460   0.005  23.866  0.00  0.00    +0.242 C 
BRANCH  19  20
ATOM     20  C   UNL A   1     -30.065  -1.377  23.573  0.00  0.00    +0.229 C 
ATOM     21  O   UNL A   1     -30.729  -1.878  24.721  0.00  0.00    -0.216 OA
ENDBRANCH  19  20
ENDBRANCH  18  19
ENDBRANCH  11  18
ENDBRANCH   3   7
BRANCH   4  22
ATOM     22  C   UNL A   1     -24.855  -1.012  30.143  0.00  0.00    +0.099 C 
BRANCH  22  23
ATOM     23  C   UNL A   1     -24.973  -2.505  29.788  0.00  0.00    -0.006 C 
ATOM     24  C   UNL A   1     -23.906  -3.173  29.146  0.00  0.00    -0.003 C 
ATOM     25  C   UNL A   1     -23.989  -4.549  28.853  0.00  0.00    -0.000 C 
ATOM     26  C   UNL A   1     -25.137  -5.280  29.205  0.00  0.00    -0.000 C 
ATOM     27  C   UNL A   1     -26.232  -4.611  29.784  0.00  0.00    -0.000 C 
ATOM     28  C   UNL A   1     -26.155  -3.232  30.065  0.00  0.00    -0.003 C 
ENDBRANCH  22  23
BRANCH  22  29
ATOM     29  C   UNL A   1     -25.387  -0.679  31.571  0.00  0.00    +0.092 C 
ATOM     30  C   UNL A   1     -25.189   0.773  32.028  0.00  0.00    +0.021 C 
ATOM     31  C   UNL A   1     -25.336   0.684  33.544  0.00  0.00    +0.020 C 
ATOM     32  C   UNL A   1     -24.829  -0.715  33.905  0.00  0.00    +0.089 C 
ATOM     33  N   UNL A   1     -24.758  -1.481  32.646  0.00  0.00    -0.218 NA
ENDBRANCH  22  29
ENDBRANCH   4  22
BRANCH   5  34
ATOM     34  O   UNL A   1     -26.725   0.462  29.509  0.00  0.00    -0.422 OA
BRANCH  34  39
ATOM     35  N   UNL A   1     -32.220   0.295  32.568  0.00  0.00    -0.227 NA
ATOM     36  C   UNL A   1     -30.149   0.527  31.574  0.00  0.00    +0.205 C 
ATOM     37  O   UNL A   1     -27.859   2.248  30.585  0.00  0.00    -0.226 OA
ATOM     38  C   UNL A   1     -29.454  -0.471  29.293  0.00  0.00    +0.150 C 
ATOM     39  C   UNL A   1     -28.048   1.147  30.187  0.00  0.00    +0.407 C 
ATOM     40  C   UNL A   1     -30.902  -1.101  29.327  0.00  0.00    +0.307 C 
ATOM     41  S   UNL A   1     -30.535   2.107  32.346  0.00  0.00    -0.086 S 
ATOM     42  N   UNL A   1     -29.233   0.521  30.288  0.00  0.00    -0.226 N 
ATOM     43  O   UNL A   1     -31.826  -1.044  30.453  0.00  0.00    -0.436 OA
ATOM     44  C   UNL A   1     -31.854   1.297  33.346  0.00  0.00    +0.188 C 
ATOM     45  C   UNL A   1     -31.380  -0.126  31.525  0.00  0.00    +0.228 C 
ATOM     46  C   UNL A   1     -29.277  -0.374  28.081  0.00  0.00    +0.028 C 
BRANCH  40  47
ATOM     47  O   UNL A   1     -31.440  -1.610  28.005  0.00  0.00    -0.317 OA
BRANCH  47  48
ATOM     48  C   UNL A   1     -31.716  -2.663  27.489  0.00  0.00    +0.175 C 
BRANCH  48  53
ATOM     49  C   UNL A   1     -31.730  -5.043  29.664  0.00  0.00    +0.050 C 
ATOM     50  N   UNL A   1     -34.114  -5.186  28.544  0.00  0.00    -0.171 NA
ATOM     51  O   UNL A   1     -33.507  -2.873  28.545  0.00  0.00    -0.336 OA
ATOM     52  C   UNL A   1     -34.286  -6.216  27.989  0.00  0.00    +0.166 C 
ATOM     53  C   UNL A   1     -32.262  -3.606  28.783  0.00  0.00    +0.148 C 
ATOM     54  N   UNL A   1     -32.869  -6.173  27.691  0.00  0.00    -0.258 NA
ATOM     55  C   UNL A   1     -34.336  -3.776  27.952  0.00  0.00    +0.236 C 
ATOM     56  C   UNL A   1     -31.690  -6.170  28.639  0.00  0.00    +0.076 C 
BRANCH  54  57
ATOM     57  C   UNL A   1     -32.594  -7.370  26.672  0.00  0.00    +0.073 C 
BRANCH  57  59
ATOM     58  C   UNL A   1     -33.705  -9.129  28.710  0.00  0.00    +0.002 C 
ATOM     59  C   UNL A   1     -32.922  -8.761  27.375  0.00  0.00    +0.017 C 
ENDBRANCH  57  59
ENDBRANCH  54  57
ENDBRANCH  48  53
ENDBRANCH  47  48
ENDBRANCH  40  47
ENDBRANCH  34  39
ENDBRANCH   5  34
TORSDOF 15
