MODEL 1321
MODEL 1
REMARK VINA RESULT:    -5.517      0.000      0.000
REMARK INTER + INTRA:          -7.092
REMARK INTER:                  -6.807
REMARK INTRA:                  -0.285
REMARK UNBOUND:                -0.285
REMARK  Name = No_1321-gen_results/8p0m/2024-11-27-11-27-31/
REMARK  4 active torsions:
REMARK  status: ('A' for Active; 'I' for Inactive)
REMARK    1  A    between atoms: C_2  and  C_10
REMARK    2  A    between atoms: C_5  and  C_7
REMARK    3  A    between atoms: C_10  and  N_11
REMARK    4  A    between atoms: N_11  and  C_12
REMARK                            x       y       z     vdW  Elec       q    Type
REMARK                         _______ _______ _______ _____ _____    ______ ____
ROOT
ATOM      1  C   UNL A   1     -24.984  -0.848  30.486  0.00  0.00    -0.003 A 
ATOM      2  C   UNL A   1     -23.962  -0.605  29.886  0.00  0.00    -0.001 A 
ATOM      3  C   UNL A   1     -23.257  -1.512  29.114  0.00  0.00    -0.003 A 
ATOM      4  C   UNL A   1     -23.801  -2.825  28.996  0.00  0.00    -0.001 A 
ATOM      5  C   UNL A   1     -25.015  -3.017  29.552  0.00  0.00    +0.023 A 
ATOM      6  C   UNL A   1     -25.651  -2.042  30.205  0.00  0.00    -0.001 A 
ENDROOT
BRANCH   5   7
ATOM      7  C   UNL A   1     -25.569  -4.373  29.371  0.00  0.00    +0.253 C 
ATOM      8 CL   UNL A   1     -24.898  -5.724  28.903  0.00  0.00    -0.074 Cl
ATOM      9  O   UNL A   1     -26.852  -4.519  29.872  0.00  0.00    -0.200 OA
ENDBRANCH   5   7
BRANCH   2  10
ATOM     10  C   UNL A   1     -23.201   0.786  30.069  0.00  0.00    +0.139 C 
BRANCH  10  11
ATOM     11  N   UNL A   1     -23.165   1.659  29.211  0.00  0.00    -0.232 NA
BRANCH  11  12
ATOM     12  C   UNL A   1     -23.444   1.807  28.144  0.00  0.00    +0.076 C 
ATOM     13  C   UNL A   1     -22.786   1.866  26.963  0.00  0.00    -0.008 C 
ATOM     14  C   UNL A   1     -23.329   2.127  25.682  0.00  0.00    +0.032 C 
ENDBRANCH  11  12
ENDBRANCH  10  11
ENDBRANCH   2  10
TORSDOF 4
ENDMDL
ENDMDL
