MODEL 1322
MODEL 1
REMARK VINA RESULT:    -6.979      0.000      0.000
REMARK INTER + INTRA:          -9.783
REMARK INTER:                  -8.611
REMARK INTRA:                  -1.172
REMARK UNBOUND:                -1.172
REMARK  Name = No_1322-gen_results/8p0m/2024-11-27-11-27-31/
REMARK  4 active torsions:
REMARK  status: ('A' for Active; 'I' for Inactive)
REMARK    1  A    between atoms: C_3  and  O_7
REMARK    2  A    between atoms: O_7  and  C_8
REMARK    3  A    between atoms: C_8  and  C_9
REMARK    4  A    between atoms: C_13  and  C_15
REMARK                            x       y       z     vdW  Elec       q    Type
REMARK                         _______ _______ _______ _____ _____    ______ ____
ROOT
ATOM      1  C   UNL A   1     -22.900   0.188  29.421  0.00  0.00    +0.021 A 
ATOM      2  C   UNL A   1     -23.619   1.047  30.273  0.00  0.00    -0.001 A 
ATOM      3  C   UNL A   1     -24.619   1.611  30.263  0.00  0.00    -0.000 A 
ATOM      4  C   UNL A   1     -25.624   1.269  29.270  0.00  0.00    -0.000 A 
ATOM      5  C   UNL A   1     -25.051   0.810  28.044  0.00  0.00    -0.000 A 
ATOM      6  C   UNL A   1     -23.306   0.390  28.000  0.00  0.00    -0.001 A 
ENDROOT
BRANCH   5   7
ATOM      7  C   UNL A   1     -25.665   0.808  26.721  0.00  0.00    -0.000 A 
ATOM      8  C   UNL A   1     -26.428   1.968  26.510  0.00  0.00    -0.000 A 
ATOM      9  C   UNL A   1     -25.594  -0.260  25.857  0.00  0.00    -0.000 A 
ATOM     10  C   UNL A   1     -26.347  -0.242  24.671  0.00  0.00    -0.000 A 
ATOM     11  C   UNL A   1     -27.084   2.034  25.216  0.00  0.00    -0.000 A 
ATOM     12  C   UNL A   1     -27.024   0.953  24.314  0.00  0.00    +0.000 A 
ENDBRANCH   5   7
BRANCH   1  13
ATOM     13  C   UNL A   1     -22.682  -1.142  29.800  0.00  0.00    +0.232 C 
BRANCH  13  14
ATOM     14  O   UNL A   1     -22.980  -2.132  28.909  0.00  0.00    -0.471 OA
BRANCH  14  17
ATOM     15  C   UNL A   1     -25.200  -2.500  29.819  0.00  0.00    +0.037 A 
ATOM     16  C   UNL A   1     -26.029  -3.144  29.910  0.00  0.00    +0.003 A 
ATOM     17  C   UNL A   1     -24.059  -3.030  29.129  0.00  0.00    +0.139 A 
ATOM     18  C   UNL A   1     -23.959  -4.311  28.761  0.00  0.00    +0.037 A 
ATOM     19  C   UNL A   1     -26.138  -4.564  29.606  0.00  0.00    +0.000 A 
ATOM     20  C   UNL A   1     -25.082  -5.075  28.988  0.00  0.00    +0.003 A 
ENDBRANCH  14  17
ENDBRANCH  13  14
ENDBRANCH   1  13
TORSDOF 4
ENDMDL
ENDMDL
