MODEL 1324
MODEL 1
REMARK VINA RESULT:    -4.308      0.000      0.000
REMARK INTER + INTRA:          -4.308
REMARK INTER:                  -4.308
REMARK INTRA:                   0.000
REMARK UNBOUND:                 0.000
REMARK  Name = No_1324-gen_results/8p0m/2024-11-27-11-27-31/
REMARK  0 active torsions:
REMARK  status: ('A' for Active; 'I' for Inactive)
REMARK                            x       y       z     vdW  Elec       q    Type
REMARK                         _______ _______ _______ _____ _____    ______ ____
ROOT
ATOM      1 CL   UNL A   1     -27.536  -3.322  30.469  0.00  0.00    -0.082 Cl
ATOM      2  C   UNL A   1     -26.545  -3.717  29.873  0.00  0.00    +0.058 A 
ATOM      3  C   UNL A   1     -26.209  -4.920  29.690  0.00  0.00    +0.011 A 
ATOM      4  C   UNL A   1     -25.447  -2.655  29.566  0.00  0.00    +0.011 A 
ATOM      5  C   UNL A   1     -24.217  -3.067  28.871  0.00  0.00    +0.001 A 
ATOM      6  C   UNL A   1     -24.909  -5.308  28.970  0.00  0.00    +0.001 A 
ATOM      7  C   UNL A   1     -24.009  -4.368  28.615  0.00  0.00    +0.000 A 
ENDROOT
TORSDOF 0
ENDMDL
ENDMDL
