REMARK  Name = No_1325-gen_results/8p0m/2024-11-27-11-27-31/
REMARK  0 active torsions:
REMARK  status: ('A' for Active; 'I' for Inactive)
REMARK                            x       y       z     vdW  Elec       q    Type
REMARK                         _______ _______ _______ _____ _____    ______ ____
ROOT
ATOM      1  C   UNL A   1     -28.016  -0.814  28.878  0.00  0.00    +0.049 C 
ATOM      2  C   UNL A   1     -27.064  -0.119  28.608  0.00  0.00    -0.024 A 
ATOM      3  C   UNL A   1     -25.792  -0.430  29.076  0.00  0.00    -0.004 A 
ATOM      4  C   UNL A   1     -24.546   0.349  28.823  0.00  0.00    -0.000 A 
ATOM      5  C   UNL A   1     -24.659   1.420  27.888  0.00  0.00    -0.000 A 
ATOM      6  C   UNL A   1     -25.947   1.681  27.379  0.00  0.00    -0.004 A 
ATOM      7  C   UNL A   1     -27.044   0.974  27.687  0.00  0.00    -0.022 A 
ATOM      8  C   UNL A   1     -29.210  -0.026  29.343  0.00  0.00    +0.117 C 
ATOM      9  N   UNL A   1     -30.059   0.228  28.418  0.00  0.00    -0.236 NA
ATOM     10  C   UNL A   1     -29.957   0.775  27.453  0.00  0.00    +0.076 C 
ATOM     11  C   UNL A   1     -28.900   1.361  26.620  0.00  0.00    -0.004 C 
ATOM     12  C   UNL A   1     -28.314   1.302  26.940  0.00  0.00    +0.053 C 
ENDROOT
TORSDOF 0
