MODEL 1325
MODEL 1
REMARK VINA RESULT:    -6.075      0.000      0.000
REMARK INTER + INTRA:          -6.075
REMARK INTER:                  -6.075
REMARK INTRA:                   0.000
REMARK UNBOUND:                 0.000
REMARK  Name = No_1325-gen_results/8p0m/2024-11-27-11-27-31/
REMARK  0 active torsions:
REMARK  status: ('A' for Active; 'I' for Inactive)
REMARK                            x       y       z     vdW  Elec       q    Type
REMARK                         _______ _______ _______ _____ _____    ______ ____
ROOT
ATOM      1  C   UNL A   1     -25.620  -1.269  30.517  0.00  0.00    +0.049 C 
ATOM      2  C   UNL A   1     -25.364  -2.366  30.077  0.00  0.00    -0.024 A 
ATOM      3  C   UNL A   1     -26.318  -3.378  30.071  0.00  0.00    -0.004 A 
ATOM      4  C   UNL A   1     -26.124  -4.769  29.569  0.00  0.00    -0.000 A 
ATOM      5  C   UNL A   1     -24.893  -5.022  28.895  0.00  0.00    -0.000 A 
ATOM      6  C   UNL A   1     -23.963  -3.964  28.860  0.00  0.00    -0.004 A 
ATOM      7  C   UNL A   1     -24.176  -2.746  29.378  0.00  0.00    -0.022 A 
ATOM      8  C   UNL A   1     -24.561  -0.745  31.447  0.00  0.00    +0.117 C 
ATOM      9  N   UNL A   1     -23.709   0.028  30.884  0.00  0.00    -0.236 NA
ATOM     10  C   UNL A   1     -23.010  -0.140  30.033  0.00  0.00    +0.076 C 
ATOM     11  C   UNL A   1     -22.731  -1.161  29.016  0.00  0.00    -0.004 C 
ATOM     12  C   UNL A   1     -23.129  -1.689  29.124  0.00  0.00    +0.053 C 
ENDROOT
TORSDOF 0
ENDMDL
ENDMDL
