REMARK  Name = No_1326-gen_results/8p0m/2024-11-27-11-27-31/
REMARK  6 active torsions:
REMARK  status: ('A' for Active; 'I' for Inactive)
REMARK    1  A    between atoms: C_2  and  O_14
REMARK    2  A    between atoms: C_3  and  C_7
REMARK    3  A    between atoms: N_8  and  C_11
REMARK    4  A    between atoms: O_14  and  C_15
REMARK    5  A    between atoms: C_15  and  C_16
REMARK    6  A    between atoms: C_16  and  C_17
REMARK                            x       y       z     vdW  Elec       q    Type
REMARK                         _______ _______ _______ _____ _____    ______ ____
ROOT
ATOM      1  C   UNL A   1     -28.016  -0.814  28.878  0.00  0.00    +0.041 A 
ATOM      2  C   UNL A   1     -28.469  -0.785  29.829  0.00  0.00    +0.139 A 
ATOM      3  C   UNL A   1     -27.136   0.236  28.535  0.00  0.00    +0.057 A 
ATOM      4  C   UNL A   1     -26.805   1.051  29.276  0.00  0.00    +0.005 A 
ATOM      5  C   UNL A   1     -28.237   0.150  30.930  0.00  0.00    +0.037 A 
ATOM      6  C   UNL A   1     -27.352   1.124  30.607  0.00  0.00    +0.003 A 
ENDROOT
BRANCH   3   7
ATOM      7  C   UNL A   1     -26.471   0.196  27.131  0.00  0.00    +0.249 C 
ATOM      8  N   UNL A   1     -27.054   0.666  26.184  0.00  0.00    -0.276 N 
ATOM      9  O   UNL A   1     -25.163   0.061  27.081  0.00  0.00    -0.270 OA
ATOM     10  C   UNL A   1     -26.560   0.630  24.831  0.00  0.00    +0.115 C 
BRANCH   8  11
ATOM     11  C   UNL A   1     -28.511   0.940  26.143  0.00  0.00    +0.076 C 
ATOM     12  C   UNL A   1     -28.763   2.164  25.988  0.00  0.00    +0.021 C 
ATOM     13  C   UNL A   1     -29.216   0.102  25.096  0.00  0.00    +0.021 C 
ENDBRANCH   8  11
ENDBRANCH   3   7
BRANCH   2  14
ATOM     14  O   UNL A   1     -29.411  -1.809  30.273  0.00  0.00    -0.475 OA
BRANCH  14  15
ATOM     15  C   UNL A   1     -30.378  -1.987  29.886  0.00  0.00    +0.210 C 
BRANCH  15  16
ATOM     16  C   UNL A   1     -31.464  -2.175  30.808  0.00  0.00    +0.073 C 
BRANCH  16  17
ATOM     17  C   UNL A   1     -31.309  -2.518  31.936  0.00  0.00    -0.027 C 
ATOM     18  C   UNL A   1     -30.135  -2.852  32.408  0.00  0.00    -0.030 C 
ATOM     19  C   UNL A   1     -29.677  -3.249  33.757  0.00  0.00    +0.030 C 
ENDBRANCH  16  17
ENDBRANCH  15  16
ENDBRANCH  14  15
ENDBRANCH   2  14
TORSDOF 6
