MODEL 1326
MODEL 1
REMARK VINA RESULT:    -5.998      0.000      0.000
REMARK INTER + INTRA:          -8.922
REMARK INTER:                  -8.102
REMARK INTRA:                  -0.820
REMARK UNBOUND:                -0.820
REMARK  Name = No_1326-gen_results/8p0m/2024-11-27-11-27-31/
REMARK  6 active torsions:
REMARK  status: ('A' for Active; 'I' for Inactive)
REMARK    1  A    between atoms: C_2  and  O_14
REMARK    2  A    between atoms: C_3  and  C_7
REMARK    3  A    between atoms: N_8  and  C_11
REMARK    4  A    between atoms: O_14  and  C_15
REMARK    5  A    between atoms: C_15  and  C_16
REMARK    6  A    between atoms: C_16  and  C_17
REMARK                            x       y       z     vdW  Elec       q    Type
REMARK                         _______ _______ _______ _____ _____    ______ ____
ROOT
ATOM      1  C   UNL A   1     -23.699   1.003  29.078  0.00  0.00    +0.041 A 
ATOM      2  C   UNL A   1     -23.029   0.384  29.605  0.00  0.00    +0.139 A 
ATOM      3  C   UNL A   1     -23.219   1.666  27.927  0.00  0.00    +0.057 A 
ATOM      4  C   UNL A   1     -22.178   1.476  27.477  0.00  0.00    +0.005 A 
ATOM      5  C   UNL A   1     -21.660   0.005  29.257  0.00  0.00    +0.037 A 
ATOM      6  C   UNL A   1     -21.226   0.607  28.122  0.00  0.00    +0.003 A 
ENDROOT
BRANCH   3   7
ATOM      7  C   UNL A   1     -24.206   2.583  27.153  0.00  0.00    +0.249 C 
ATOM      8  N   UNL A   1     -25.160   2.093  26.598  0.00  0.00    -0.276 N 
ATOM      9  O   UNL A   1     -24.230   3.859  27.473  0.00  0.00    -0.270 OA
ATOM     10  C   UNL A   1     -26.104   2.838  25.804  0.00  0.00    +0.115 C 
BRANCH   8  11
ATOM     11  C   UNL A   1     -25.289   0.657  26.253  0.00  0.00    +0.076 C 
ATOM     12  C   UNL A   1     -26.433   0.202  26.519  0.00  0.00    +0.021 C 
ATOM     13  C   UNL A   1     -24.917   0.386  24.810  0.00  0.00    +0.021 C 
ENDBRANCH   8  11
ENDBRANCH   3   7
BRANCH   2  14
ATOM     14  O   UNL A   1     -23.419  -0.328  30.819  0.00  0.00    -0.475 OA
BRANCH  14  15
ATOM     15  C   UNL A   1     -23.621  -1.361  30.908  0.00  0.00    +0.210 C 
BRANCH  15  16
ATOM     16  C   UNL A   1     -24.910  -1.847  30.501  0.00  0.00    +0.073 C 
BRANCH  16  17
ATOM     17  C   UNL A   1     -25.067  -2.875  29.925  0.00  0.00    -0.027 C 
ATOM     18  C   UNL A   1     -24.129  -3.410  29.185  0.00  0.00    -0.030 C 
ATOM     19  C   UNL A   1     -24.055  -4.679  28.430  0.00  0.00    +0.030 C 
ENDBRANCH  16  17
ENDBRANCH  15  16
ENDBRANCH  14  15
ENDBRANCH   2  14
TORSDOF 6
ENDMDL
ENDMDL
