MODEL 1327
MODEL 1
REMARK VINA RESULT:    -8.977      0.000      0.000
REMARK INTER + INTRA:         -15.296
REMARK INTER:                 -14.225
REMARK INTRA:                  -1.070
REMARK UNBOUND:                -1.070
REMARK  Name = No_1327-gen_results/8p0m/2024-11-27-11-27-31/
REMARK  10 active torsions:
REMARK  status: ('A' for Active; 'I' for Inactive)
REMARK    1  A    between atoms: C_3  and  C_8
REMARK    2  A    between atoms: C_5  and  C_6
REMARK    3  A    between atoms: C_6  and  O_13
REMARK    4  A    between atoms: O_13  and  C_14
REMARK    5  A    between atoms: C_14  and  C_15
REMARK    6  A    between atoms: C_15  and  C_17
REMARK    7  A    between atoms: C_17  and  C_18
REMARK    8  A    between atoms: C_21  and  C_33
REMARK    9  A    between atoms: N_23  and  C_24
REMARK   10  A    between atoms: C_28  and  C_30
REMARK                            x       y       z     vdW  Elec       q    Type
REMARK                         _______ _______ _______ _____ _____    ______ ____
ROOT
ATOM      1  C   UNL A   1     -23.321  -0.701  30.343  0.00  0.00    +0.074 C 
ATOM      2  C   UNL A   1     -22.652  -1.090  31.453  0.00  0.00    +0.020 C 
ATOM      3  C   UNL A   1     -23.029  -1.098  32.465  0.00  0.00    +0.015 C 
ATOM      4  C   UNL A   1     -24.423  -0.577  32.807  0.00  0.00    +0.123 C 
ATOM      5  C   UNL A   1     -25.286  -0.596  31.825  0.00  0.00    +0.102 C 
ATOM      6  N   UNL A   1     -24.569  -0.961  30.172  0.00  0.00    -0.308 N 
ENDROOT
BRANCH   6   7
ATOM      7  C   UNL A   1     -24.775  -2.328  29.879  0.00  0.00    +0.048 A 
ATOM      8  C   UNL A   1     -23.985  -3.057  29.333  0.00  0.00    +0.015 A 
ATOM      9  C   UNL A   1     -26.135  -2.680  30.287  0.00  0.00    +0.021 A 
ATOM     10  C   UNL A   1     -24.388  -4.380  28.973  0.00  0.00    +0.002 A 
ATOM     11  C   UNL A   1     -26.566  -3.940  29.961  0.00  0.00    +0.081 A 
ATOM     12  C   UNL A   1     -25.679  -4.805  29.289  0.00  0.00    +0.007 A 
BRANCH  11  13
ATOM     13  C   UNL A   1     -27.901  -4.373  30.329  0.00  0.00    +0.388 C 
ATOM     14  O   UNL A   1     -28.350  -5.268  30.837  0.00  0.00    -0.241 OA
ATOM     15  O   UNL A   1     -28.937  -3.465  29.961  0.00  0.00    -0.241 OA
ENDBRANCH  11  13
ENDBRANCH   6   7
BRANCH   4  16
ATOM     16  C   UNL A   1     -25.014  -0.589  34.153  0.00  0.00    +0.366 C 
ATOM     17  O   UNL A   1     -26.039   0.078  34.140  0.00  0.00    -0.246 OA
ATOM     18  O   UNL A   1     -24.559  -1.101  35.121  0.00  0.00    -0.246 OA
ENDBRANCH   4  16
BRANCH   1  19
ATOM     19  C   UNL A   1     -22.904   0.468  29.785  0.00  0.00    +0.040 C 
BRANCH  19  20
ATOM     20  C   UNL A   1     -21.809   0.343  28.515  0.00  0.00    +0.125 C 
ATOM     21 CL   UNL A   1     -21.055  -0.484  28.789  0.00  0.00    -0.111 Cl
BRANCH  20  22
ATOM     22  C   UNL A   1     -22.228   1.418  27.644  0.00  0.00    +0.225 C 
BRANCH  22  23
ATOM     23  O   UNL A   1     -23.447   1.328  27.249  0.00  0.00    -0.444 OA
BRANCH  23  24
ATOM     24  C   UNL A   1     -23.881   1.927  26.091  0.00  0.00    +0.341 C 
ATOM     25  O   UNL A   1     -23.305   2.700  25.720  0.00  0.00    -0.245 OA
BRANCH  24  30
ATOM     26  C   UNL A   1     -26.124  -0.524  24.690  0.00  0.00    +0.004 A 
ATOM     27  C   UNL A   1     -25.304   0.013  25.076  0.00  0.00    +0.006 A 
ATOM     28  C   UNL A   1     -27.373   0.239  24.687  0.00  0.00    +0.071 A 
ATOM     29  C   UNL A   1     -27.437   1.536  25.132  0.00  0.00    +0.004 A 
ATOM     30  C   UNL A   1     -25.080   1.359  25.602  0.00  0.00    +0.076 A 
ATOM     31  C   UNL A   1     -26.288   2.088  25.572  0.00  0.00    +0.006 A 
BRANCH  28  32
ATOM     32  C   UNL A   1     -28.532  -0.533  24.035  0.00  0.00    +0.419 C 
ATOM     33  F   UNL A   1     -28.849   0.262  22.934  0.00  0.00    -0.166 F 
ATOM     34  F   UNL A   1     -28.138  -1.677  23.543  0.00  0.00    -0.166 F 
ATOM     35  F   UNL A   1     -29.625  -0.569  24.729  0.00  0.00    -0.166 F 
ENDBRANCH  28  32
ENDBRANCH  24  30
ENDBRANCH  23  24
ENDBRANCH  22  23
ENDBRANCH  20  22
ENDBRANCH  19  20
ENDBRANCH   1  19
TORSDOF 10
ENDMDL
ENDMDL
