MODEL 1328
MODEL 1
REMARK VINA RESULT:    -4.393      0.000      0.000
REMARK INTER + INTRA:          -4.667
REMARK INTER:                  -4.650
REMARK INTRA:                  -0.017
REMARK UNBOUND:                -0.017
REMARK  Name = No_1328-gen_results/8p0m/2024-11-27-11-27-31/
REMARK  1 active torsions:
REMARK  status: ('A' for Active; 'I' for Inactive)
REMARK    1  A    between atoms: C_3  and  C_8
REMARK                            x       y       z     vdW  Elec       q    Type
REMARK                         _______ _______ _______ _____ _____    ______ ____
ROOT
ATOM      1  C   UNL A   1     -24.485  -4.227  28.911  0.00  0.00    +0.042 A 
ATOM      2  C   UNL A   1     -25.522  -4.724  29.286  0.00  0.00    +0.005 A 
ATOM      3  C   UNL A   1     -26.542  -4.005  29.909  0.00  0.00    +0.021 A 
ATOM      4  C   UNL A   1     -26.345  -2.595  30.183  0.00  0.00    +0.005 A 
ATOM      5  C   UNL A   1     -25.108  -2.086  29.726  0.00  0.00    +0.042 A 
ATOM      6  C   UNL A   1     -24.206  -2.843  29.155  0.00  0.00    +0.196 A 
ATOM      7  O   UNL A   1     -23.026  -2.253  28.801  0.00  0.00    -0.287 OA
ENDROOT
BRANCH   3   8
ATOM      8  C   UNL A   1     -27.850  -4.550  30.398  0.00  0.00    +0.122 C 
ATOM      9  N   UNL A   1     -28.858  -4.558  29.642  0.00  0.00    -0.146 NA
ENDBRANCH   3   8
TORSDOF 1
ENDMDL
ENDMDL
