MODEL 1329
MODEL 1
REMARK VINA RESULT:    -8.382      0.000      0.000
REMARK INTER + INTRA:         -11.609
REMARK INTER:                 -10.343
REMARK INTRA:                  -1.266
REMARK UNBOUND:                -1.266
REMARK  Name = No_1329-gen_results/8p0m/2024-11-27-11-27-31/
REMARK  4 active torsions:
REMARK  status: ('A' for Active; 'I' for Inactive)
REMARK    1  A    between atoms: C_1  and  C_2
REMARK    2  A    between atoms: C_1  and  N_8
REMARK    3  A    between atoms: N_8  and  C_9
REMARK    4  A    between atoms: C_19  and  C_20
REMARK                            x       y       z     vdW  Elec       q    Type
REMARK                         _______ _______ _______ _____ _____    ______ ____
ROOT
ATOM      1  N   UNL A   1     -24.253  -1.149  29.241  0.00  0.00    -0.251 N 
ATOM      2  C   UNL A   1     -24.854  -0.276  28.141  0.00  0.00    +0.253 C 
ATOM      3  O   UNL A   1     -25.799  -0.812  27.419  0.00  0.00    -0.270 OA
ENDROOT
BRANCH   2   4
ATOM      4  C   UNL A   1     -24.343   0.910  27.765  0.00  0.00    +0.054 A 
ATOM      5  C   UNL A   1     -23.516   1.012  26.712  0.00  0.00    +0.000 A 
ATOM      6  C   UNL A   1     -23.420   2.319  26.080  0.00  0.00    -0.022 A 
ATOM      7  C   UNL A   1     -22.519   2.557  24.995  0.00  0.00    +0.031 C 
ATOM      8  C   UNL A   1     -25.093   2.072  28.023  0.00  0.00    +0.004 A 
ATOM      9  C   UNL A   1     -25.143   3.305  27.370  0.00  0.00    -0.000 A 
ATOM     10  C   UNL A   1     -24.231   3.448  26.443  0.00  0.00    -0.004 A 
ENDBRANCH   2   4
BRANCH   1  11
ATOM     11  C   UNL A   1     -24.605  -2.432  29.294  0.00  0.00    +0.054 A 
ATOM     12  C   UNL A   1     -23.830  -3.360  28.830  0.00  0.00    +0.015 A 
ATOM     13  C   UNL A   1     -24.341  -4.684  28.850  0.00  0.00    +0.001 A 
ATOM     14  C   UNL A   1     -25.544  -4.989  29.336  0.00  0.00    +0.000 A 
ATOM     15  C   UNL A   1     -26.383  -4.023  29.829  0.00  0.00    +0.001 A 
ATOM     16  C   UNL A   1     -25.952  -2.658  29.813  0.00  0.00    +0.015 A 
ENDBRANCH   1  11
BRANCH   1  17
ATOM     17  C   UNL A   1     -23.404  -0.498  30.146  0.00  0.00    +0.125 C 
BRANCH  17  18
ATOM     18  C   UNL A   1     -23.756  -0.483  31.303  0.00  0.00    -0.002 A 
ATOM     19  C   UNL A   1     -24.831   0.297  31.716  0.00  0.00    -0.003 A 
ATOM     20  C   UNL A   1     -25.353   0.409  33.108  0.00  0.00    +0.003 A 
ATOM     21  C   UNL A   1     -24.786  -0.488  34.061  0.00  0.00    +0.019 A 
ATOM     22  C   UNL A   1     -23.738  -1.313  33.607  0.00  0.00    +0.001 A 
ATOM     23  C   UNL A   1     -23.275  -1.330  32.348  0.00  0.00    -0.003 A 
ATOM     24  C   UNL A   1     -25.583  -0.440  35.220  0.00  0.00    +0.099 A 
ATOM     25  N   UNL A   1     -26.549   0.419  35.497  0.00  0.00    -0.242 NA
ATOM     26  C   UNL A   1     -27.119   0.976  34.473  0.00  0.00    +0.099 A 
ATOM     27  C   UNL A   1     -26.536   1.123  33.251  0.00  0.00    +0.021 A 
ENDBRANCH  17  18
ENDBRANCH   1  17
TORSDOF 4
ENDMDL
ENDMDL
