MODEL 132
MODEL 1
REMARK VINA RESULT:    -6.425      0.000      0.000
REMARK INTER + INTRA:          -6.425
REMARK INTER:                  -6.425
REMARK INTRA:                   0.000
REMARK UNBOUND:                 0.000
REMARK  Name = No_132-gen_results/8p0m/2024-11-27-11-27-31/
REMARK  0 active torsions:
REMARK  status: ('A' for Active; 'I' for Inactive)
REMARK                            x       y       z     vdW  Elec       q    Type
REMARK                         _______ _______ _______ _____ _____    ______ ____
ROOT
ATOM      1  C   UNL A   1     -26.449  -4.095  29.817  0.00  0.00    +0.000 A 
ATOM      2  C   UNL A   1     -25.964  -2.987  29.821  0.00  0.00    +0.000 A 
ATOM      3  C   UNL A   1     -24.705  -2.708  29.396  0.00  0.00    +0.000 A 
ATOM      4  C   UNL A   1     -24.098  -1.358  29.393  0.00  0.00    +0.000 A 
ATOM      5  C   UNL A   1     -22.819  -1.061  28.960  0.00  0.00    +0.000 A 
ATOM      6  C   UNL A   1     -25.731  -5.229  29.238  0.00  0.00    +0.000 A 
ATOM      7  C   UNL A   1     -24.480  -5.028  28.830  0.00  0.00    +0.000 A 
ATOM      8  C   UNL A   1     -23.884  -3.727  28.832  0.00  0.00    +0.000 A 
ATOM      9  C   UNL A   1     -22.302   0.222  29.094  0.00  0.00    +0.000 A 
ATOM     10  C   UNL A   1     -23.055   1.148  29.882  0.00  0.00    +0.000 A 
ATOM     11  C   UNL A   1     -24.672  -0.283  30.169  0.00  0.00    +0.000 A 
ATOM     12  C   UNL A   1     -26.030  -0.632  30.671  0.00  0.00    +0.000 A 
ATOM     13  C   UNL A   1     -24.237   0.920  30.445  0.00  0.00    +0.000 A 
ATOM     14  C   UNL A   1     -26.668  -1.859  30.509  0.00  0.00    +0.000 A 
ENDROOT
TORSDOF 0
ENDMDL
ENDMDL
