REMARK  Name = No_133-gen_results/8p0m/2024-11-27-11-27-31/
REMARK  2 active torsions:
REMARK  status: ('A' for Active; 'I' for Inactive)
REMARK    1  A    between atoms: C_2  and  C_7
REMARK    2  A    between atoms: N_9  and  C_10
REMARK                            x       y       z     vdW  Elec       q    Type
REMARK                         _______ _______ _______ _____ _____    ______ ____
ROOT
ATOM      1  C   UNL A   1     -28.016  -0.814  28.878  0.00  0.00    +0.034 A 
ATOM      2  C   UNL A   1     -28.469  -0.785  29.829  0.00  0.00    +0.058 A 
ATOM      3  C   UNL A   1     -26.504  -0.778  28.877  0.00  0.00    +0.140 A 
ATOM      4  C   UNL A   1     -25.810  -0.853  30.103  0.00  0.00    +0.030 A 
ATOM      5  C   UNL A   1     -27.991  -0.892  31.226  0.00  0.00    +0.005 A 
ATOM      6  C   UNL A   1     -26.604  -0.868  31.265  0.00  0.00    +0.003 A 
ATOM      7  F   UNL A   1     -25.760  -0.742  27.785  0.00  0.00    -0.204 F 
ENDROOT
BRANCH   2   8
ATOM      8  C   UNL A   1     -30.077  -0.886  30.024  0.00  0.00    +0.269 C 
ATOM      9  O   UNL A   1     -30.682  -0.316  29.253  0.00  0.00    -0.268 OA
ATOM     10  N   UNL A   1     -30.627  -1.734  30.965  0.00  0.00    -0.174 NA
BRANCH  10  11
ATOM     11  C   UNL A   1     -32.048  -1.884  30.992  0.00  0.00    +0.084 C 
ATOM     12  C   UNL A   1     -32.890  -1.301  30.764  0.00  0.00    -0.008 C 
ATOM     13  C   UNL A   1     -34.290  -1.591  30.869  0.00  0.00    +0.032 C 
ENDBRANCH  10  11
ENDBRANCH   2   8
TORSDOF 2
