MODEL 1330
MODEL 1
REMARK VINA RESULT:    -7.610      0.000      0.000
REMARK INTER + INTRA:         -11.142
REMARK INTER:                 -10.279
REMARK INTRA:                  -0.862
REMARK UNBOUND:                -0.862
REMARK  Name = No_1330-gen_results/8p0m/2024-11-27-11-27-31/
REMARK  6 active torsions:
REMARK  status: ('A' for Active; 'I' for Inactive)
REMARK    1  A    between atoms: C_5  and  C_11
REMARK    2  A    between atoms: C_7  and  C_22
REMARK    3  A    between atoms: C_8  and  C_14
REMARK    4  A    between atoms: N_13  and  C_25
REMARK    5  A    between atoms: C_25  and  C_27
REMARK    6  A    between atoms: C_27  and  C_28
REMARK                            x       y       z     vdW  Elec       q    Type
REMARK                         _______ _______ _______ _____ _____    ______ ____
ROOT
ATOM      1  C   UNL A   1     -27.449   2.023  26.219  0.00  0.00    +0.005 A 
ATOM      2  C   UNL A   1     -26.456   1.599  26.763  0.00  0.00    +0.006 A 
ATOM      3  C   UNL A   1     -25.510   0.863  26.058  0.00  0.00    +0.001 A 
ATOM      4  C   UNL A   1     -24.255   0.279  26.615  0.00  0.00    +0.008 A 
ATOM      5  C   UNL A   1     -23.935   0.651  27.954  0.00  0.00    +0.091 A 
ATOM      6  C   UNL A   1     -24.880   1.448  28.631  0.00  0.00    +0.014 A 
ATOM      7  C   UNL A   1     -26.021   1.900  28.091  0.00  0.00    +0.080 A 
ATOM      8  C   UNL A   1     -28.006   1.339  25.005  0.00  0.00    +0.054 A 
ATOM      9  C   UNL A   1     -27.036   0.656  24.185  0.00  0.00    +0.004 A 
ATOM     10  C   UNL A   1     -25.807   0.304  24.738  0.00  0.00    +0.000 A 
ENDROOT
BRANCH   8  11
ATOM     11  C   UNL A   1     -29.230   1.775  24.341  0.00  0.00    +0.249 C 
ATOM     12  O   UNL A   1     -29.516   2.888  23.998  0.00  0.00    -0.270 OA
ATOM     13  N   UNL A   1     -29.882   0.716  23.726  0.00  0.00    -0.276 N 
ATOM     14  C   UNL A   1     -31.101   0.982  22.922  0.00  0.00    +0.094 C 
ATOM     15  C   UNL A   1     -31.919   0.064  22.931  0.00  0.00    +0.022 C 
ATOM     16  C   UNL A   1     -31.601  -1.299  23.337  0.00  0.00    +0.004 C 
ATOM     17  C   UNL A   1     -30.417  -1.496  24.080  0.00  0.00    +0.022 C 
ATOM     18  C   UNL A   1     -29.660  -0.525  24.327  0.00  0.00    +0.094 C 
ENDBRANCH   8  11
BRANCH   5  19
ATOM     19  C   UNL A   1     -22.667   0.186  28.529  0.00  0.00    +0.413 C 
ATOM     20  N   UNL A   1     -21.737   0.664  28.905  0.00  0.00    +0.197 NA
ATOM     21  N   UNL A   1     -22.780  -1.239  28.859  0.00  0.00    -0.032 NA
BRANCH  21  22
ATOM     22  C   UNL A   1     -23.774  -1.920  29.634  0.00  0.00    +0.210 C 
ATOM     23  C   UNL A   1     -23.894  -1.728  30.703  0.00  0.00    +0.056 C 
BRANCH  22  24
ATOM     24  C   UNL A   1     -24.436  -2.956  28.860  0.00  0.00    +0.077 C 
BRANCH  24  25
ATOM     25  C   UNL A   1     -24.206  -4.286  28.772  0.00  0.00    -0.026 C 
ATOM     26  C   UNL A   1     -25.099  -5.261  29.124  0.00  0.00    -0.030 C 
ATOM     27  C   UNL A   1     -26.289  -4.840  29.692  0.00  0.00    +0.030 C 
ENDBRANCH  24  25
ENDBRANCH  22  24
ENDBRANCH  21  22
ENDBRANCH   5  19
BRANCH   7  28
ATOM     28  C   UNL A   1     -26.874   2.764  28.952  0.00  0.00    +0.388 C 
ATOM     29  O   UNL A   1     -26.852   3.849  29.047  0.00  0.00    -0.241 OA
ATOM     30  O   UNL A   1     -27.752   2.066  29.686  0.00  0.00    -0.241 OA
ENDBRANCH   7  28
TORSDOF 6
ENDMDL
ENDMDL
