MODEL 1331
MODEL 1
REMARK VINA RESULT:    -6.917      0.000      0.000
REMARK INTER + INTRA:          -8.330
REMARK INTER:                  -7.726
REMARK INTRA:                  -0.605
REMARK UNBOUND:                -0.605
REMARK  Name = No_1331-gen_results/8p0m/2024-11-27-11-27-31/
REMARK  2 active torsions:
REMARK  status: ('A' for Active; 'I' for Inactive)
REMARK    1  A    between atoms: C_3  and  C_7
REMARK    2  A    between atoms: C_7  and  C_8
REMARK                            x       y       z     vdW  Elec       q    Type
REMARK                         _______ _______ _______ _____ _____    ______ ____
ROOT
ATOM      1  C   UNL A   1     -23.462  -1.507  29.521  0.00  0.00    +0.045 C 
ATOM      2  C   UNL A   1     -23.164  -0.846  30.987  0.00  0.00    +0.009 C 
ENDROOT
BRANCH   1   5
ATOM      3  C   UNL A   1     -22.219   1.351  27.741  0.00  0.00    -0.000 A 
ATOM      4  C   UNL A   1     -22.329   0.421  28.507  0.00  0.00    -0.004 A 
ATOM      5  C   UNL A   1     -23.408  -0.462  28.496  0.00  0.00    -0.018 A 
ATOM      6  C   UNL A   1     -24.496  -0.237  27.564  0.00  0.00    -0.004 A 
ATOM      7  C   UNL A   1     -24.302   0.872  26.709  0.00  0.00    -0.000 A 
ATOM      8  C   UNL A   1     -23.254   1.651  26.798  0.00  0.00    -0.000 A 
ENDBRANCH   1   5
BRANCH   1   9
ATOM      9  C   UNL A   1     -24.370  -2.452  29.568  0.00  0.00    -0.018 A 
ATOM     10  C   UNL A   1     -25.542  -2.576  29.964  0.00  0.00    -0.004 A 
ATOM     11  C   UNL A   1     -26.298  -3.745  29.876  0.00  0.00    -0.000 A 
ATOM     12  C   UNL A   1     -25.667  -4.845  29.260  0.00  0.00    -0.000 A 
ATOM     13  C   UNL A   1     -23.881  -3.800  28.906  0.00  0.00    -0.004 A 
ATOM     14  C   UNL A   1     -24.508  -4.886  28.739  0.00  0.00    -0.000 A 
ENDBRANCH   1   9
TORSDOF 2
ENDMDL
ENDMDL
