MODEL 1332
MODEL 1
REMARK VINA RESULT:    -6.492      0.000      0.000
REMARK INTER + INTRA:          -7.216
REMARK INTER:                  -6.872
REMARK INTRA:                  -0.344
REMARK UNBOUND:                -0.344
REMARK  Name = No_1332-gen_results/8p0m/2024-11-27-11-27-31/
REMARK  1 active torsions:
REMARK  status: ('A' for Active; 'I' for Inactive)
REMARK    1  A    between atoms: C_3  and  C_4
REMARK                            x       y       z     vdW  Elec       q    Type
REMARK                         _______ _______ _______ _____ _____    ______ ____
ROOT
ATOM      1  C   UNL A   1     -21.691  -0.159  28.917  0.00  0.00    +0.000 A 
ATOM      2  C   UNL A   1     -22.309  -1.136  29.271  0.00  0.00    +0.000 A 
ATOM      3  C   UNL A   1     -23.589  -1.390  28.790  0.00  0.00    +0.000 A 
ATOM      4  C   UNL A   1     -22.303   0.923  28.156  0.00  0.00    +0.000 A 
ATOM      5  C   UNL A   1     -23.525   0.721  27.546  0.00  0.00    +0.000 A 
ATOM      6  C   UNL A   1     -24.237  -0.434  27.906  0.00  0.00    +0.000 A 
ENDROOT
BRANCH   3   7
ATOM      7  C   UNL A   1     -24.453  -2.548  29.157  0.00  0.00    +0.000 A 
ATOM      8  C   UNL A   1     -23.987  -3.830  28.741  0.00  0.00    +0.000 A 
ATOM      9  C   UNL A   1     -24.746  -4.971  28.996  0.00  0.00    +0.000 A 
ATOM     10  C   UNL A   1     -26.038  -4.778  29.530  0.00  0.00    +0.000 A 
ATOM     11  C   UNL A   1     -26.502  -3.554  29.915  0.00  0.00    +0.000 A 
ATOM     12  C   UNL A   1     -25.704  -2.370  29.683  0.00  0.00    +0.000 A 
ENDBRANCH   3   7
TORSDOF 1
ENDMDL
ENDMDL
