REMARK  Name = outputs/IAG933/test6/raw/output_1332_IAG933_linker_design_.xyz
REMARK  12 active torsions:
REMARK  status: ('A' for Active; 'I' for Inactive)
REMARK    1  A    between atoms: C_1  and  C_2
REMARK    2  A    between atoms: C_1  and  C_8
REMARK    3  A    between atoms: C_1  and  C_37
REMARK    4  A    between atoms: C_13  and  C_28
REMARK    5  A    between atoms: C_14  and  C_15
REMARK    6  A    between atoms: C_21  and  O_22
REMARK    7  A    between atoms: O_22  and  C_23
REMARK    8  A    between atoms: C_23  and  C_24
REMARK    9  A    between atoms: C_28  and  N_32
REMARK   10  A    between atoms: N_32  and  C_37
REMARK   11  A    between atoms: C_37  and  C_38
REMARK   12  A    between atoms: C_38  and  C_41
REMARK                            x       y       z     vdW  Elec       q    Type
REMARK                         _______ _______ _______ _____ _____    ______ ____
ROOT
ATOM      1  C   UNL A   1     -24.691   1.286  27.376  0.00  0.00    +0.069 C 
ATOM      2  C   UNL A   1     -23.403   1.334  27.017  0.00  0.00    +0.062 C 
ATOM      3  O   UNL A   1     -21.537   2.052  25.965  0.00  0.00    -0.318 OA
ATOM      4  C   UNL A   1     -22.356   1.175  27.883  0.00  0.00    +0.085 C 
ATOM      5  C   UNL A   1     -22.389   0.365  29.083  0.00  0.00    +0.131 C 
ATOM      6  C   UNL A   1     -22.869   1.775  25.718  0.00  0.00    +0.304 C 
ATOM      7  C   UNL A   1     -21.313   1.867  27.346  0.00  0.00    +0.182 C 
ATOM      8  O   UNL A   1     -22.304  -0.381  29.946  0.00  0.00    -0.231 OA
ATOM      9  F   UNL A   1     -23.452   1.714  24.528  0.00  0.00    -0.199 F 
ENDROOT
BRANCH   1  10
ATOM     10  C   UNL A   1     -25.688   1.614  26.461  0.00  0.00    +0.053 C 
ATOM     11  C   UNL A   1     -26.250   2.920  26.395  0.00  0.00    +0.078 C 
ATOM     12  C   UNL A   1     -27.438   3.091  25.645  0.00  0.00    +0.107 C 
ATOM     13  N   UNL A   1     -28.075   2.089  25.003  0.00  0.00    -0.208 NA
ATOM     14  C   UNL A   1     -27.543   0.849  25.079  0.00  0.00    +0.253 C 
ATOM     15  C   UNL A   1     -26.354   0.576  25.777  0.00  0.00    +0.194 C 
ATOM     16  F   UNL A   1     -25.860  -0.681  25.795  0.00  0.00    -0.199 F 
BRANCH  11  17
ATOM     17  C   UNL A   1     -25.642   4.093  27.123  0.00  0.00    +0.267 C 
ATOM     18  N   UNL A   1     -25.614   5.252  26.449  0.00  0.00    -0.200 NA
ATOM     19  C   UNL A   1     -25.026   6.479  26.963  0.00  0.00    +0.139 C 
ATOM     20  O   UNL A   1     -25.143   3.966  28.243  0.00  0.00    -0.268 OA
ENDBRANCH  11  17
BRANCH  14  21
ATOM     21  O   UNL A   1     -28.193  -0.208  24.477  0.00  0.00    -0.456 OA
BRANCH  21  22
ATOM     22  C   UNL A   1     -29.460   0.005  23.866  0.00  0.00    +0.243 C 
BRANCH  22  23
ATOM     23  C   UNL A   1     -30.065  -1.377  23.573  0.00  0.00    +0.229 C 
ATOM     24  O   UNL A   1     -30.729  -1.878  24.721  0.00  0.00    -0.216 OA
ENDBRANCH  22  23
ENDBRANCH  21  22
ENDBRANCH  14  21
ENDBRANCH   1  10
BRANCH   1  25
ATOM     25  N   UNL A   1     -24.911   1.048  28.649  0.00  0.00    -0.238 NA
BRANCH  25  26
ATOM     26  C   UNL A   1     -25.777  -0.067  29.188  0.00  0.00    +0.115 C 
BRANCH  26  28
ATOM     27  N   UNL A   1     -27.463   1.866  30.096  0.00  0.00    -0.131 NA
ATOM     28  C   UNL A   1     -27.200   0.550  29.521  0.00  0.00    +0.112 C 
BRANCH  28  30
ATOM     29  C   UNL A   1     -28.523  -1.177  29.680  0.00  0.00    +0.002 C 
ATOM     30  C   UNL A   1     -28.480   0.097  28.841  0.00  0.00    +0.021 C 
ENDBRANCH  28  30
ENDBRANCH  26  28
BRANCH  26  31
ATOM     31  C   UNL A   1     -24.855  -1.012  30.143  0.00  0.00    +0.060 C 
BRANCH  31  32
ATOM     32  C   UNL A   1     -24.973  -2.505  29.788  0.00  0.00    -0.019 C 
ATOM     33  C   UNL A   1     -23.906  -3.173  29.146  0.00  0.00    -0.004 C 
ATOM     34  C   UNL A   1     -23.989  -4.549  28.853  0.00  0.00    -0.000 C 
ATOM     35  C   UNL A   1     -25.137  -5.280  29.205  0.00  0.00    -0.000 C 
ATOM     36  C   UNL A   1     -26.232  -4.611  29.784  0.00  0.00    -0.000 C 
ATOM     37  C   UNL A   1     -26.155  -3.232  30.065  0.00  0.00    -0.004 C 
ENDBRANCH  31  32
BRANCH  31  38
ATOM     38  C   UNL A   1     -25.387  -0.679  31.571  0.00  0.00    +0.079 C 
ATOM     39  C   UNL A   1     -25.189   0.773  32.028  0.00  0.00    +0.019 C 
ATOM     40  C   UNL A   1     -25.336   0.684  33.544  0.00  0.00    +0.020 C 
ATOM     41  C   UNL A   1     -24.829  -0.715  33.905  0.00  0.00    +0.089 C 
ATOM     42  N   UNL A   1     -24.758  -1.481  32.646  0.00  0.00    -0.219 NA
ENDBRANCH  31  38
ENDBRANCH  26  31
ENDBRANCH  25  26
ENDBRANCH   1  25
TORSDOF 12
