REMARK  Name = outputs/IAG933/test6/raw/output_1333_IAG933_linker_design_.xyz
REMARK  12 active torsions:
REMARK  status: ('A' for Active; 'I' for Inactive)
REMARK    1  A    between atoms: C_1  and  C_2
REMARK    2  A    between atoms: C_1  and  C_8
REMARK    3  A    between atoms: C_1  and  C_29
REMARK    4  A    between atoms: C_14  and  C_15
REMARK    5  A    between atoms: C_15  and  O_18
REMARK    6  A    between atoms: O_18  and  C_47
REMARK    7  A    between atoms: C_21  and  O_22
REMARK    8  A    between atoms: O_22  and  C_23
REMARK    9  A    between atoms: C_23  and  C_24
REMARK   10  A    between atoms: C_29  and  O_33
REMARK   11  A    between atoms: O_33  and  C_45
REMARK   12  A    between atoms: C_37  and  C_47
REMARK                            x       y       z     vdW  Elec       q    Type
REMARK                         _______ _______ _______ _____ _____    ______ ____
ROOT
ATOM      1  C   UNL A   1     -24.799   0.029  28.921  0.00  0.00    +0.163 C 
ATOM      2  S   UNL A   1     -22.912   1.387  27.405  0.00  0.00    -0.062 S 
ATOM      3  C   UNL A   1     -21.184   1.594  27.503  0.00  0.00    +0.080 C 
ATOM      4  C   UNL A   1     -24.383   1.270  28.096  0.00  0.00    +0.136 C 
ATOM      5  O   UNL A   1     -22.963   2.243  26.083  0.00  0.00    -0.171 OA
ATOM      6  C   UNL A   1     -23.302   0.364  28.816  0.00  0.00    +0.112 C 
ENDROOT
BRANCH   1   7
ATOM      7  C   UNL A   1     -24.855  -1.012  30.143  0.00  0.00    +0.077 C 
BRANCH   7   8
ATOM      8  C   UNL A   1     -24.973  -2.505  29.788  0.00  0.00    -0.018 C 
ATOM      9  C   UNL A   1     -23.906  -3.173  29.146  0.00  0.00    -0.004 C 
ATOM     10  C   UNL A   1     -23.989  -4.549  28.853  0.00  0.00    -0.000 C 
ATOM     11  C   UNL A   1     -25.137  -5.280  29.205  0.00  0.00    -0.000 C 
ATOM     12  C   UNL A   1     -26.232  -4.611  29.784  0.00  0.00    -0.000 C 
ATOM     13  C   UNL A   1     -26.155  -3.232  30.065  0.00  0.00    -0.004 C 
ENDBRANCH   7   8
BRANCH   7  14
ATOM     14  C   UNL A   1     -25.387  -0.679  31.571  0.00  0.00    +0.080 C 
ATOM     15  C   UNL A   1     -25.189   0.773  32.028  0.00  0.00    +0.019 C 
ATOM     16  C   UNL A   1     -25.336   0.684  33.544  0.00  0.00    +0.020 C 
ATOM     17  C   UNL A   1     -24.829  -0.715  33.905  0.00  0.00    +0.089 C 
ATOM     18  N   UNL A   1     -24.758  -1.481  32.646  0.00  0.00    -0.219 NA
ENDBRANCH   7  14
ENDBRANCH   1   7
BRANCH   1  19
ATOM     19  O   UNL A   1     -26.540  -0.401  28.613  0.00  0.00    -0.468 OA
BRANCH  19  30
ATOM     20  C   UNL A   1     -29.037   4.785  30.169  0.00  0.00    +0.137 C 
ATOM     21  O   UNL A   1     -26.747   5.059  30.372  0.00  0.00    -0.288 OA
ATOM     22  C   UNL A   1     -28.049   2.688  29.737  0.00  0.00    +0.133 C 
ATOM     23  C   UNL A   1     -27.797   4.056  30.102  0.00  0.00    +0.210 C 
ATOM     24  N   UNL A   1     -27.139   1.686  29.680  0.00  0.00    -0.211 NA
ATOM     25  C   UNL A   1     -30.872   3.783  32.283  0.00  0.00    +0.021 C 
ATOM     26  C   UNL A   1     -29.536   3.862  32.979  0.00  0.00    +0.002 C 
ATOM     27  C   UNL A   1     -29.437   5.713  31.237  0.00  0.00    +0.028 C 
ATOM     28  C   UNL A   1     -29.642   1.501  28.473  0.00  0.00    -0.000 C 
ATOM     29  N   UNL A   1     -30.104   3.615  29.898  0.00  0.00    -0.301 N 
ATOM     30  C   UNL A   1     -27.460   0.620  28.925  0.00  0.00    +0.204 C 
ATOM     31  C   UNL A   1     -29.016   5.184  32.534  0.00  0.00    +0.002 C 
ATOM     32  C   UNL A   1     -29.350   2.591  29.365  0.00  0.00    +0.065 C 
ATOM     33  C   UNL A   1     -31.009   4.411  30.573  0.00  0.00    +0.091 C 
ATOM     34  C   UNL A   1     -28.671   0.471  28.279  0.00  0.00    +0.112 C 
ENDBRANCH  19  30
ENDBRANCH   1  19
BRANCH   4  35
ATOM     35  C   UNL A   1     -24.661   2.849  28.987  0.00  0.00    +0.222 C 
BRANCH  35  36
ATOM     36  O   UNL A   1     -25.143   3.966  28.243  0.00  0.00    -0.459 OA
BRANCH  36  37
ATOM     37  C   UNL A   1     -25.642   4.093  27.123  0.00  0.00    +0.222 C 
ATOM     38  N   UNL A   1     -25.614   5.252  26.449  0.00  0.00    -0.236 NA
ATOM     39  C   UNL A   1     -25.026   6.479  26.963  0.00  0.00    +0.155 C 
BRANCH  37  41
ATOM     40  C   UNL A   1     -25.688   1.614  26.461  0.00  0.00    +0.041 C 
ATOM     41  C   UNL A   1     -26.250   2.920  26.395  0.00  0.00    +0.074 C 
ATOM     42  C   UNL A   1     -27.438   3.091  25.645  0.00  0.00    +0.107 C 
ATOM     43  N   UNL A   1     -28.075   2.089  25.003  0.00  0.00    -0.208 NA
ATOM     44  C   UNL A   1     -27.543   0.849  25.079  0.00  0.00    +0.253 C 
ATOM     45  C   UNL A   1     -26.354   0.576  25.777  0.00  0.00    +0.193 C 
ATOM     46  F   UNL A   1     -25.860  -0.681  25.795  0.00  0.00    -0.199 F 
BRANCH  44  47
ATOM     47  O   UNL A   1     -28.193  -0.208  24.477  0.00  0.00    -0.456 OA
BRANCH  47  48
ATOM     48  C   UNL A   1     -29.460   0.005  23.866  0.00  0.00    +0.243 C 
BRANCH  48  49
ATOM     49  C   UNL A   1     -30.065  -1.377  23.573  0.00  0.00    +0.229 C 
ATOM     50  O   UNL A   1     -30.729  -1.878  24.721  0.00  0.00    -0.216 OA
ENDBRANCH  48  49
ENDBRANCH  47  48
ENDBRANCH  44  47
ENDBRANCH  37  41
ENDBRANCH  36  37
ENDBRANCH  35  36
ENDBRANCH   4  35
TORSDOF 12
