MODEL 1333
MODEL 1
REMARK VINA RESULT:    -6.771      0.000      0.000
REMARK INTER + INTRA:         -10.086
REMARK INTER:                  -9.147
REMARK INTRA:                  -0.939
REMARK UNBOUND:                -0.939
REMARK  Name = No_1333-gen_results/8p0m/2024-11-27-11-27-31/
REMARK  6 active torsions:
REMARK  status: ('A' for Active; 'I' for Inactive)
REMARK    1  A    between atoms: C_1  and  C_2
REMARK    2  A    between atoms: C_4  and  C_20
REMARK    3  A    between atoms: C_5  and  C_10
REMARK    4  A    between atoms: C_13  and  C_17
REMARK    5  A    between atoms: C_20  and  O_21
REMARK    6  A    between atoms: O_21  and  C_22
REMARK                            x       y       z     vdW  Elec       q    Type
REMARK                         _______ _______ _______ _____ _____    ______ ____
ROOT
ATOM      1  C   UNL A   1     -25.427   0.656  26.298  0.00  0.00    -0.003 A 
ATOM      2  C   UNL A   1     -25.661  -0.452  27.045  0.00  0.00    -0.004 A 
ATOM      3  C   UNL A   1     -24.739  -0.984  28.073  0.00  0.00    +0.018 A 
ATOM      4  C   UNL A   1     -23.505  -0.279  28.265  0.00  0.00    -0.005 A 
ATOM      5  C   UNL A   1     -23.267   0.827  27.418  0.00  0.00    -0.003 A 
ATOM      6  C   UNL A   1     -24.171   1.263  26.484  0.00  0.00    -0.003 A 
ENDROOT
BRANCH   1   7
ATOM      7  C   UNL A   1     -26.189   1.079  25.460  0.00  0.00    +0.117 C 
ATOM      8  N   UNL A   1     -26.792   2.175  25.655  0.00  0.00    -0.203 NA
ATOM      9  C   UNL A   1     -27.998   2.463  25.009  0.00  0.00    +0.247 C 
ATOM     10  C   UNL A   1     -28.487   1.493  24.144  0.00  0.00    +0.145 C 
ATOM     11  C   UNL A   1     -27.924   0.234  24.018  0.00  0.00    +0.017 C 
ATOM     12  C   UNL A   1     -26.900  -0.046  24.788  0.00  0.00    +0.027 C 
ATOM     13  O   UNL A   1     -28.469   3.632  25.021  0.00  0.00    -0.273 OA
BRANCH  10  14
ATOM     14  C   UNL A   1     -29.725   1.755  23.325  0.00  0.00    +0.327 C 
ATOM     15  F   UNL A   1     -29.758   2.601  22.533  0.00  0.00    -0.198 F 
ATOM     16  F   UNL A   1     -30.664   0.917  23.402  0.00  0.00    -0.198 F 
ENDBRANCH  10  14
ENDBRANCH   1   7
BRANCH   4  17
ATOM     17  C   UNL A   1     -22.507  -0.714  29.199  0.00  0.00    +0.114 C 
ATOM     18  N   UNL A   1     -21.283  -0.948  28.957  0.00  0.00    -0.128 NA
ATOM     19  C   UNL A   1     -22.667   0.016  30.525  0.00  0.00    +0.025 C 
ENDBRANCH   4  17
BRANCH   3  20
ATOM     20  C   UNL A   1     -24.983  -2.161  28.886  0.00  0.00    +0.232 C 
BRANCH  20  21
ATOM     21  O   UNL A   1     -24.635  -3.264  28.284  0.00  0.00    -0.468 OA
BRANCH  21  22
ATOM     22  C   UNL A   1     -24.181  -4.187  28.619  0.00  0.00    +0.173 C 
ATOM     23  C   UNL A   1     -24.899  -5.226  29.019  0.00  0.00    +0.043 C 
ENDBRANCH  21  22
ENDBRANCH  20  21
ENDBRANCH   3  20
TORSDOF 6
ENDMDL
ENDMDL
