MODEL 1334
MODEL 1
REMARK VINA RESULT:    -5.427      0.000      0.000
REMARK INTER + INTRA:          -5.823
REMARK INTER:                  -5.744
REMARK INTRA:                  -0.079
REMARK UNBOUND:                -0.079
REMARK  Name = No_1334-gen_results/8p0m/2024-11-27-11-27-31/
REMARK  1 active torsions:
REMARK  status: ('A' for Active; 'I' for Inactive)
REMARK    1  A    between atoms: C_7  and  C_12
REMARK                            x       y       z     vdW  Elec       q    Type
REMARK                         _______ _______ _______ _____ _____    ______ ____
ROOT
ATOM      1  O   UNL A   1      -9.434   3.264   7.813  0.00  0.00    -0.268 OA
ATOM      2  C   UNL A   1      -8.933   2.573   8.588  0.00  0.00    +0.265 C 
ATOM      3  C   UNL A   1      -8.950   2.338   9.646  0.00  0.00    +0.052 A 
ATOM      4  N   UNL A   1      -7.853   1.687   7.932  0.00  0.00    -0.201 NA
ATOM      5  C   UNL A   1      -9.841   2.929  10.602  0.00  0.00    +0.004 A 
ATOM      6  C   UNL A   1      -7.384   0.754   8.345  0.00  0.00    +0.131 C 
ATOM      7  C   UNL A   1      -7.473   0.499   9.754  0.00  0.00    +0.147 C 
ATOM      8  C   UNL A   1      -8.321   1.198  10.451  0.00  0.00    -0.006 A 
ATOM      9  C   UNL A   1     -10.364   2.633  11.517  0.00  0.00    +0.000 A 
ATOM     10  C   UNL A   1      -9.629   1.534  12.338  0.00  0.00    -0.000 A 
ATOM     11  C   UNL A   1      -8.654   0.828  11.804  0.00  0.00    -0.004 A 
ENDROOT
BRANCH   7  12
ATOM     12  C   UNL A   1      -6.699  -0.692  10.321  0.00  0.00    +0.370 C 
ATOM     13  O   UNL A   1      -5.687  -0.615  10.846  0.00  0.00    -0.245 OA
ATOM     14  O   UNL A   1      -7.290  -1.897  10.157  0.00  0.00    -0.245 OA
ENDBRANCH   7  12
TORSDOF 1
ENDMDL
ENDMDL
