MODEL 1335
MODEL 1
REMARK VINA RESULT:    -7.786      0.000      0.000
REMARK INTER + INTRA:         -12.308
REMARK INTER:                 -10.973
REMARK INTRA:                  -1.335
REMARK UNBOUND:                -1.335
REMARK  Name = No_1335-gen_results/8p0m/2024-11-27-11-27-31/
REMARK  7 active torsions:
REMARK  status: ('A' for Active; 'I' for Inactive)
REMARK    1  A    between atoms: C_2  and  C_18
REMARK    2  A    between atoms: C_3  and  C_7
REMARK    3  A    between atoms: C_7  and  O_15
REMARK    4  A    between atoms: C_8  and  C_9
REMARK    5  A    between atoms: C_11  and  O_21
REMARK    6  A    between atoms: O_21  and  C_22
REMARK    7  A    between atoms: C_22  and  C_23
REMARK                            x       y       z     vdW  Elec       q    Type
REMARK                         _______ _______ _______ _____ _____    ______ ____
ROOT
ATOM      1  C   UNL A   1     -24.420   0.923  26.673  0.00  0.00    +0.002 A 
ATOM      2  C   UNL A   1     -24.450  -0.029  27.584  0.00  0.00    +0.037 A 
ATOM      3  C   UNL A   1     -23.179  -0.082  28.445  0.00  0.00    +0.149 A 
ATOM      4  C   UNL A   1     -22.224   0.879  28.259  0.00  0.00    +0.038 A 
ATOM      5  C   UNL A   1     -23.204   1.702  26.470  0.00  0.00    -0.000 A 
ATOM      6  C   UNL A   1     -22.169   1.693  27.269  0.00  0.00    +0.003 A 
ENDROOT
BRANCH   1   8
ATOM      7  C   UNL A   1     -26.213   2.224  25.757  0.00  0.00    +0.135 C 
ATOM      8  C   UNL A   1     -25.355   1.098  25.667  0.00  0.00    +0.012 C 
ATOM      9  C   UNL A   1     -25.465   0.327  24.468  0.00  0.00    +0.034 C 
BRANCH   7  12
ATOM     10  C   UNL A   1     -25.510   4.316  26.781  0.00  0.00    +0.010 A 
ATOM     11  C   UNL A   1     -25.565   5.025  27.558  0.00  0.00    +0.080 A 
ATOM     12  C   UNL A   1     -26.246   3.119  26.927  0.00  0.00    +0.034 A 
ATOM     13  C   UNL A   1     -27.009   2.863  28.049  0.00  0.00    +0.003 A 
ATOM     14  C   UNL A   1     -26.296   5.002  28.841  0.00  0.00    +0.007 A 
ATOM     15  C   UNL A   1     -27.014   3.872  29.021  0.00  0.00    +0.000 A 
BRANCH  11  16
ATOM     16  C   UNL A   1     -24.825   6.479  27.457  0.00  0.00    +0.388 C 
ATOM     17  O   UNL A   1     -24.554   7.016  28.296  0.00  0.00    -0.241 OA
ATOM     18  O   UNL A   1     -24.662   7.044  26.246  0.00  0.00    -0.241 OA
ENDBRANCH  11  16
ENDBRANCH   7  12
BRANCH   7  19
ATOM     19  O   UNL A   1     -27.097   2.516  24.869  0.00  0.00    -0.472 OA
ATOM     20  C   UNL A   1     -28.445   2.089  24.979  0.00  0.00    +0.253 C 
ENDBRANCH   7  19
ENDBRANCH   1   8
BRANCH   3  21
ATOM     21  O   UNL A   1     -23.171  -0.957  29.529  0.00  0.00    -0.421 OA
BRANCH  21  22
ATOM     22  C   UNL A   1     -24.293  -1.479  30.017  0.00  0.00    +0.346 C 
ATOM     23  O   UNL A   1     -25.097  -0.618  30.642  0.00  0.00    -0.244 OA
BRANCH  22  24
ATOM     24  C   UNL A   1     -24.699  -2.698  29.506  0.00  0.00    +0.076 A 
ATOM     25  C   UNL A   1     -25.936  -3.150  29.934  0.00  0.00    +0.006 A 
ATOM     26  C   UNL A   1     -26.231  -4.474  29.726  0.00  0.00    +0.000 A 
ATOM     27  C   UNL A   1     -25.358  -5.302  28.997  0.00  0.00    +0.000 A 
ATOM     28  C   UNL A   1     -24.133  -4.781  28.589  0.00  0.00    +0.000 A 
ATOM     29  C   UNL A   1     -23.805  -3.538  28.906  0.00  0.00    +0.006 A 
ENDBRANCH  22  24
ENDBRANCH  21  22
ENDBRANCH   3  21
TORSDOF 7
ENDMDL
ENDMDL
