REMARK  Name = outputs/IAG933/test6/raw/output_1335_IAG933_linker_design_.xyz
REMARK  17 active torsions:
REMARK  status: ('A' for Active; 'I' for Inactive)
REMARK    1  A    between atoms: C_1  and  C_2
REMARK    2  A    between atoms: C_1  and  C_8
REMARK    3  A    between atoms: C_1  and  C_29
REMARK    4  A    between atoms: C_13  and  C_42
REMARK    5  A    between atoms: C_14  and  C_15
REMARK    6  A    between atoms: C_21  and  O_22
REMARK    7  A    between atoms: O_22  and  C_23
REMARK    8  A    between atoms: C_23  and  C_24
REMARK    9  A    between atoms: C_24  and  O_25
REMARK   10  A    between atoms: O_25  and  C_38
REMARK   11  A    between atoms: C_29  and  C_44
REMARK   12  A    between atoms: C_32  and  N_47
REMARK   13  A    between atoms: C_32  and  C_48
REMARK   14  A    between atoms: C_33  and  C_35
REMARK   15  A    between atoms: C_33  and  C_46
REMARK   16  A    between atoms: C_35  and  C_38
REMARK   17  A    between atoms: C_46  and  N_47
REMARK                            x       y       z     vdW  Elec       q    Type
REMARK                         _______ _______ _______ _____ _____    ______ ____
ROOT
ATOM      1  C   UNL A   1     -25.688   1.614  26.461  0.00  0.00    +0.018 C 
ATOM      2  C   UNL A   1     -26.250   2.920  26.395  0.00  0.00    +0.073 C 
ATOM      3  C   UNL A   1     -27.438   3.091  25.645  0.00  0.00    +0.106 C 
ATOM      4  N   UNL A   1     -28.075   2.089  25.003  0.00  0.00    -0.208 NA
ATOM      5  C   UNL A   1     -27.543   0.849  25.079  0.00  0.00    +0.253 C 
ATOM      6  C   UNL A   1     -26.354   0.576  25.777  0.00  0.00    +0.189 C 
ATOM      7  F   UNL A   1     -25.860  -0.681  25.795  0.00  0.00    -0.200 F 
ENDROOT
BRANCH   1  11
ATOM      8  C   UNL A   1     -23.141   1.773  26.375  0.00  0.00    +0.009 C 
ATOM      9  O   UNL A   1     -23.038  -0.005  28.741  0.00  0.00    -0.353 OA
ATOM     10  C   UNL A   1     -21.786   1.446  27.103  0.00  0.00    +0.033 C 
ATOM     11  C   UNL A   1     -24.386   1.391  27.231  0.00  0.00    +0.055 C 
ATOM     12  C   UNL A   1     -24.432   0.257  28.370  0.00  0.00    +0.150 C 
ATOM     13  C   UNL A   1     -22.041   1.052  28.560  0.00  0.00    +0.142 C 
BRANCH  12  15
ATOM     14  O   UNL A   1     -26.819  -0.341  28.729  0.00  0.00    -0.220 OA
ATOM     15  C   UNL A   1     -25.595  -0.187  29.190  0.00  0.00    +0.184 C 
BRANCH  15  16
ATOM     16  C   UNL A   1     -24.855  -1.012  30.143  0.00  0.00    +0.071 C 
BRANCH  16  17
ATOM     17  C   UNL A   1     -24.973  -2.505  29.788  0.00  0.00    -0.019 C 
ATOM     18  C   UNL A   1     -23.906  -3.173  29.146  0.00  0.00    -0.004 C 
ATOM     19  C   UNL A   1     -23.989  -4.549  28.853  0.00  0.00    -0.000 C 
ATOM     20  C   UNL A   1     -25.137  -5.280  29.205  0.00  0.00    -0.000 C 
ATOM     21  C   UNL A   1     -26.232  -4.611  29.784  0.00  0.00    -0.000 C 
ATOM     22  C   UNL A   1     -26.155  -3.232  30.065  0.00  0.00    -0.004 C 
ENDBRANCH  16  17
BRANCH  16  23
ATOM     23  C   UNL A   1     -25.387  -0.679  31.571  0.00  0.00    +0.079 C 
ATOM     24  C   UNL A   1     -25.189   0.773  32.028  0.00  0.00    +0.019 C 
ATOM     25  C   UNL A   1     -25.336   0.684  33.544  0.00  0.00    +0.020 C 
ATOM     26  C   UNL A   1     -24.829  -0.715  33.905  0.00  0.00    +0.089 C 
ATOM     27  N   UNL A   1     -24.758  -1.481  32.646  0.00  0.00    -0.219 NA
ENDBRANCH  16  23
ENDBRANCH  15  16
ENDBRANCH  12  15
ENDBRANCH   1  11
BRANCH   2  28
ATOM     28  C   UNL A   1     -25.642   4.093  27.123  0.00  0.00    +0.266 C 
ATOM     29  N   UNL A   1     -25.614   5.252  26.449  0.00  0.00    -0.200 NA
ATOM     30  C   UNL A   1     -25.026   6.479  26.963  0.00  0.00    +0.139 C 
ATOM     31  O   UNL A   1     -25.143   3.966  28.243  0.00  0.00    -0.268 OA
ENDBRANCH   2  28
BRANCH   5  32
ATOM     32  O   UNL A   1     -28.193  -0.208  24.477  0.00  0.00    -0.456 OA
BRANCH  32  33
ATOM     33  C   UNL A   1     -29.460   0.005  23.866  0.00  0.00    +0.239 C 
BRANCH  33  34
ATOM     34  C   UNL A   1     -30.065  -1.377  23.573  0.00  0.00    +0.190 C 
BRANCH  34  35
ATOM     35  O   UNL A   1     -30.729  -1.878  24.721  0.00  0.00    -0.342 OA
BRANCH  35  36
ATOM     36  C   UNL A   1     -31.772  -1.655  25.588  0.00  0.00    +0.206 C 
BRANCH  36  37
ATOM     37  C   UNL A   1     -31.424  -0.720  26.744  0.00  0.00    +0.182 C 
ATOM     38  O   UNL A   1     -30.349  -0.122  26.752  0.00  0.00    -0.293 OA
BRANCH  37  39
ATOM     39  C   UNL A   1     -32.434  -0.368  27.831  0.00  0.00    +0.086 C 
BRANCH  39  40
ATOM     40  C   UNL A   1     -32.184   1.077  28.403  0.00  0.00    +0.097 C 
BRANCH  40  41
ATOM     41  N   UNL A   1     -30.945   1.642  28.374  0.00  0.00    -0.209 NA
BRANCH  41  43
ATOM     42  C   UNL A   1     -28.022   1.671  30.056  0.00  0.00    +0.014 C 
ATOM     43  C   UNL A   1     -30.120   2.748  29.240  0.00  0.00    +0.162 C 
ATOM     44  C   UNL A   1     -29.147   5.038  28.082  0.00  0.00    +0.060 C 
ATOM     45  S   UNL A   1     -28.041   4.423  29.338  0.00  0.00    -0.139 S 
ATOM     46  C   UNL A   1     -30.318   3.941  28.179  0.00  0.00    +0.040 C 
ATOM     47  C   UNL A   1     -28.539   2.832  29.164  0.00  0.00    +0.073 C 
BRANCH  43  50
ATOM     48  O   UNL A   1     -29.708   2.865  31.775  0.00  0.00    -0.244 OA
ATOM     49  O   UNL A   1     -31.609   2.166  31.090  0.00  0.00    -0.244 OA
ATOM     50  C   UNL A   1     -30.497   2.563  30.776  0.00  0.00    +0.379 C 
ENDBRANCH  43  50
ENDBRANCH  41  43
ENDBRANCH  40  41
ENDBRANCH  39  40
ENDBRANCH  37  39
ENDBRANCH  36  37
ENDBRANCH  35  36
ENDBRANCH  34  35
ENDBRANCH  33  34
ENDBRANCH  32  33
ENDBRANCH   5  32
TORSDOF 17
