MODEL 1336
MODEL 1
REMARK VINA RESULT:    -7.247      0.000      0.000
REMARK INTER + INTRA:          -7.747
REMARK INTER:                  -7.671
REMARK INTRA:                  -0.076
REMARK UNBOUND:                -0.076
REMARK  Name = No_1336-gen_results/8p0m/2024-11-27-11-27-31/
REMARK  1 active torsions:
REMARK  status: ('A' for Active; 'I' for Inactive)
REMARK    1  A    between atoms: C_3  and  C_4
REMARK                            x       y       z     vdW  Elec       q    Type
REMARK                         _______ _______ _______ _____ _____    ______ ____
ROOT
ATOM      1  C   UNL A   1     -21.506  -0.032  28.896  0.00  0.00    +0.030 A 
ATOM      2  C   UNL A   1     -22.202  -0.947  29.268  0.00  0.00    +0.003 A 
ATOM      3  C   UNL A   1     -23.490  -1.182  28.788  0.00  0.00    +0.006 A 
ATOM      4  C   UNL A   1     -22.057   1.028  28.049  0.00  0.00    +0.141 A 
ATOM      5  C   UNL A   1     -23.276   0.864  27.413  0.00  0.00    +0.036 A 
ATOM      6  C   UNL A   1     -24.066  -0.240  27.809  0.00  0.00    +0.037 A 
ATOM      7  F   UNL A   1     -21.294   2.028  27.643  0.00  0.00    -0.204 F 
ATOM      8 BR   UNL A   1     -25.785  -0.437  27.066  0.00  0.00    -0.049 Br
ENDROOT
BRANCH   3   9
ATOM      9  C   UNL A   1     -24.410  -2.263  29.192  0.00  0.00    +0.003 A 
ATOM     10  C   UNL A   1     -24.112  -3.559  28.672  0.00  0.00    +0.030 A 
ATOM     11  C   UNL A   1     -24.960  -4.623  28.980  0.00  0.00    +0.140 A 
ATOM     12  C   UNL A   1     -26.168  -4.334  29.667  0.00  0.00    +0.030 A 
ATOM     13  C   UNL A   1     -26.464  -3.093  30.147  0.00  0.00    +0.002 A 
ATOM     14  C   UNL A   1     -25.587  -2.004  29.861  0.00  0.00    +0.000 A 
ATOM     15  F   UNL A   1     -24.744  -5.826  28.534  0.00  0.00    -0.204 F 
ENDBRANCH   3   9
TORSDOF 1
ENDMDL
ENDMDL
