MODEL 1337
MODEL 1
REMARK VINA RESULT:    -7.058      0.000      0.000
REMARK INTER + INTRA:          -9.344
REMARK INTER:                  -8.709
REMARK INTRA:                  -0.635
REMARK UNBOUND:                -0.635
REMARK  Name = No_1337-gen_results/8p0m/2024-11-27-11-27-31/
REMARK  4 active torsions:
REMARK  status: ('A' for Active; 'I' for Inactive)
REMARK    1  A    between atoms: C_4  and  C_6
REMARK    2  A    between atoms: C_6  and  C_7
REMARK    3  A    between atoms: C_7  and  C_8
REMARK    4  A    between atoms: C_10  and  C_12
REMARK                            x       y       z     vdW  Elec       q    Type
REMARK                         _______ _______ _______ _____ _____    ______ ____
ROOT
ATOM      1  C   UNL A   1      -9.961   0.419  37.856  0.00  0.00    +0.013 A 
ATOM      2  C   UNL A   1     -10.745   1.088  37.637  0.00  0.00    +0.052 A 
ATOM      3  C   UNL A   1      -8.847   0.366  36.835  0.00  0.00    -0.007 C 
ATOM      4  C   UNL A   1      -9.105   0.110  35.715  0.00  0.00    -0.040 C 
ATOM      5  C   UNL A   1     -11.860   1.171  38.641  0.00  0.00    +0.015 A 
ATOM      6  C   UNL A   1     -11.922   0.184  39.522  0.00  0.00    +0.008 A 
ATOM      7  C   UNL A   1     -10.952  -0.775  39.562  0.00  0.00    +0.080 A 
ATOM      8  C   UNL A   1      -9.962  -0.747  38.685  0.00  0.00    +0.008 A 
ATOM      9  N   UNL A   1     -10.946   2.215  36.750  0.00  0.00    -0.285 N 
ATOM     10  C   UNL A   1     -11.463   2.085  35.513  0.00  0.00    +0.048 A 
ATOM     11  C   UNL A   1     -10.290   3.397  37.158  0.00  0.00    +0.117 C 
ATOM     12  C   UNL A   1     -12.753   2.574  35.452  0.00  0.00    +0.015 A 
ATOM     13  C   UNL A   1     -13.373   2.219  34.410  0.00  0.00    +0.001 A 
ATOM     14  C   UNL A   1     -12.836   1.560  33.237  0.00  0.00    -0.000 A 
ATOM     15  C   UNL A   1     -11.527   1.079  33.376  0.00  0.00    -0.003 A 
ATOM     16  C   UNL A   1     -10.859   1.367  34.537  0.00  0.00    -0.005 A 
ATOM     17  C   UNL A   1      -9.487   0.961  34.609  0.00  0.00    +0.042 C 
ATOM     18  C   UNL A   1      -8.563   2.247  34.168  0.00  0.00    +0.009 C 
ENDROOT
BRANCH   7  19
ATOM     19  C   UNL A   1     -10.903  -1.868  40.583  0.00  0.00    +0.388 C 
ATOM     20  O   UNL A   1     -11.863  -2.605  40.693  0.00  0.00    -0.241 OA
ATOM     21  O   UNL A   1      -9.795  -2.184  41.247  0.00  0.00    -0.241 OA
ENDBRANCH   7  19
BRANCH   4  22
ATOM     22  C   UNL A   1      -8.055   0.079  34.642  0.00  0.00    +0.032 C 
BRANCH  22  23
ATOM     23  C   UNL A   1      -7.525  -1.139  34.222  0.00  0.00    +0.093 C 
BRANCH  23  24
ATOM     24  C   UNL A   1      -6.253  -1.453  34.694  0.00  0.00    +0.261 C 
ATOM     25  N   UNL A   1      -5.464  -0.570  35.267  0.00  0.00    -0.088 NA
ATOM     26  O   UNL A   1      -5.854  -2.721  34.788  0.00  0.00    -0.272 OA
ENDBRANCH  23  24
ENDBRANCH  22  23
ENDBRANCH   4  22
TORSDOF 4
ENDMDL
ENDMDL
