MODEL 1338
MODEL 1
REMARK VINA RESULT:    -6.128      0.000      0.000
REMARK INTER + INTRA:          -7.007
REMARK INTER:                  -6.844
REMARK INTRA:                  -0.163
REMARK UNBOUND:                -0.163
REMARK  Name = No_1338-gen_results/8p0m/2024-11-27-11-27-31/
REMARK  2 active torsions:
REMARK  status: ('A' for Active; 'I' for Inactive)
REMARK    1  A    between atoms: C_2  and  N_7
REMARK    2  A    between atoms: N_7  and  C_8
REMARK                            x       y       z     vdW  Elec       q    Type
REMARK                         _______ _______ _______ _____ _____    ______ ____
ROOT
ATOM      1  N   UNL A   1     -24.516  -1.190  29.206  0.00  0.00    -0.194 NA
ENDROOT
BRANCH   1   3
ATOM      2  C   UNL A   1     -22.447  -0.216  28.900  0.00  0.00    +0.036 A 
ATOM      3  C   UNL A   1     -23.613  -0.310  28.594  0.00  0.00    +0.152 A 
ATOM      4  N   UNL A   1     -24.203   0.423  27.640  0.00  0.00    -0.227 NA
ATOM      5  C   UNL A   1     -23.426   1.374  26.966  0.00  0.00    +0.100 A 
ATOM      6  C   UNL A   1     -22.114   1.518  27.320  0.00  0.00    +0.021 A 
ATOM      7  C   UNL A   1     -21.612   0.766  28.266  0.00  0.00    +0.004 A 
ENDBRANCH   1   3
BRANCH   1   8
ATOM      8  C   UNL A   1     -24.424  -2.500  29.056  0.00  0.00    +0.072 A 
ATOM      9  C   UNL A   1     -23.865  -3.319  28.649  0.00  0.00    +0.017 A 
ATOM     10  C   UNL A   1     -24.041  -4.806  28.547  0.00  0.00    +0.001 A 
ATOM     11  C   UNL A   1     -25.225  -5.263  29.095  0.00  0.00    +0.000 A 
ATOM     12  C   UNL A   1     -26.078  -4.324  29.658  0.00  0.00    +0.001 A 
ATOM     13  C   UNL A   1     -25.782  -3.087  29.690  0.00  0.00    +0.017 A 
ENDBRANCH   1   8
TORSDOF 2
ENDMDL
ENDMDL
