REMARK  Name = outputs/IAG933/test6/raw/output_1338_IAG933_linker_design_.xyz
REMARK  9 active torsions:
REMARK  status: ('A' for Active; 'I' for Inactive)
REMARK    1  A    between atoms: C_1  and  C_2
REMARK    2  A    between atoms: C_1  and  C_8
REMARK    3  A    between atoms: C_1  and  O_39
REMARK    4  A    between atoms: C_13  and  C_31
REMARK    5  A    between atoms: C_14  and  C_15
REMARK    6  A    between atoms: C_21  and  O_22
REMARK    7  A    between atoms: O_22  and  C_23
REMARK    8  A    between atoms: C_23  and  C_24
REMARK    9  A    between atoms: C_29  and  O_39
REMARK                            x       y       z     vdW  Elec       q    Type
REMARK                         _______ _______ _______ _____ _____    ______ ____
ROOT
ATOM      1  O   UNL A   1     -23.434   2.168  25.140  0.00  0.00    -0.437 OA
ATOM      2  C   UNL A   1     -23.485   0.365  29.072  0.00  0.00    +0.225 C 
ATOM      3  C   UNL A   1     -22.029   1.688  26.890  0.00  0.00    +0.154 C 
ATOM      4  C   UNL A   1     -24.495   1.282  27.036  0.00  0.00    +0.190 C 
ATOM      5  C   UNL A   1     -20.809  -0.489  28.720  0.00  0.00    +0.143 C 
ATOM      6  C   UNL A   1     -22.363   0.990  29.014  0.00  0.00    +0.197 C 
ATOM      7  O   UNL A   1     -21.158   2.059  25.947  0.00  0.00    -0.439 OA
ATOM      8  N   UNL A   1     -24.494   0.516  28.167  0.00  0.00    -0.229 NA
ATOM      9  C   UNL A   1     -23.340   1.663  26.387  0.00  0.00    +0.176 C 
ATOM     10  C   UNL A   1     -20.167   0.906  28.371  0.00  0.00    +0.043 C 
ATOM     11  C   UNL A   1     -22.137   2.411  24.874  0.00  0.00    +0.429 C 
ATOM     12  O   UNL A   1     -21.230   0.313  29.845  0.00  0.00    -0.346 OA
ATOM     13  C   UNL A   1     -21.418   1.683  28.158  0.00  0.00    +0.099 C 
ENDROOT
BRANCH   4  14
ATOM     14  C   UNL A   1     -25.688   1.614  26.461  0.00  0.00    +0.045 C 
ATOM     15  C   UNL A   1     -26.250   2.920  26.395  0.00  0.00    +0.075 C 
ATOM     16  C   UNL A   1     -27.438   3.091  25.645  0.00  0.00    +0.106 C 
ATOM     17  N   UNL A   1     -28.075   2.089  25.003  0.00  0.00    -0.208 NA
ATOM     18  C   UNL A   1     -27.543   0.849  25.079  0.00  0.00    +0.253 C 
ATOM     19  C   UNL A   1     -26.354   0.576  25.777  0.00  0.00    +0.191 C 
ATOM     20  F   UNL A   1     -25.860  -0.681  25.795  0.00  0.00    -0.200 F 
BRANCH  15  21
ATOM     21  C   UNL A   1     -25.642   4.093  27.123  0.00  0.00    +0.266 C 
ATOM     22  N   UNL A   1     -25.614   5.252  26.449  0.00  0.00    -0.200 NA
ATOM     23  C   UNL A   1     -25.026   6.479  26.963  0.00  0.00    +0.139 C 
ATOM     24  O   UNL A   1     -25.143   3.966  28.243  0.00  0.00    -0.268 OA
ENDBRANCH  15  21
BRANCH  18  25
ATOM     25  O   UNL A   1     -28.193  -0.208  24.477  0.00  0.00    -0.456 OA
BRANCH  25  26
ATOM     26  C   UNL A   1     -29.460   0.005  23.866  0.00  0.00    +0.243 C 
BRANCH  26  27
ATOM     27  C   UNL A   1     -30.065  -1.377  23.573  0.00  0.00    +0.229 C 
ATOM     28  O   UNL A   1     -30.729  -1.878  24.721  0.00  0.00    -0.216 OA
ENDBRANCH  26  27
ENDBRANCH  25  26
ENDBRANCH  18  25
ENDBRANCH   4  14
BRANCH   2  29
ATOM     29  O   UNL A   1     -23.502  -0.591  30.000  0.00  0.00    -0.460 OA
BRANCH  29  30
ATOM     30  C   UNL A   1     -24.855  -1.012  30.143  0.00  0.00    +0.205 C 
BRANCH  30  31
ATOM     31  C   UNL A   1     -24.973  -2.505  29.788  0.00  0.00    +0.019 C 
ATOM     32  C   UNL A   1     -23.906  -3.173  29.146  0.00  0.00    -0.001 C 
ATOM     33  C   UNL A   1     -23.989  -4.549  28.853  0.00  0.00    -0.000 C 
ATOM     34  C   UNL A   1     -25.137  -5.280  29.205  0.00  0.00    -0.000 C 
ATOM     35  C   UNL A   1     -26.232  -4.611  29.784  0.00  0.00    -0.000 C 
ATOM     36  C   UNL A   1     -26.155  -3.232  30.065  0.00  0.00    -0.001 C 
ENDBRANCH  30  31
BRANCH  30  37
ATOM     37  C   UNL A   1     -25.387  -0.679  31.571  0.00  0.00    +0.117 C 
ATOM     38  C   UNL A   1     -25.189   0.773  32.028  0.00  0.00    +0.023 C 
ATOM     39  C   UNL A   1     -25.336   0.684  33.544  0.00  0.00    +0.020 C 
ATOM     40  C   UNL A   1     -24.829  -0.715  33.905  0.00  0.00    +0.089 C 
ATOM     41  N   UNL A   1     -24.758  -1.481  32.646  0.00  0.00    -0.215 NA
ENDBRANCH  30  37
ENDBRANCH  29  30
ENDBRANCH   2  29
TORSDOF 9
