REMARK  Name = outputs/IAG933/test6/raw/output_1340_IAG933_linker_design_.xyz
REMARK  11 active torsions:
REMARK  status: ('A' for Active; 'I' for Inactive)
REMARK    1  A    between atoms: C_1  and  C_2
REMARK    2  A    between atoms: C_1  and  C_8
REMARK    3  A    between atoms: C_1  and  C_43
REMARK    4  A    between atoms: C_13  and  C_41
REMARK    5  A    between atoms: C_14  and  C_15
REMARK    6  A    between atoms: C_21  and  O_22
REMARK    7  A    between atoms: O_22  and  C_23
REMARK    8  A    between atoms: C_23  and  C_24
REMARK    9  A    between atoms: C_33  and  C_42
REMARK   10  A    between atoms: C_33  and  C_43
REMARK   11  A    between atoms: C_34  and  C_38
REMARK                            x       y       z     vdW  Elec       q    Type
REMARK                         _______ _______ _______ _____ _____    ______ ____
ROOT
ATOM      1  C   UNL A   1     -22.258   2.384  24.407  0.00  0.00    +0.302 C 
ATOM      2  C   UNL A   1     -23.062   0.586  28.699  0.00  0.00    -0.001 C 
ATOM      3  O   UNL A   1     -21.236   2.401  25.318  0.00  0.00    -0.416 OA
ATOM      4  C   UNL A   1     -21.854   1.949  26.396  0.00  0.00    +0.220 C 
ATOM      5  C   UNL A   1     -21.144   1.681  27.708  0.00  0.00    +0.029 C 
ATOM      6  N   UNL A   1     -23.495   2.180  24.923  0.00  0.00    -0.129 NA
ATOM      7  N   UNL A   1     -23.247   1.861  26.114  0.00  0.00    -0.160 N 
ATOM      8  C   UNL A   1     -21.797   0.949  28.755  0.00  0.00    -0.000 C 
ATOM      9  C   UNL A   1     -24.324   1.461  26.846  0.00  0.00    +0.061 C 
ATOM     10  C   UNL A   1     -24.201   0.897  28.161  0.00  0.00    +0.027 C 
ENDROOT
BRANCH   9  11
ATOM     11  C   UNL A   1     -25.688   1.614  26.461  0.00  0.00    +0.108 C 
ATOM     12  C   UNL A   1     -26.250   2.920  26.395  0.00  0.00    +0.060 C 
ATOM     13  C   UNL A   1     -27.438   3.091  25.645  0.00  0.00    +0.102 C 
ATOM     14  N   UNL A   1     -28.075   2.089  25.003  0.00  0.00    -0.212 NA
ATOM     15  C   UNL A   1     -27.543   0.849  25.079  0.00  0.00    +0.234 C 
ATOM     16  C   UNL A   1     -26.354   0.576  25.777  0.00  0.00    +0.245 C 
ATOM     17  F   UNL A   1     -25.860  -0.681  25.795  0.00  0.00    -0.227 F 
BRANCH  12  18
ATOM     18  C   UNL A   1     -25.642   4.093  27.123  0.00  0.00    +0.263 C 
ATOM     19  N   UNL A   1     -25.614   5.252  26.449  0.00  0.00    -0.200 NA
ATOM     20  C   UNL A   1     -25.026   6.479  26.963  0.00  0.00    +0.139 C 
ATOM     21  O   UNL A   1     -25.143   3.966  28.243  0.00  0.00    -0.269 OA
ENDBRANCH  12  18
BRANCH  15  22
ATOM     22  O   UNL A   1     -28.193  -0.208  24.477  0.00  0.00    -0.459 OA
BRANCH  22  23
ATOM     23  C   UNL A   1     -29.460   0.005  23.866  0.00  0.00    +0.242 C 
BRANCH  23  24
ATOM     24  C   UNL A   1     -30.065  -1.377  23.573  0.00  0.00    +0.229 C 
ATOM     25  O   UNL A   1     -30.729  -1.878  24.721  0.00  0.00    -0.216 OA
ENDBRANCH  23  24
ENDBRANCH  22  23
ENDBRANCH  15  22
ENDBRANCH   9  11
BRANCH  10  26
ATOM     26  C   UNL A   1     -25.361   0.857  28.752  0.00  0.00    +0.232 C 
ATOM     27  O   UNL A   1     -25.697   1.876  29.506  0.00  0.00    -0.210 OA
BRANCH  26  29
ATOM     28  O   UNL A   1     -26.825  -0.770  28.590  0.00  0.00    -0.293 OA
ATOM     29  C   UNL A   1     -25.746  -0.321  29.114  0.00  0.00    +0.190 C 
BRANCH  29  30
ATOM     30  C   UNL A   1     -24.855  -1.012  30.143  0.00  0.00    +0.099 C 
BRANCH  30  31
ATOM     31  C   UNL A   1     -24.973  -2.505  29.788  0.00  0.00    -0.014 C 
ATOM     32  C   UNL A   1     -23.906  -3.173  29.146  0.00  0.00    -0.004 C 
ATOM     33  C   UNL A   1     -23.989  -4.549  28.853  0.00  0.00    -0.000 C 
ATOM     34  C   UNL A   1     -25.137  -5.280  29.205  0.00  0.00    -0.000 C 
ATOM     35  C   UNL A   1     -26.232  -4.611  29.784  0.00  0.00    -0.000 C 
ATOM     36  C   UNL A   1     -26.155  -3.232  30.065  0.00  0.00    -0.004 C 
ENDBRANCH  30  31
BRANCH  30  37
ATOM     37  C   UNL A   1     -25.387  -0.679  31.571  0.00  0.00    +0.084 C 
ATOM     38  C   UNL A   1     -25.189   0.773  32.028  0.00  0.00    +0.020 C 
ATOM     39  C   UNL A   1     -25.336   0.684  33.544  0.00  0.00    +0.020 C 
ATOM     40  C   UNL A   1     -24.829  -0.715  33.905  0.00  0.00    +0.089 C 
ATOM     41  N   UNL A   1     -24.758  -1.481  32.646  0.00  0.00    -0.219 NA
ENDBRANCH  30  37
ENDBRANCH  29  30
ENDBRANCH  26  29
ENDBRANCH  10  26
BRANCH   5  42
ATOM     42  C   UNL A   1     -19.789   2.114  27.876  0.00  0.00    +0.031 C 
ATOM     43  C   UNL A   1     -18.654   2.099  26.913  0.00  0.00    +0.005 C 
ENDBRANCH   5  42
TORSDOF 11
