MODEL 1340
MODEL 1
REMARK VINA RESULT:    -7.079      0.000      0.000
REMARK INTER + INTRA:         -11.671
REMARK INTER:                  -9.148
REMARK INTRA:                  -2.524
REMARK UNBOUND:                -2.524
REMARK  Name = No_1340-gen_results/8p0m/2024-11-27-11-27-31/
REMARK  5 active torsions:
REMARK  status: ('A' for Active; 'I' for Inactive)
REMARK    1  A    between atoms: C_1  and  C_2
REMARK    2  A    between atoms: C_1  and  C_8
REMARK    3  A    between atoms: C_3  and  C_18
REMARK    4  A    between atoms: C_22  and  C_32
REMARK    5  A    between atoms: C_32  and  N_33
REMARK                            x       y       z     vdW  Elec       q    Type
REMARK                         _______ _______ _______ _____ _____    ______ ____
ROOT
ATOM      1  C   UNL A   1     -25.137   1.450  26.283  0.00  0.00    +0.075 C 
ATOM      2  C   UNL A   1     -25.956   2.321  26.974  0.00  0.00    +0.089 C 
ATOM      3  C   UNL A   1     -27.357   2.571  26.690  0.00  0.00    +0.036 C 
ATOM      4  C   UNL A   1     -27.964   1.888  25.613  0.00  0.00    -0.019 A 
ATOM      5  C   UNL A   1     -27.124   0.965  24.893  0.00  0.00    +0.031 A 
ATOM      6  C   UNL A   1     -25.808   0.717  25.204  0.00  0.00    +0.173 C 
ATOM      7  C   UNL A   1     -29.347   2.030  25.263  0.00  0.00    -0.004 A 
ATOM      8  C   UNL A   1     -29.971   0.965  24.476  0.00  0.00    -0.000 A 
ATOM      9  C   UNL A   1     -29.138   0.045  23.816  0.00  0.00    +0.000 A 
ATOM     10  C   UNL A   1     -27.753  -0.008  24.007  0.00  0.00    +0.003 A 
ATOM     11  O   UNL A   1     -25.127  -0.112  24.511  0.00  0.00    -0.291 OA
ENDROOT
BRANCH   2  12
ATOM     12  C   UNL A   1     -25.409   3.164  28.043  0.00  0.00    +0.232 C 
ATOM     13  O   UNL A   1     -24.567   3.911  27.927  0.00  0.00    -0.274 OA
ATOM     14  N   UNL A   1     -26.097   3.151  29.266  0.00  0.00    -0.225 N 
ATOM     15  C   UNL A   1     -25.697   3.965  30.385  0.00  0.00    +0.237 C 
ATOM     16  C   UNL A   1     -25.391   3.426  31.367  0.00  0.00    +0.115 C 
ATOM     17  C   UNL A   1     -25.628   2.190  31.677  0.00  0.00    -0.015 A 
ATOM     18  C   UNL A   1     -25.337   1.480  32.905  0.00  0.00    -0.004 A 
ATOM     19  C   UNL A   1     -25.638   0.116  33.161  0.00  0.00    -0.000 A 
ATOM     20  C   UNL A   1     -26.227  -0.617  32.106  0.00  0.00    -0.000 A 
ATOM     21  C   UNL A   1     -26.501  -0.003  30.868  0.00  0.00    -0.003 A 
ATOM     22  C   UNL A   1     -26.220   1.274  30.709  0.00  0.00    -0.005 A 
ATOM     23  C   UNL A   1     -26.439   1.820  29.794  0.00  0.00    +0.127 C 
ATOM     24  O   UNL A   1     -25.767   5.190  30.019  0.00  0.00    -0.274 OA
BRANCH  16  25
ATOM     25  C   UNL A   1     -24.900   4.344  32.498  0.00  0.00    +0.086 C 
ATOM     26  C   UNL A   1     -26.003   4.731  33.405  0.00  0.00    +0.020 C 
BRANCH  25  27
ATOM     27  N   UNL A   1     -23.891   4.841  32.644  0.00  0.00    -0.217 NA
ATOM     28  C   UNL A   1     -23.584   6.018  33.003  0.00  0.00    +0.107 C 
ENDBRANCH  25  27
ENDBRANCH  16  25
ENDBRANCH   2  12
BRANCH   1  29
ATOM     29  C   UNL A   1     -23.990   1.221  26.593  0.00  0.00    +0.035 C 
BRANCH  29  30
ATOM     30  C   UNL A   1     -23.824   0.301  27.776  0.00  0.00    -0.022 A 
ATOM     31  C   UNL A   1     -24.330  -0.710  27.812  0.00  0.00    -0.004 A 
ATOM     32  C   UNL A   1     -24.109  -1.664  29.006  0.00  0.00    -0.000 A 
ATOM     33  C   UNL A   1     -23.293  -1.190  30.011  0.00  0.00    -0.000 A 
ATOM     34  C   UNL A   1     -22.921   0.800  28.908  0.00  0.00    -0.004 A 
ATOM     35  C   UNL A   1     -22.711   0.015  29.989  0.00  0.00    -0.000 A 
ENDBRANCH  29  30
ENDBRANCH   1  29
TORSDOF 5
ENDMDL
ENDMDL
