MODEL 1341
MODEL 1
REMARK VINA RESULT:    -4.222      0.000      0.000
REMARK INTER + INTRA:          -5.126
REMARK INTER:                  -4.963
REMARK INTRA:                  -0.164
REMARK UNBOUND:                -0.164
REMARK  Name = No_1341-gen_results/8p0m/2024-11-27-11-27-31/
REMARK  3 active torsions:
REMARK  status: ('A' for Active; 'I' for Inactive)
REMARK    1  A    between atoms: C_2  and  C_3
REMARK    2  A    between atoms: C_3  and  C_4
REMARK    3  A    between atoms: C_5  and  C_6
REMARK                            x       y       z     vdW  Elec       q    Type
REMARK                         _______ _______ _______ _____ _____    ______ ____
ROOT
ATOM      1  C   UNL A   1     -25.047  -2.748  29.390  0.00  0.00    +0.048 C 
ENDROOT
BRANCH   1   3
ATOM      2  C   UNL A   1     -26.225  -4.711  29.655  0.00  0.00    -0.009 C 
ATOM      3  C   UNL A   1     -25.250  -4.112  29.262  0.00  0.00    -0.040 C 
ATOM      4  C   UNL A   1     -24.162  -4.902  28.578  0.00  0.00    +0.027 C 
ENDBRANCH   1   3
BRANCH   1   5
ATOM      5  C   UNL A   1     -23.880  -2.106  29.942  0.00  0.00    -0.022 C 
ATOM      6  C   UNL A   1     -23.097  -1.282  29.097  0.00  0.00    -0.004 C 
BRANCH   6   7
ATOM      7  C   UNL A   1     -21.931  -0.568  29.479  0.00  0.00    -0.000 C 
ATOM      8  C   UNL A   1     -21.059  -0.088  28.527  0.00  0.00    -0.000 C 
ENDBRANCH   6   7
ENDBRANCH   1   5
TORSDOF 3
ENDMDL
ENDMDL
