MODEL 1342
MODEL 1
REMARK VINA RESULT:    -6.963      0.000      0.000
REMARK INTER + INTRA:          -7.505
REMARK INTER:                  -7.370
REMARK INTRA:                  -0.135
REMARK UNBOUND:                -0.135
REMARK  Name = No_1342-gen_results/8p0m/2024-11-27-11-27-31/
REMARK  1 active torsions:
REMARK  status: ('A' for Active; 'I' for Inactive)
REMARK    1  A    between atoms: C_6  and  C_7
REMARK                            x       y       z     vdW  Elec       q    Type
REMARK                         _______ _______ _______ _____ _____    ______ ____
ROOT
ATOM      1 CL   UNL A   1     -25.340  -0.574  25.868  0.00  0.00    -0.100 Cl
ATOM      2  C   UNL A   1     -25.433   0.333  26.879  0.00  0.00    +0.179 C 
ATOM      3  C   UNL A   1     -25.017   0.015  28.134  0.00  0.00    +0.017 A 
ATOM      4  C   UNL A   1     -24.488  -1.325  28.423  0.00  0.00    -0.001 A 
ATOM      5  C   UNL A   1     -24.053  -1.741  29.657  0.00  0.00    +0.006 A 
ATOM      6  C   UNL A   1     -24.026  -0.800  30.740  0.00  0.00    +0.081 A 
ATOM      7  C   UNL A   1     -24.378   0.587  30.463  0.00  0.00    +0.023 A 
ATOM      8  C   UNL A   1     -24.847   0.902  29.190  0.00  0.00    +0.068 A 
ATOM      9  C   UNL A   1     -26.889   1.008  27.040  0.00  0.00    +0.245 C 
ATOM     10  N   UNL A   1     -26.854   2.058  27.284  0.00  0.00    -0.272 N 
ATOM     11  C   UNL A   1     -25.754   2.797  27.392  0.00  0.00    +0.121 C 
ATOM     12  C   UNL A   1     -24.607   2.545  26.886  0.00  0.00    +0.013 A 
ATOM     13  C   UNL A   1     -24.059   2.593  25.769  0.00  0.00    -0.001 A 
ATOM     14  C   UNL A   1     -22.723   2.243  25.414  0.00  0.00    -0.000 A 
ATOM     15  C   UNL A   1     -21.908   1.782  26.423  0.00  0.00    +0.001 A 
ATOM     16  C   UNL A   1     -22.218   1.958  27.740  0.00  0.00    +0.016 A 
ATOM     17  C   UNL A   1     -23.494   2.216  28.057  0.00  0.00    +0.068 A 
ATOM     18  N   UNL A   1     -23.815   2.058  28.954  0.00  0.00    -0.213 NA
ATOM     19  C   UNL A   1     -28.203   2.806  27.464  0.00  0.00    +0.115 C 
ATOM     20  O   UNL A   1     -27.787   0.128  27.163  0.00  0.00    -0.273 OA
ENDROOT
BRANCH   6  21
ATOM     21  C   UNL A   1     -23.559  -1.068  32.060  0.00  0.00    +0.388 C 
ATOM     22  O   UNL A   1     -24.406  -1.142  32.881  0.00  0.00    -0.241 OA
ATOM     23  O   UNL A   1     -22.324  -1.146  32.299  0.00  0.00    -0.241 OA
ENDBRANCH   6  21
TORSDOF 1
ENDMDL
ENDMDL
