REMARK  Name = No_1342-gen_results/8p0m/2024-11-27-11-27-31/
REMARK  1 active torsions:
REMARK  status: ('A' for Active; 'I' for Inactive)
REMARK    1  A    between atoms: C_6  and  C_7
REMARK                            x       y       z     vdW  Elec       q    Type
REMARK                         _______ _______ _______ _____ _____    ______ ____
ROOT
ATOM      1 CL   UNL A   1     -28.149  -0.820  28.908  0.00  0.00    -0.100 Cl
ATOM      2  C   UNL A   1     -27.834   0.496  29.060  0.00  0.00    +0.179 C 
ATOM      3  C   UNL A   1     -27.602   1.013  30.297  0.00  0.00    +0.017 A 
ATOM      4  C   UNL A   1     -27.718   0.163  31.490  0.00  0.00    -0.001 A 
ATOM      5  C   UNL A   1     -27.512   0.596  32.777  0.00  0.00    +0.006 A 
ATOM      6  C   UNL A   1     -27.075   1.945  32.997  0.00  0.00    +0.081 A 
ATOM      7  C   UNL A   1     -26.779   2.776  31.837  0.00  0.00    +0.023 A 
ATOM      8  C   UNL A   1     -27.060   2.262  30.574  0.00  0.00    +0.068 A 
ATOM      9  C   UNL A   1     -28.844   1.515  28.324  0.00  0.00    +0.245 C 
ATOM     10  N   UNL A   1     -28.351   2.359  27.868  0.00  0.00    -0.272 N 
ATOM     11  C   UNL A   1     -27.038   2.564  27.825  0.00  0.00    +0.121 C 
ATOM     12  C   UNL A   1     -26.118   1.685  27.957  0.00  0.00    +0.013 A 
ATOM     13  C   UNL A   1     -25.604   0.777  27.279  0.00  0.00    -0.001 A 
ATOM     14  C   UNL A   1     -24.558  -0.124  27.638  0.00  0.00    -0.000 A 
ATOM     15  C   UNL A   1     -24.031   0.003  28.904  0.00  0.00    +0.001 A 
ATOM     16  C   UNL A   1     -24.233   1.119  29.662  0.00  0.00    +0.016 A 
ATOM     17  C   UNL A   1     -25.265   1.914  29.350  0.00  0.00    +0.068 A 
ATOM     18  N   UNL A   1     -25.624   2.527  30.004  0.00  0.00    -0.213 NA
ATOM     19  C   UNL A   1     -29.232   3.405  27.132  0.00  0.00    +0.115 C 
ATOM     20  O   UNL A   1     -30.038   1.311  28.682  0.00  0.00    -0.273 OA
ENDROOT
BRANCH   6  21
ATOM     21  C   UNL A   1     -26.775   2.522  34.265  0.00  0.00    +0.388 C 
ATOM     22  O   UNL A   1     -26.916   1.795  35.187  0.00  0.00    -0.241 OA
ATOM     23  O   UNL A   1     -26.453   3.737  34.357  0.00  0.00    -0.241 OA
ENDBRANCH   6  21
TORSDOF 1
