REMARK  Name = outputs/IAG933/test6/raw/output_1344_IAG933_linker_design_.xyz
REMARK  14 active torsions:
REMARK  status: ('A' for Active; 'I' for Inactive)
REMARK    1  A    between atoms: C_1  and  C_2
REMARK    2  A    between atoms: C_1  and  C_8
REMARK    3  A    between atoms: C_1  and  C_40
REMARK    4  A    between atoms: C_13  and  N_38
REMARK    5  A    between atoms: C_14  and  C_15
REMARK    6  A    between atoms: C_21  and  O_22
REMARK    7  A    between atoms: O_22  and  C_23
REMARK    8  A    between atoms: C_23  and  C_24
REMARK    9  A    between atoms: O_28  and  S_36
REMARK   10  A    between atoms: O_28  and  C_40
REMARK   11  A    between atoms: C_31  and  S_36
REMARK   12  A    between atoms: C_31  and  C_39
REMARK   13  A    between atoms: C_33  and  C_39
REMARK   14  A    between atoms: C_34  and  C_40
REMARK                            x       y       z     vdW  Elec       q    Type
REMARK                         _______ _______ _______ _____ _____    ______ ____
ROOT
ATOM      1  C   UNL A   1     -22.657   0.883  28.457  0.00  0.00    +0.221 C 
ATOM      2  O   UNL A   1     -22.129   0.480  29.503  0.00  0.00    -0.283 OA
ATOM      3  C   UNL A   1     -24.035   0.737  28.067  0.00  0.00    +0.171 C 
ATOM      4  C   UNL A   1     -23.317   1.955  26.168  0.00  0.00    +0.158 C 
ATOM      5  S   UNL A   1     -21.855   1.747  27.184  0.00  0.00    -0.053 S 
ATOM      6  N   UNL A   1     -24.341   1.423  26.916  0.00  0.00    -0.288 N 
ENDROOT
BRANCH   6   7
ATOM      7  C   UNL A   1     -25.688   1.614  26.461  0.00  0.00    +0.087 C 
ATOM      8  C   UNL A   1     -26.250   2.920  26.395  0.00  0.00    +0.090 C 
ATOM      9  C   UNL A   1     -27.438   3.091  25.645  0.00  0.00    +0.108 C 
ATOM     10  N   UNL A   1     -28.075   2.089  25.003  0.00  0.00    -0.208 NA
ATOM     11  C   UNL A   1     -27.543   0.849  25.079  0.00  0.00    +0.255 C 
ATOM     12  C   UNL A   1     -26.354   0.576  25.777  0.00  0.00    +0.206 C 
ATOM     13  F   UNL A   1     -25.860  -0.681  25.795  0.00  0.00    -0.198 F 
BRANCH   8  14
ATOM     14  C   UNL A   1     -25.642   4.093  27.123  0.00  0.00    +0.268 C 
ATOM     15  N   UNL A   1     -25.614   5.252  26.449  0.00  0.00    -0.200 NA
ATOM     16  C   UNL A   1     -25.026   6.479  26.963  0.00  0.00    +0.139 C 
ATOM     17  O   UNL A   1     -25.143   3.966  28.243  0.00  0.00    -0.268 OA
ENDBRANCH   8  14
BRANCH  11  18
ATOM     18  O   UNL A   1     -28.193  -0.208  24.477  0.00  0.00    -0.456 OA
BRANCH  18  19
ATOM     19  C   UNL A   1     -29.460   0.005  23.866  0.00  0.00    +0.243 C 
BRANCH  19  20
ATOM     20  C   UNL A   1     -30.065  -1.377  23.573  0.00  0.00    +0.229 C 
ATOM     21  O   UNL A   1     -30.729  -1.878  24.721  0.00  0.00    -0.216 OA
ENDBRANCH  19  20
ENDBRANCH  18  19
ENDBRANCH  11  18
ENDBRANCH   6   7
BRANCH   3  22
ATOM     22  C   UNL A   1     -25.066   0.134  29.099  0.00  0.00    +0.161 C 
BRANCH  22  23
ATOM     23  C   UNL A   1     -24.855  -1.012  30.143  0.00  0.00    +0.069 C 
BRANCH  23  24
ATOM     24  C   UNL A   1     -24.973  -2.505  29.788  0.00  0.00    -0.019 C 
ATOM     25  C   UNL A   1     -23.906  -3.173  29.146  0.00  0.00    -0.004 C 
ATOM     26  C   UNL A   1     -23.989  -4.549  28.853  0.00  0.00    -0.000 C 
ATOM     27  C   UNL A   1     -25.137  -5.280  29.205  0.00  0.00    -0.000 C 
ATOM     28  C   UNL A   1     -26.232  -4.611  29.784  0.00  0.00    -0.000 C 
ATOM     29  C   UNL A   1     -26.155  -3.232  30.065  0.00  0.00    -0.004 C 
ENDBRANCH  23  24
BRANCH  23  30
ATOM     30  C   UNL A   1     -25.387  -0.679  31.571  0.00  0.00    +0.079 C 
ATOM     31  C   UNL A   1     -25.189   0.773  32.028  0.00  0.00    +0.019 C 
ATOM     32  C   UNL A   1     -25.336   0.684  33.544  0.00  0.00    +0.020 C 
ATOM     33  C   UNL A   1     -24.829  -0.715  33.905  0.00  0.00    +0.089 C 
ATOM     34  N   UNL A   1     -24.758  -1.481  32.646  0.00  0.00    -0.219 NA
ENDBRANCH  23  30
ENDBRANCH  22  23
BRANCH  22  35
ATOM     35  O   UNL A   1     -26.491   0.148  28.623  0.00  0.00    -0.300 OA
BRANCH  35  36
ATOM     36  S   UNL A   1     -27.797   0.255  29.679  0.00  0.00    +0.004 S 
BRANCH  36  37
ATOM     37  C   UNL A   1     -27.755   1.832  30.422  0.00  0.00    +0.099 C 
BRANCH  37  38
ATOM     38  C   UNL A   1     -27.704   3.147  30.802  0.00  0.00    +0.128 C 
BRANCH  38  40
ATOM     39  O   UNL A   1     -26.160   4.467  31.854  0.00  0.00    -0.246 OA
ATOM     40  C   UNL A   1     -27.072   4.394  31.014  0.00  0.00    +0.366 C 
ATOM     41  O   UNL A   1     -27.410   5.407  30.341  0.00  0.00    -0.246 OA
ENDBRANCH  38  40
ENDBRANCH  37  38
ENDBRANCH  36  37
ENDBRANCH  35  36
ENDBRANCH  22  35
ENDBRANCH   3  22
TORSDOF 14
