MODEL 1344
MODEL 1
REMARK VINA RESULT:    -5.563      0.000      0.000
REMARK INTER + INTRA:         -14.452
REMARK INTER:                  -9.466
REMARK INTRA:                  -4.986
REMARK UNBOUND:                -4.986
REMARK  Name = No_1344-gen_results/8p0m/2024-11-27-11-27-31/
REMARK  12 active torsions:
REMARK  status: ('A' for Active; 'I' for Inactive)
REMARK    1  A    between atoms: C_4  and  C_11
REMARK    2  A    between atoms: C_7  and  O_17
REMARK    3  A    between atoms: C_11  and  C_13
REMARK    4  A    between atoms: C_13  and  C_14
REMARK    5  A    between atoms: C_14  and  O_15
REMARK    6  A    between atoms: O_15  and  C_24
REMARK    7  A    between atoms: O_17  and  C_18
REMARK    8  A    between atoms: C_18  and  C_19
REMARK    9  A    between atoms: C_24  and  C_25
REMARK   10  A    between atoms: C_25  and  O_26
REMARK   11  A    between atoms: O_26  and  C_27
REMARK   12  A    between atoms: C_28  and  C_33
REMARK                            x       y       z     vdW  Elec       q    Type
REMARK                         _______ _______ _______ _____ _____    ______ ____
ROOT
ATOM      1  C   UNL A   1     -29.474 -15.046   9.793  0.00  0.00    +0.033 C 
ATOM      2  C   UNL A   1     -28.933 -16.259   9.386  0.00  0.00    +0.005 C 
ENDROOT
BRANCH   1   6
ATOM      3  C   UNL A   1     -28.379 -10.959   9.128  0.00  0.00    +0.037 A 
ATOM      4  C   UNL A   1     -28.682 -12.115   9.313  0.00  0.00    +0.003 A 
ATOM      5  C   UNL A   1     -29.653 -12.785   8.570  0.00  0.00    -0.004 A 
ATOM      6  C   UNL A   1     -30.092 -14.185   8.734  0.00  0.00    -0.022 A 
ATOM      7  C   UNL A   1     -31.129 -14.834   7.974  0.00  0.00    -0.004 A 
ATOM      8  C   UNL A   1     -31.592 -14.106   6.873  0.00  0.00    -0.000 A 
ATOM      9  C   UNL A   1     -29.210 -10.174   8.154  0.00  0.00    +0.139 A 
ATOM     10  C   UNL A   1     -30.125 -10.772   7.317  0.00  0.00    +0.037 A 
ATOM     11  C   UNL A   1     -30.434 -12.107   7.504  0.00  0.00    +0.003 A 
ATOM     12  C   UNL A   1     -31.346 -12.763   6.678  0.00  0.00    +0.000 A 
BRANCH   9  13
ATOM     13  O   UNL A   1     -28.853  -8.851   7.995  0.00  0.00    -0.466 OA
BRANCH  13  14
ATOM     14  C   UNL A   1     -27.551  -8.515   7.869  0.00  0.00    +0.290 C 
BRANCH  14  15
ATOM     15  C   UNL A   1     -27.291  -8.141   6.400  0.00  0.00    +0.270 C 
ATOM     16  O   UNL A   1     -27.602  -7.121   5.935  0.00  0.00    -0.271 OA
ATOM     17  N   UNL A   1     -26.422  -9.013   5.703  0.00  0.00    -0.273 N 
ATOM     18  C   UNL A   1     -26.009  -8.714   4.351  0.00  0.00    +0.115 C 
ATOM     19  C   UNL A   1     -26.030 -10.355   6.244  0.00  0.00    +0.115 C 
ENDBRANCH  14  15
ENDBRANCH  13  14
ENDBRANCH   9  13
ENDBRANCH   1   6
BRANCH   1  20
ATOM     20  C   UNL A   1     -30.419 -15.372  10.938  0.00  0.00    +0.114 C 
BRANCH  20  21
ATOM     21  C   UNL A   1     -29.880 -14.816  12.201  0.00  0.00    +0.317 C 
ATOM     22  O   UNL A   1     -29.047 -15.435  12.851  0.00  0.00    -0.250 OA
BRANCH  21  23
ATOM     23  O   UNL A   1     -30.583 -13.890  12.635  0.00  0.00    -0.444 OA
BRANCH  23  24
ATOM     24  C   UNL A   1     -29.966 -12.606  12.831  0.00  0.00    +0.256 C 
BRANCH  24  25
ATOM     25  C   UNL A   1     -30.600 -11.482  12.166  0.00  0.00    +0.253 C 
BRANCH  25  26
ATOM     26  O   UNL A   1     -31.501 -11.600  11.482  0.00  0.00    -0.471 OA
BRANCH  26  27
ATOM     27  C   UNL A   1     -32.068 -11.145  10.734  0.00  0.00    +0.139 A 
ATOM     28  C   UNL A   1     -32.961 -11.536   9.903  0.00  0.00    +0.034 A 
ATOM     29  C   UNL A   1     -31.860  -9.576  10.565  0.00  0.00    +0.037 A 
ATOM     30  C   UNL A   1     -32.450  -8.871   9.547  0.00  0.00    +0.003 A 
ATOM     31  C   UNL A   1     -33.630 -10.815   8.839  0.00  0.00    +0.003 A 
ATOM     32  C   UNL A   1     -33.369  -9.451   8.729  0.00  0.00    +0.000 A 
BRANCH  28  33
ATOM     33  C   UNL A   1     -33.359 -12.970  10.047  0.00  0.00    -0.002 C 
ATOM     34  C   UNL A   1     -34.043 -13.488  10.602  0.00  0.00    -0.026 C 
ATOM     35  C   UNL A   1     -34.429 -14.893  10.612  0.00  0.00    +0.031 C 
ENDBRANCH  28  33
ENDBRANCH  26  27
ENDBRANCH  25  26
ENDBRANCH  24  25
ENDBRANCH  23  24
ENDBRANCH  21  23
ENDBRANCH  20  21
ENDBRANCH   1  20
TORSDOF 12
ENDMDL
ENDMDL
