REMARK  Name = No_1345-gen_results/8p0m/2024-11-27-11-27-31/
REMARK  0 active torsions:
REMARK  status: ('A' for Active; 'I' for Inactive)
REMARK                            x       y       z     vdW  Elec       q    Type
REMARK                         _______ _______ _______ _____ _____    ______ ____
ROOT
ATOM      1  C   UNL A   1     -28.016  -0.814  28.878  0.00  0.00    +0.021 A 
ATOM      2  C   UNL A   1     -27.064  -0.119  28.608  0.00  0.00    +0.103 A 
ATOM      3  C   UNL A   1     -26.876   1.133  28.913  0.00  0.00    +0.019 A 
ATOM      4  C   UNL A   1     -27.901   1.807  29.644  0.00  0.00    +0.002 A 
ATOM      5  C   UNL A   1     -28.945   1.039  30.036  0.00  0.00    +0.000 A 
ATOM      6  C   UNL A   1     -29.027  -0.289  29.705  0.00  0.00    +0.002 A 
ATOM      7  C   UNL A   1     -25.696   1.950  28.476  0.00  0.00    +0.002 A 
ATOM      8  C   UNL A   1     -25.089   1.863  27.590  0.00  0.00    +0.003 A 
ATOM      9  C   UNL A   1     -25.184   0.796  26.624  0.00  0.00    +0.039 A 
ATOM     10  C   UNL A   1     -25.948  -0.318  26.922  0.00  0.00    +0.191 A 
ATOM     11  N   UNL A   1     -26.498  -1.449  26.925  0.00  0.00    -0.130 NA
ATOM     12  N   UNL A   1     -26.641  -0.377  28.183  0.00  0.00    -0.147 NA
ATOM     13  N   UNL A   1     -25.524  -0.435  25.577  0.00  0.00    -0.105 NA
ENDROOT
TORSDOF 0
