REMARK  Name = outputs/IAG933/test6/raw/output_1346_IAG933_linker_design_.xyz
REMARK  9 active torsions:
REMARK  status: ('A' for Active; 'I' for Inactive)
REMARK    1  A    between atoms: C_1  and  C_2
REMARK    2  A    between atoms: C_1  and  C_8
REMARK    3  A    between atoms: C_1  and  N_29
REMARK    4  A    between atoms: C_13  and  N_31
REMARK    5  A    between atoms: C_14  and  C_15
REMARK    6  A    between atoms: C_21  and  O_22
REMARK    7  A    between atoms: O_22  and  C_23
REMARK    8  A    between atoms: C_23  and  C_24
REMARK    9  A    between atoms: C_34  and  C_37
REMARK                            x       y       z     vdW  Elec       q    Type
REMARK                         _______ _______ _______ _____ _____    ______ ____
ROOT
ATOM      1  N   UNL A   1     -23.578   1.912  25.424  0.00  0.00    -0.167 NA
ATOM      2  N   UNL A   1     -23.930  -0.193  29.413  0.00  0.00    -0.262 N 
ATOM      3  C   UNL A   1     -24.340   1.011  28.884  0.00  0.00    +0.312 C 
ATOM      4  N   UNL A   1     -24.626   1.295  27.426  0.00  0.00    -0.225 N 
ATOM      5  C   UNL A   1     -22.180   1.443  27.264  0.00  0.00    +0.156 C 
ATOM      6  C   UNL A   1     -21.413  -1.129  29.373  0.00  0.00    +0.022 C 
ATOM      7  C   UNL A   1     -23.492   1.488  26.652  0.00  0.00    +0.185 C 
ATOM      8  C   UNL A   1     -21.736   0.984  28.621  0.00  0.00    +0.084 C 
ATOM      9  C   UNL A   1     -22.436  -0.225  29.607  0.00  0.00    +0.082 C 
ATOM     10  O   UNL A   1     -24.093   2.023  29.683  0.00  0.00    -0.252 OA
ATOM     11  C   UNL A   1     -22.484   2.604  25.271  0.00  0.00    +0.236 C 
ATOM     12  O   UNL A   1     -21.537   2.177  26.500  0.00  0.00    -0.336 OA
ENDROOT
BRANCH   4  13
ATOM     13  C   UNL A   1     -25.688   1.614  26.461  0.00  0.00    +0.095 C 
ATOM     14  C   UNL A   1     -26.250   2.920  26.395  0.00  0.00    +0.090 C 
ATOM     15  C   UNL A   1     -27.438   3.091  25.645  0.00  0.00    +0.108 C 
ATOM     16  N   UNL A   1     -28.075   2.089  25.003  0.00  0.00    -0.208 NA
ATOM     17  C   UNL A   1     -27.543   0.849  25.079  0.00  0.00    +0.255 C 
ATOM     18  C   UNL A   1     -26.354   0.576  25.777  0.00  0.00    +0.207 C 
ATOM     19  F   UNL A   1     -25.860  -0.681  25.795  0.00  0.00    -0.198 F 
BRANCH  14  20
ATOM     20  C   UNL A   1     -25.642   4.093  27.123  0.00  0.00    +0.268 C 
ATOM     21  N   UNL A   1     -25.614   5.252  26.449  0.00  0.00    -0.200 NA
ATOM     22  C   UNL A   1     -25.026   6.479  26.963  0.00  0.00    +0.139 C 
ATOM     23  O   UNL A   1     -25.143   3.966  28.243  0.00  0.00    -0.268 OA
ENDBRANCH  14  20
BRANCH  17  24
ATOM     24  O   UNL A   1     -28.193  -0.208  24.477  0.00  0.00    -0.456 OA
BRANCH  24  25
ATOM     25  C   UNL A   1     -29.460   0.005  23.866  0.00  0.00    +0.243 C 
BRANCH  25  26
ATOM     26  C   UNL A   1     -30.065  -1.377  23.573  0.00  0.00    +0.229 C 
ATOM     27  O   UNL A   1     -30.729  -1.878  24.721  0.00  0.00    -0.216 OA
ENDBRANCH  25  26
ENDBRANCH  24  25
ENDBRANCH  17  24
ENDBRANCH   4  13
BRANCH   8  28
ATOM     28  C   UNL A   1     -20.613   0.936  28.437  0.00  0.00    +0.197 C 
ATOM     29  F   UNL A   1     -19.694   1.836  28.055  0.00  0.00    -0.234 F 
ENDBRANCH   8  28
BRANCH   2  30
ATOM     30  C   UNL A   1     -24.855  -1.012  30.143  0.00  0.00    +0.115 C 
BRANCH  30  31
ATOM     31  C   UNL A   1     -24.973  -2.505  29.788  0.00  0.00    -0.003 C 
ATOM     32  C   UNL A   1     -23.906  -3.173  29.146  0.00  0.00    -0.003 C 
ATOM     33  C   UNL A   1     -23.989  -4.549  28.853  0.00  0.00    -0.000 C 
ATOM     34  C   UNL A   1     -25.137  -5.280  29.205  0.00  0.00    -0.000 C 
ATOM     35  C   UNL A   1     -26.232  -4.611  29.784  0.00  0.00    -0.000 C 
ATOM     36  C   UNL A   1     -26.155  -3.232  30.065  0.00  0.00    -0.003 C 
ENDBRANCH  30  31
BRANCH  30  37
ATOM     37  C   UNL A   1     -25.387  -0.679  31.571  0.00  0.00    +0.095 C 
ATOM     38  C   UNL A   1     -25.189   0.773  32.028  0.00  0.00    +0.021 C 
ATOM     39  C   UNL A   1     -25.336   0.684  33.544  0.00  0.00    +0.020 C 
ATOM     40  C   UNL A   1     -24.829  -0.715  33.905  0.00  0.00    +0.089 C 
ATOM     41  N   UNL A   1     -24.758  -1.481  32.646  0.00  0.00    -0.217 NA
ENDBRANCH  30  37
ENDBRANCH   2  30
TORSDOF 9
