MODEL 1346
MODEL 1
REMARK VINA RESULT:    -4.408      0.000      0.000
REMARK INTER + INTRA:          -5.043
REMARK INTER:                  -4.923
REMARK INTRA:                  -0.120
REMARK UNBOUND:                -0.120
REMARK  Name = No_1346-gen_results/8p0m/2024-11-27-11-27-31/
REMARK  2 active torsions:
REMARK  status: ('A' for Active; 'I' for Inactive)
REMARK    1  A    between atoms: C_2  and  C_4
REMARK    2  A    between atoms: C_5  and  C_6
REMARK                            x       y       z     vdW  Elec       q    Type
REMARK                         _______ _______ _______ _____ _____    ______ ____
ROOT
ATOM      1  C   UNL A   1     -24.813  -3.541  28.889  0.00  0.00    +0.045 C 
ATOM      2  C   UNL A   1     -23.806  -2.582  28.976  0.00  0.00    +0.001 C 
ENDROOT
BRANCH   1   4
ATOM      3  F   UNL A   1     -23.653  -5.206  27.994  0.00  0.00    -0.193 F 
ATOM      4  C   UNL A   1     -24.419  -4.914  28.794  0.00  0.00    +0.341 C 
ATOM      5  F   UNL A   1     -24.865  -5.786  29.448  0.00  0.00    -0.193 F 
ENDBRANCH   1   4
BRANCH   2   6
ATOM      6  C   UNL A   1     -24.117  -1.171  28.805  0.00  0.00    -0.005 C 
ATOM      7  C   UNL A   1     -23.108  -0.230  28.986  0.00  0.00    -0.026 C 
ATOM      8  C   UNL A   1     -21.748  -0.749  29.067  0.00  0.00    +0.031 C 
ENDBRANCH   2   6
TORSDOF 2
ENDMDL
ENDMDL
