REMARK  Name = No_1347-gen_results/8p0m/2024-11-27-11-27-31/
REMARK  1 active torsions:
REMARK  status: ('A' for Active; 'I' for Inactive)
REMARK    1  A    between atoms: C_3  and  C_4
REMARK                            x       y       z     vdW  Elec       q    Type
REMARK                         _______ _______ _______ _____ _____    ______ ____
ROOT
ATOM      1  C   UNL A   1     -26.335   0.290  27.284  0.00  0.00    +0.249 C 
ATOM      2  N   UNL A   1     -25.808   1.453  26.940  0.00  0.00    -0.276 N 
ATOM      3  C   UNL A   1     -24.463   1.455  26.548  0.00  0.00    +0.094 C 
ATOM      4  C   UNL A   1     -23.895   2.838  26.352  0.00  0.00    +0.022 C 
ATOM      5  C   UNL A   1     -26.571   2.566  26.716  0.00  0.00    +0.094 C 
ATOM      6  C   UNL A   1     -26.011   3.874  26.628  0.00  0.00    +0.022 C 
ATOM      7  C   UNL A   1     -24.618   3.956  26.272  0.00  0.00    +0.004 C 
ATOM      8  O   UNL A   1     -26.185  -0.707  26.552  0.00  0.00    -0.270 OA
ENDROOT
BRANCH   1  11
ATOM      9  C   UNL A   1     -28.016  -0.814  28.878  0.00  0.00    +0.004 A 
ATOM     10  C   UNL A   1     -28.469  -0.785  29.829  0.00  0.00    +0.000 A 
ATOM     11  C   UNL A   1     -27.136   0.236  28.535  0.00  0.00    +0.054 A 
ATOM     12  C   UNL A   1     -28.369   0.196  30.924  0.00  0.00    +0.000 A 
ATOM     13  C   UNL A   1     -27.516   1.266  30.654  0.00  0.00    +0.000 A 
ATOM     14  C   UNL A   1     -26.841   1.294  29.476  0.00  0.00    +0.004 A 
ENDBRANCH   1  11
TORSDOF 1
