MODEL 1347
MODEL 1
REMARK VINA RESULT:    -6.830      0.000      0.000
REMARK INTER + INTRA:          -7.187
REMARK INTER:                  -7.230
REMARK INTRA:                   0.043
REMARK UNBOUND:                 0.043
REMARK  Name = No_1347-gen_results/8p0m/2024-11-27-11-27-31/
REMARK  1 active torsions:
REMARK  status: ('A' for Active; 'I' for Inactive)
REMARK    1  A    between atoms: C_3  and  C_4
REMARK                            x       y       z     vdW  Elec       q    Type
REMARK                         _______ _______ _______ _____ _____    ______ ____
ROOT
ATOM      1  C   UNL A   1     -25.123  -1.329  29.033  0.00  0.00    +0.249 C 
ATOM      2  N   UNL A   1     -24.016  -0.655  28.773  0.00  0.00    -0.276 N 
ATOM      3  C   UNL A   1     -24.121   0.433  27.896  0.00  0.00    +0.094 C 
ATOM      4  C   UNL A   1     -22.790   1.028  27.512  0.00  0.00    +0.022 C 
ATOM      5  C   UNL A   1     -22.870  -0.817  29.502  0.00  0.00    +0.094 C 
ATOM      6  C   UNL A   1     -21.607  -0.321  29.065  0.00  0.00    +0.022 C 
ATOM      7  C   UNL A   1     -21.634   0.771  28.126  0.00  0.00    +0.004 C 
ATOM      8  O   UNL A   1     -26.165  -0.725  29.352  0.00  0.00    -0.270 OA
ENDROOT
BRANCH   1  11
ATOM      9  C   UNL A   1     -23.989  -3.547  28.418  0.00  0.00    +0.004 A 
ATOM     10  C   UNL A   1     -24.014  -4.597  28.505  0.00  0.00    +0.000 A 
ATOM     11  C   UNL A   1     -25.060  -2.813  28.974  0.00  0.00    +0.054 A 
ATOM     12  C   UNL A   1     -25.009  -5.498  29.114  0.00  0.00    +0.000 A 
ATOM     13  C   UNL A   1     -26.100  -4.841  29.682  0.00  0.00    +0.000 A 
ATOM     14  C   UNL A   1     -26.135  -3.483  29.671  0.00  0.00    +0.004 A 
ENDBRANCH   1  11
TORSDOF 1
ENDMDL
ENDMDL
