REMARK  Name = outputs/IAG933/test6/raw/output_1349_IAG933_linker_design_.xyz
REMARK  14 active torsions:
REMARK  status: ('A' for Active; 'I' for Inactive)
REMARK    1  A    between atoms: C_1  and  C_2
REMARK    2  A    between atoms: C_1  and  C_8
REMARK    3  A    between atoms: C_1  and  C_37
REMARK    4  A    between atoms: C_13  and  C_35
REMARK    5  A    between atoms: C_14  and  C_15
REMARK    6  A    between atoms: C_21  and  O_22
REMARK    7  A    between atoms: O_22  and  C_23
REMARK    8  A    between atoms: C_23  and  C_24
REMARK    9  A    between atoms: C_29  and  C_36
REMARK   10  A    between atoms: C_29  and  C_45
REMARK   11  A    between atoms: C_33  and  C_37
REMARK   12  A    between atoms: C_35  and  C_36
REMARK   13  A    between atoms: C_36  and  C_37
REMARK   14  A    between atoms: C_42  and  O_43
REMARK                            x       y       z     vdW  Elec       q    Type
REMARK                         _______ _______ _______ _____ _____    ______ ____
ROOT
ATOM      1  C   UNL A   1     -25.399  -0.096  29.009  0.00  0.00    +0.014 C 
ENDROOT
BRANCH   1   5
ATOM      2  O   UNL A   1     -31.368  -3.376  27.562  0.00  0.00    -0.283 OA
ATOM      3  C   UNL A   1     -28.505  -0.683  29.171  0.00  0.00    +0.005 C 
ATOM      4  C   UNL A   1     -28.228   0.591  29.059  0.00  0.00    +0.007 C 
ATOM      5  C   UNL A   1     -27.092  -0.183  28.649  0.00  0.00    +0.002 C 
ATOM      6  C   UNL A   1     -29.214   1.495  29.627  0.00  0.00    +0.057 C 
ATOM      7  C   UNL A   1     -30.932  -1.071  28.376  0.00  0.00    +0.023 C 
ATOM      8  C   UNL A   1     -31.798  -1.956  27.859  0.00  0.00    +0.230 C 
ATOM      9  C   UNL A   1     -29.580  -1.387  28.650  0.00  0.00    +0.030 C 
ATOM     10  C   UNL A   1     -30.506   1.426  29.140  0.00  0.00    +0.116 C 
ATOM     11  C   UNL A   1     -31.273   0.307  28.649  0.00  0.00    +0.031 C 
ATOM     12  C   UNL A   1     -28.824   2.483  30.805  0.00  0.00    +0.008 C 
BRANCH  10  14
ATOM     13  C   UNL A   1     -32.467   3.032  29.340  0.00  0.00    +0.252 C 
ATOM     14  O   UNL A   1     -31.126   2.678  29.018  0.00  0.00    -0.476 OA
ENDBRANCH  10  14
ENDBRANCH   1   5
BRANCH   1  15
ATOM     15  C   UNL A   1     -24.855  -1.012  30.143  0.00  0.00    +0.039 C 
BRANCH  15  16
ATOM     16  C   UNL A   1     -24.973  -2.505  29.788  0.00  0.00    -0.021 C 
ATOM     17  C   UNL A   1     -23.906  -3.173  29.146  0.00  0.00    -0.004 C 
ATOM     18  C   UNL A   1     -23.989  -4.549  28.853  0.00  0.00    -0.000 C 
ATOM     19  C   UNL A   1     -25.137  -5.280  29.205  0.00  0.00    -0.000 C 
ATOM     20  C   UNL A   1     -26.232  -4.611  29.784  0.00  0.00    -0.000 C 
ATOM     21  C   UNL A   1     -26.155  -3.232  30.065  0.00  0.00    -0.004 C 
ENDBRANCH  15  16
BRANCH  15  22
ATOM     22  C   UNL A   1     -25.387  -0.679  31.571  0.00  0.00    +0.077 C 
ATOM     23  C   UNL A   1     -25.189   0.773  32.028  0.00  0.00    +0.019 C 
ATOM     24  C   UNL A   1     -25.336   0.684  33.544  0.00  0.00    +0.020 C 
ATOM     25  C   UNL A   1     -24.829  -0.715  33.905  0.00  0.00    +0.089 C 
ATOM     26  N   UNL A   1     -24.758  -1.481  32.646  0.00  0.00    -0.219 NA
ENDBRANCH  15  22
ENDBRANCH   1  15
BRANCH   1  27
ATOM     27  C   UNL A   1     -24.403   0.794  28.294  0.00  0.00    +0.075 C 
BRANCH  27  28
ATOM     28  C   UNL A   1     -22.891   0.665  28.719  0.00  0.00    +0.215 C 
ATOM     29  O   UNL A   1     -22.481   0.018  29.727  0.00  0.00    -0.282 OA
BRANCH  28  31
ATOM     30  C   UNL A   1     -21.201   1.777  27.103  0.00  0.00    -0.006 C 
ATOM     31  C   UNL A   1     -22.069   1.228  27.886  0.00  0.00    -0.014 C 
ENDBRANCH  28  31
ENDBRANCH  27  28
BRANCH  27  32
ATOM     32  C   UNL A   1     -24.586   1.328  27.073  0.00  0.00    +0.037 C 
BRANCH  32  33
ATOM     33  C   UNL A   1     -25.688   1.614  26.461  0.00  0.00    +0.016 C 
ATOM     34  C   UNL A   1     -26.250   2.920  26.395  0.00  0.00    +0.073 C 
ATOM     35  C   UNL A   1     -27.438   3.091  25.645  0.00  0.00    +0.106 C 
ATOM     36  N   UNL A   1     -28.075   2.089  25.003  0.00  0.00    -0.208 NA
ATOM     37  C   UNL A   1     -27.543   0.849  25.079  0.00  0.00    +0.253 C 
ATOM     38  C   UNL A   1     -26.354   0.576  25.777  0.00  0.00    +0.189 C 
ATOM     39  F   UNL A   1     -25.860  -0.681  25.795  0.00  0.00    -0.200 F 
BRANCH  34  40
ATOM     40  C   UNL A   1     -25.642   4.093  27.123  0.00  0.00    +0.266 C 
ATOM     41  N   UNL A   1     -25.614   5.252  26.449  0.00  0.00    -0.200 NA
ATOM     42  C   UNL A   1     -25.026   6.479  26.963  0.00  0.00    +0.139 C 
ATOM     43  O   UNL A   1     -25.143   3.966  28.243  0.00  0.00    -0.268 OA
ENDBRANCH  34  40
BRANCH  37  44
ATOM     44  O   UNL A   1     -28.193  -0.208  24.477  0.00  0.00    -0.456 OA
BRANCH  44  45
ATOM     45  C   UNL A   1     -29.460   0.005  23.866  0.00  0.00    +0.243 C 
BRANCH  45  46
ATOM     46  C   UNL A   1     -30.065  -1.377  23.573  0.00  0.00    +0.229 C 
ATOM     47  O   UNL A   1     -30.729  -1.878  24.721  0.00  0.00    -0.216 OA
ENDBRANCH  45  46
ENDBRANCH  44  45
ENDBRANCH  37  44
ENDBRANCH  32  33
ENDBRANCH  27  32
ENDBRANCH   1  27
TORSDOF 14
