MODEL 1349
MODEL 1
REMARK VINA RESULT:    -8.050      0.000      0.000
REMARK INTER + INTRA:         -13.107
REMARK INTER:                 -11.344
REMARK INTRA:                  -1.763
REMARK UNBOUND:                -1.763
REMARK  Name = No_1349-gen_results/8p0m/2024-11-27-11-27-31/
REMARK  7 active torsions:
REMARK  status: ('A' for Active; 'I' for Inactive)
REMARK    1  A    between atoms: C_2  and  C_7
REMARK    2  A    between atoms: C_4  and  C_10
REMARK    3  A    between atoms: C_7  and  O_8
REMARK    4  A    between atoms: O_8  and  C_26
REMARK    5  A    between atoms: C_13  and  C_16
REMARK    6  A    between atoms: N_17  and  C_18
REMARK    7  A    between atoms: C_26  and  C_27
REMARK                            x       y       z     vdW  Elec       q    Type
REMARK                         _______ _______ _______ _____ _____    ______ ____
ROOT
ATOM      1  C   UNL A   1     -27.150 -18.598   6.860  0.00  0.00    +0.006 A 
ATOM      2  C   UNL A   1     -26.290 -17.989   6.887  0.00  0.00    +0.076 A 
ATOM      3  C   UNL A   1     -28.368 -18.033   7.555  0.00  0.00    +0.000 A 
ATOM      4  C   UNL A   1     -28.330 -16.713   8.053  0.00  0.00    +0.000 A 
ATOM      5  C   UNL A   1     -26.070 -16.749   7.310  0.00  0.00    +0.006 A 
ATOM      6  C   UNL A   1     -27.101 -16.085   7.946  0.00  0.00    +0.000 A 
ENDROOT
BRANCH   4   7
ATOM      7  C   UNL A   1     -29.463 -16.149   8.740  0.00  0.00    +0.000 A 
ATOM      8  C   UNL A   1     -30.496 -16.047   8.418  0.00  0.00    +0.000 A 
ATOM      9  C   UNL A   1     -29.166 -15.593  10.104  0.00  0.00    +0.005 A 
ATOM     10  C   UNL A   1     -30.228 -15.056  10.858  0.00  0.00    +0.055 A 
ATOM     11  C   UNL A   1     -31.681 -15.439   8.994  0.00  0.00    +0.000 A 
ATOM     12  C   UNL A   1     -31.441 -15.017  10.343  0.00  0.00    +0.005 A 
BRANCH  10  13
ATOM     13  C   UNL A   1     -29.933 -14.574  12.220  0.00  0.00    +0.269 C 
ATOM     14  N   UNL A   1     -29.523 -13.311  12.467  0.00  0.00    -0.175 NA
ATOM     15  O   UNL A   1     -29.922 -15.481  13.146  0.00  0.00    -0.268 OA
BRANCH  14  16
ATOM     16  C   UNL A   1     -29.705 -12.261  11.854  0.00  0.00    +0.074 A 
ATOM     17  C   UNL A   1     -29.070 -11.892  10.772  0.00  0.00    +0.018 A 
ATOM     18  C   UNL A   1     -29.323 -10.725   9.970  0.00  0.00    +0.013 A 
ATOM     19  C   UNL A   1     -30.508 -10.063  10.247  0.00  0.00    +0.058 A 
ATOM     20  C   UNL A   1     -31.332 -10.537  11.220  0.00  0.00    +0.013 A 
ATOM     21  C   UNL A   1     -31.004 -11.630  12.064  0.00  0.00    +0.018 A 
ATOM     22 CL   UNL A   1     -30.940  -8.730   9.283  0.00  0.00    -0.082 Cl
ENDBRANCH  14  16
ENDBRANCH  10  13
ENDBRANCH   4   7
BRANCH   2  23
ATOM     23  C   UNL A   1     -25.021 -18.609   6.130  0.00  0.00    +0.342 C 
ATOM     24  O   UNL A   1     -25.117 -18.979   4.991  0.00  0.00    -0.245 OA
BRANCH  23  25
ATOM     25  O   UNL A   1     -23.909 -18.766   6.874  0.00  0.00    -0.440 OA
BRANCH  25  26
ATOM     26  C   UNL A   1     -23.350 -19.928   6.986  0.00  0.00    +0.245 C 
ATOM     27  C   UNL A   1     -24.336 -20.785   7.940  0.00  0.00    +0.058 C 
BRANCH  26  28
ATOM     28  C   UNL A   1     -22.117 -19.976   7.322  0.00  0.00    +0.266 C 
ATOM     29  O   UNL A   1     -21.731 -19.545   8.314  0.00  0.00    -0.271 OA
ATOM     30  N   UNL A   1     -21.242 -20.796   6.603  0.00  0.00    -0.277 N 
ATOM     31  C   UNL A   1     -19.825 -20.893   6.872  0.00  0.00    +0.093 C 
ATOM     32  C   UNL A   1     -19.154 -21.398   5.995  0.00  0.00    +0.022 C 
ATOM     33  C   UNL A   1     -19.659 -21.828   4.760  0.00  0.00    +0.004 C 
ATOM     34  C   UNL A   1     -21.033 -21.704   4.498  0.00  0.00    +0.022 C 
ATOM     35  C   UNL A   1     -21.803 -21.104   5.354  0.00  0.00    +0.093 C 
ENDBRANCH  26  28
ENDBRANCH  25  26
ENDBRANCH  23  25
ENDBRANCH   2  23
TORSDOF 7
ENDMDL
ENDMDL
