MODEL 134
MODEL 1
REMARK VINA RESULT:    -7.329      0.000      0.000
REMARK INTER + INTRA:          -9.732
REMARK INTER:                  -9.043
REMARK INTRA:                  -0.688
REMARK UNBOUND:                -0.688
REMARK  Name = No_134-gen_results/8p0m/2024-11-27-11-27-31/
REMARK  4 active torsions:
REMARK  status: ('A' for Active; 'I' for Inactive)
REMARK    1  A    between atoms: C_3  and  C_11
REMARK    2  A    between atoms: C_6  and  C_7
REMARK    3  A    between atoms: N_9  and  C_10
REMARK    4  A    between atoms: C_10  and  C_17
REMARK                            x       y       z     vdW  Elec       q    Type
REMARK                         _______ _______ _______ _____ _____    ______ ____
ROOT
ATOM      1  C   UNL A   1      -6.761  -1.837  34.523  0.00  0.00    +0.005 A 
ATOM      2  C   UNL A   1      -5.608  -2.155  34.346  0.00  0.00    +0.000 A 
ATOM      3  C   UNL A   1      -4.530  -1.294  34.553  0.00  0.00    +0.000 A 
ATOM      4  C   UNL A   1      -4.788   0.078  34.947  0.00  0.00    +0.000 A 
ATOM      5  C   UNL A   1      -6.157   0.378  35.125  0.00  0.00    +0.005 A 
ATOM      6  C   UNL A   1      -7.103  -0.498  34.900  0.00  0.00    +0.055 A 
ENDROOT
BRANCH   3   7
ATOM      7  C   UNL A   1      -3.073  -1.671  34.409  0.00  0.00    +0.000 A 
ATOM      8  C   UNL A   1      -2.182  -1.382  35.373  0.00  0.00    +0.000 A 
ATOM      9  C   UNL A   1      -0.798  -1.720  35.149  0.00  0.00    +0.000 A 
ATOM     10  C   UNL A   1      -0.326  -2.245  33.971  0.00  0.00    +0.000 A 
ATOM     11  C   UNL A   1      -2.594  -2.190  33.164  0.00  0.00    +0.000 A 
ATOM     12  C   UNL A   1      -1.226  -2.486  32.957  0.00  0.00    +0.000 A 
ENDBRANCH   3   7
BRANCH   6  13
ATOM     13  C   UNL A   1      -8.497  -0.005  35.065  0.00  0.00    +0.265 C 
ATOM     14  O   UNL A   1      -8.959   0.679  34.337  0.00  0.00    -0.268 OA
ATOM     15  N   UNL A   1      -9.052  -0.248  36.330  0.00  0.00    -0.197 NA
BRANCH  15  16
ATOM     16  C   UNL A   1     -10.424   0.177  36.639  0.00  0.00    +0.142 C 
BRANCH  16  17
ATOM     17  C   UNL A   1     -11.017  -0.462  37.442  0.00  0.00    -0.001 A 
ATOM     18  C   UNL A   1     -11.145  -1.868  37.331  0.00  0.00    -0.003 A 
ATOM     19  C   UNL A   1     -11.878  -2.663  38.274  0.00  0.00    -0.000 A 
ATOM     20  C   UNL A   1     -12.205  -2.092  39.519  0.00  0.00    -0.000 A 
ATOM     21  C   UNL A   1     -11.855  -0.710  39.768  0.00  0.00    -0.000 A 
ATOM     22  C   UNL A   1     -11.412   0.057  38.838  0.00  0.00    -0.003 A 
ENDBRANCH  16  17
ENDBRANCH  15  16
ENDBRANCH   6  13
TORSDOF 4
ENDMDL
ENDMDL
