REMARK  Name = outputs/IAG933/test6/raw/output_1350_IAG933_linker_design_.xyz
REMARK  10 active torsions:
REMARK  status: ('A' for Active; 'I' for Inactive)
REMARK    1  A    between atoms: C_1  and  C_2
REMARK    2  A    between atoms: C_1  and  C_8
REMARK    3  A    between atoms: C_1  and  C_38
REMARK    4  A    between atoms: C_13  and  N_36
REMARK    5  A    between atoms: C_14  and  C_15
REMARK    6  A    between atoms: C_21  and  O_22
REMARK    7  A    between atoms: O_22  and  C_23
REMARK    8  A    between atoms: C_23  and  C_24
REMARK    9  A    between atoms: C_28  and  N_36
REMARK   10  A    between atoms: C_34  and  N_36
REMARK                            x       y       z     vdW  Elec       q    Type
REMARK                         _______ _______ _______ _____ _____    ______ ____
ROOT
ATOM      1  C   UNL A   1     -24.349  -0.044  28.168  0.00  0.00    +0.207 C 
ATOM      2  F   UNL A   1     -20.235   0.721  28.571  0.00  0.00    -0.203 F 
ATOM      3  C   UNL A   1     -22.248   1.268  27.678  0.00  0.00    +0.049 C 
ATOM      4  C   UNL A   1     -23.625   0.984  27.503  0.00  0.00    +0.093 C 
ATOM      5  C   UNL A   1     -21.530   0.489  28.518  0.00  0.00    +0.158 C 
ATOM      6  O   UNL A   1     -25.396  -0.779  27.692  0.00  0.00    -0.285 OA
ATOM      7  C   UNL A   1     -23.790  -0.443  29.331  0.00  0.00    +0.042 C 
ATOM      8  C   UNL A   1     -22.298  -0.367  29.296  0.00  0.00    +0.116 C 
ATOM      9  N   UNL A   1     -21.411  -1.199  29.661  0.00  0.00    -0.126 NA
ENDROOT
BRANCH   7  10
ATOM     10  C   UNL A   1     -24.855  -1.012  30.143  0.00  0.00    +0.065 C 
BRANCH  10  11
ATOM     11  C   UNL A   1     -24.973  -2.505  29.788  0.00  0.00    -0.017 C 
ATOM     12  C   UNL A   1     -23.906  -3.173  29.146  0.00  0.00    -0.004 C 
ATOM     13  C   UNL A   1     -23.989  -4.549  28.853  0.00  0.00    -0.000 C 
ATOM     14  C   UNL A   1     -25.137  -5.280  29.205  0.00  0.00    -0.000 C 
ATOM     15  C   UNL A   1     -26.232  -4.611  29.784  0.00  0.00    -0.000 C 
ATOM     16  C   UNL A   1     -26.155  -3.232  30.065  0.00  0.00    -0.004 C 
ENDBRANCH  10  11
BRANCH  10  17
ATOM     17  C   UNL A   1     -25.387  -0.679  31.571  0.00  0.00    +0.081 C 
ATOM     18  C   UNL A   1     -25.189   0.773  32.028  0.00  0.00    +0.019 C 
ATOM     19  C   UNL A   1     -25.336   0.684  33.544  0.00  0.00    +0.020 C 
ATOM     20  C   UNL A   1     -24.829  -0.715  33.905  0.00  0.00    +0.089 C 
ATOM     21  N   UNL A   1     -24.758  -1.481  32.646  0.00  0.00    -0.219 NA
ENDBRANCH  10  17
ENDBRANCH   7  10
BRANCH   4  22
ATOM     22  N   UNL A   1     -24.228   1.573  26.453  0.00  0.00    -0.246 N 
BRANCH  22  23
ATOM     23  C   UNL A   1     -25.688   1.614  26.461  0.00  0.00    +0.148 C 
ATOM     24  C   UNL A   1     -26.250   2.920  26.395  0.00  0.00    +0.073 C 
ATOM     25  C   UNL A   1     -27.438   3.091  25.645  0.00  0.00    +0.104 C 
ATOM     26  N   UNL A   1     -28.075   2.089  25.003  0.00  0.00    -0.212 NA
ATOM     27  C   UNL A   1     -27.543   0.849  25.079  0.00  0.00    +0.236 C 
ATOM     28  C   UNL A   1     -26.354   0.576  25.777  0.00  0.00    +0.258 C 
ATOM     29  F   UNL A   1     -25.860  -0.681  25.795  0.00  0.00    -0.225 F 
BRANCH  24  30
ATOM     30  C   UNL A   1     -25.642   4.093  27.123  0.00  0.00    +0.264 C 
ATOM     31  N   UNL A   1     -25.614   5.252  26.449  0.00  0.00    -0.200 NA
ATOM     32  C   UNL A   1     -25.026   6.479  26.963  0.00  0.00    +0.139 C 
ATOM     33  O   UNL A   1     -25.143   3.966  28.243  0.00  0.00    -0.269 OA
ENDBRANCH  24  30
BRANCH  27  34
ATOM     34  O   UNL A   1     -28.193  -0.208  24.477  0.00  0.00    -0.459 OA
BRANCH  34  35
ATOM     35  C   UNL A   1     -29.460   0.005  23.866  0.00  0.00    +0.242 C 
BRANCH  35  36
ATOM     36  C   UNL A   1     -30.065  -1.377  23.573  0.00  0.00    +0.229 C 
ATOM     37  O   UNL A   1     -30.729  -1.878  24.721  0.00  0.00    -0.216 OA
ENDBRANCH  35  36
ENDBRANCH  34  35
ENDBRANCH  27  34
ENDBRANCH  22  23
BRANCH  22  38
ATOM     38  C   UNL A   1     -23.298   1.835  25.486  0.00  0.00    +0.402 C 
ATOM     39  F   UNL A   1     -23.414   1.159  24.439  0.00  0.00    -0.175 F 
ATOM     40  F   UNL A   1     -22.247   2.666  25.453  0.00  0.00    -0.175 F 
ENDBRANCH  22  38
ENDBRANCH   4  22
TORSDOF 10
