MODEL 1350
MODEL 1
REMARK VINA RESULT:    -6.567      0.000      0.000
REMARK INTER + INTRA:         -12.255
REMARK INTER:                  -8.871
REMARK INTRA:                  -3.384
REMARK UNBOUND:                -3.384
REMARK  Name = No_1350-gen_results/8p0m/2024-11-27-11-27-31/
REMARK  6 active torsions:
REMARK  status: ('A' for Active; 'I' for Inactive)
REMARK    1  A    between atoms: C_2  and  C_8
REMARK    2  A    between atoms: C_3  and  O_11
REMARK    3  A    between atoms: O_11  and  C_12
REMARK    4  A    between atoms: C_12  and  C_13
REMARK    5  A    between atoms: C_14  and  C_19
REMARK    6  A    between atoms: C_19  and  C_21
REMARK                            x       y       z     vdW  Elec       q    Type
REMARK                         _______ _______ _______ _____ _____    ______ ____
ROOT
ATOM      1  C   UNL A   1     -24.426  -1.878  29.549  0.00  0.00    +0.013 A 
ATOM      2  C   UNL A   1     -25.457  -1.998  29.845  0.00  0.00    -0.019 A 
ATOM      3  C   UNL A   1     -26.304  -3.304  29.900  0.00  0.00    -0.004 A 
ATOM      4  C   UNL A   1     -25.532  -4.419  29.404  0.00  0.00    -0.000 A 
ATOM      5  C   UNL A   1     -24.362  -4.235  28.780  0.00  0.00    -0.000 A 
ATOM      6  C   UNL A   1     -23.818  -3.064  28.872  0.00  0.00    -0.001 A 
ENDROOT
BRANCH   1   7
ATOM      7  C   UNL A   1     -23.666  -0.757  29.516  0.00  0.00    +0.188 C 
ATOM      8  C   UNL A   1     -22.501  -0.752  30.549  0.00  0.00    +0.052 C 
BRANCH   7   9
ATOM      9  O   UNL A   1     -23.148  -0.512  28.291  0.00  0.00    -0.472 OA
BRANCH   9  12
ATOM     10  C   UNL A   1     -24.898   0.190  26.619  0.00  0.00    +0.046 A 
ATOM     11  C   UNL A   1     -25.268   1.008  26.066  0.00  0.00    +0.083 A 
ATOM     12  C   UNL A   1     -23.737   0.498  27.538  0.00  0.00    +0.166 A 
ATOM     13  C   UNL A   1     -23.267   1.609  27.545  0.00  0.00    +0.174 A 
ATOM     14  C   UNL A   1     -24.920   2.429  25.975  0.00  0.00    +0.009 A 
ATOM     15  C   UNL A   1     -23.823   2.703  26.778  0.00  0.00    +0.033 A 
ATOM     16  F   UNL A   1     -22.201   1.956  28.298  0.00  0.00    -0.201 F 
BRANCH  11  17
ATOM     17  C   UNL A   1     -26.567   0.752  25.108  0.00  0.00    +0.388 C 
ATOM     18  O   UNL A   1     -26.649  -0.418  24.423  0.00  0.00    -0.241 OA
ATOM     19  O   UNL A   1     -27.232   1.700  24.777  0.00  0.00    -0.241 OA
ENDBRANCH  11  17
ENDBRANCH   9  12
ENDBRANCH   7   9
ENDBRANCH   1   7
BRANCH   2  20
ATOM     20  C   UNL A   1     -26.312  -0.884  30.555  0.00  0.00    +0.044 C 
ATOM     21  C   UNL A   1     -26.240  -0.806  31.872  0.00  0.00    +0.009 C 
BRANCH  20  22
ATOM     22  C   UNL A   1     -26.842   0.200  29.738  0.00  0.00    -0.018 A 
ATOM     23  C   UNL A   1     -26.375   1.383  29.979  0.00  0.00    -0.004 A 
ATOM     24  C   UNL A   1     -26.981   2.460  29.287  0.00  0.00    -0.000 A 
ATOM     25  C   UNL A   1     -27.930   2.213  28.300  0.00  0.00    -0.000 A 
ATOM     26  C   UNL A   1     -28.491   0.966  28.143  0.00  0.00    -0.000 A 
ATOM     27  C   UNL A   1     -27.940  -0.051  28.898  0.00  0.00    -0.004 A 
ENDBRANCH  20  22
ENDBRANCH   2  20
TORSDOF 6
ENDMDL
ENDMDL
