REMARK  Name = outputs/IAG933/test6/raw/output_1351_IAG933_linker_design_.xyz
REMARK  10 active torsions:
REMARK  status: ('A' for Active; 'I' for Inactive)
REMARK    1  A    between atoms: C_1  and  C_2
REMARK    2  A    between atoms: C_1  and  C_8
REMARK    3  A    between atoms: C_1  and  N_31
REMARK    4  A    between atoms: C_13  and  C_28
REMARK    5  A    between atoms: C_14  and  C_15
REMARK    6  A    between atoms: C_21  and  O_22
REMARK    7  A    between atoms: O_22  and  C_23
REMARK    8  A    between atoms: C_23  and  C_24
REMARK    9  A    between atoms: N_34  and  C_45
REMARK   10  A    between atoms: C_36  and  O_47
REMARK                            x       y       z     vdW  Elec       q    Type
REMARK                         _______ _______ _______ _____ _____    ______ ____
ROOT
ATOM      1  C   UNL A   1     -24.555   1.125  27.235  0.00  0.00    +0.117 C 
ATOM      2  N   UNL A   1     -24.271  -0.145  29.134  0.00  0.00    -0.186 N 
ATOM      3  C   UNL A   1     -22.318   0.919  28.100  0.00  0.00    +0.061 C 
ATOM      4  C   UNL A   1     -22.900   0.083  29.069  0.00  0.00    +0.233 C 
ATOM      5  C   UNL A   1     -23.185   1.435  27.098  0.00  0.00    +0.145 C 
ATOM      6  C   UNL A   1     -25.122   0.362  28.307  0.00  0.00    +0.321 C 
ENDROOT
BRANCH   6   9
ATOM      7  O   UNL A   1     -32.049  -0.838  32.153  0.00  0.00    -0.156 OA
ATOM      8  C   UNL A   1     -29.716   0.628  30.612  0.00  0.00    +0.245 C 
ATOM      9  N   UNL A   1     -26.578   0.078  28.478  0.00  0.00    +0.029 NA
ATOM     10  C   UNL A   1     -28.984  -0.067  28.247  0.00  0.00    +0.121 C 
ATOM     11  C   UNL A   1     -30.014   1.442  31.653  0.00  0.00    +0.156 C 
ATOM     12  C   UNL A   1     -31.372   0.332  28.476  0.00  0.00    +0.018 C 
ATOM     13  C   UNL A   1     -30.149  -0.054  27.567  0.00  0.00    +0.014 C 
ATOM     14  N   UNL A   1     -31.338   1.440  31.930  0.00  0.00    -0.150 NA
ATOM     15  S   UNL A   1     -32.243   0.174  31.228  0.00  0.00    -0.005 S 
ATOM     16  C   UNL A   1     -33.699  -0.297  30.337  0.00  0.00    +0.097 C 
ATOM     17  N   UNL A   1     -28.408   0.178  30.256  0.00  0.00    -0.068 NA
ATOM     18  C   UNL A   1     -30.986   0.274  30.015  0.00  0.00    +0.122 C 
ATOM     19  C   UNL A   1     -27.926   0.051  29.010  0.00  0.00    +0.340 C 
ENDBRANCH   6   9
BRANCH   1  20
ATOM     20  C   UNL A   1     -25.688   1.614  26.461  0.00  0.00    +0.048 C 
ATOM     21  C   UNL A   1     -26.250   2.920  26.395  0.00  0.00    +0.077 C 
ATOM     22  C   UNL A   1     -27.438   3.091  25.645  0.00  0.00    +0.107 C 
ATOM     23  N   UNL A   1     -28.075   2.089  25.003  0.00  0.00    -0.208 NA
ATOM     24  C   UNL A   1     -27.543   0.849  25.079  0.00  0.00    +0.253 C 
ATOM     25  C   UNL A   1     -26.354   0.576  25.777  0.00  0.00    +0.193 C 
ATOM     26  F   UNL A   1     -25.860  -0.681  25.795  0.00  0.00    -0.199 F 
BRANCH  21  27
ATOM     27  C   UNL A   1     -25.642   4.093  27.123  0.00  0.00    +0.266 C 
ATOM     28  N   UNL A   1     -25.614   5.252  26.449  0.00  0.00    -0.200 NA
ATOM     29  C   UNL A   1     -25.026   6.479  26.963  0.00  0.00    +0.139 C 
ATOM     30  O   UNL A   1     -25.143   3.966  28.243  0.00  0.00    -0.268 OA
ENDBRANCH  21  27
BRANCH  24  31
ATOM     31  O   UNL A   1     -28.193  -0.208  24.477  0.00  0.00    -0.456 OA
BRANCH  31  32
ATOM     32  C   UNL A   1     -29.460   0.005  23.866  0.00  0.00    +0.243 C 
BRANCH  32  33
ATOM     33  C   UNL A   1     -30.065  -1.377  23.573  0.00  0.00    +0.229 C 
ATOM     34  O   UNL A   1     -30.729  -1.878  24.721  0.00  0.00    -0.216 OA
ENDBRANCH  32  33
ENDBRANCH  31  32
ENDBRANCH  24  31
ENDBRANCH   1  20
BRANCH   5  36
ATOM     35  C   UNL A   1     -23.406   3.044  25.107  0.00  0.00    +0.253 C 
ATOM     36  O   UNL A   1     -22.619   2.250  26.048  0.00  0.00    -0.471 OA
ENDBRANCH   5  36
BRANCH   2  37
ATOM     37  C   UNL A   1     -24.855  -1.012  30.143  0.00  0.00    +0.199 C 
BRANCH  37  38
ATOM     38  C   UNL A   1     -24.973  -2.505  29.788  0.00  0.00    +0.021 C 
ATOM     39  C   UNL A   1     -23.906  -3.173  29.146  0.00  0.00    -0.000 C 
ATOM     40  C   UNL A   1     -23.989  -4.549  28.853  0.00  0.00    -0.000 C 
ATOM     41  C   UNL A   1     -25.137  -5.280  29.205  0.00  0.00    -0.000 C 
ATOM     42  C   UNL A   1     -26.232  -4.611  29.784  0.00  0.00    -0.000 C 
ATOM     43  C   UNL A   1     -26.155  -3.232  30.065  0.00  0.00    -0.000 C 
ENDBRANCH  37  38
BRANCH  37  44
ATOM     44  C   UNL A   1     -25.387  -0.679  31.571  0.00  0.00    +0.120 C 
ATOM     45  C   UNL A   1     -25.189   0.773  32.028  0.00  0.00    +0.023 C 
ATOM     46  C   UNL A   1     -25.336   0.684  33.544  0.00  0.00    +0.020 C 
ATOM     47  C   UNL A   1     -24.829  -0.715  33.905  0.00  0.00    +0.089 C 
ATOM     48  N   UNL A   1     -24.758  -1.481  32.646  0.00  0.00    -0.215 NA
ENDBRANCH  37  44
ENDBRANCH   2  37
TORSDOF 10
