MODEL 1352
MODEL 1
REMARK VINA RESULT:    -6.355      0.000      0.000
REMARK INTER + INTRA:         -10.279
REMARK INTER:                  -8.212
REMARK INTRA:                  -2.067
REMARK UNBOUND:                -2.067
REMARK  Name = No_1352-gen_results/8p0m/2024-11-27-11-27-31/
REMARK  5 active torsions:
REMARK  status: ('A' for Active; 'I' for Inactive)
REMARK    1  A    between atoms: C_2  and  C_3
REMARK    2  A    between atoms: N_4  and  C_10
REMARK    3  A    between atoms: N_4  and  C_17
REMARK    4  A    between atoms: C_5  and  N_18
REMARK    5  A    between atoms: C_9  and  C_16
REMARK                            x       y       z     vdW  Elec       q    Type
REMARK                         _______ _______ _______ _____ _____    ______ ____
ROOT
ATOM      1  O   UNL A   1     -12.544   1.807  37.881  0.00  0.00    -0.269 OA
ATOM      2  C   UNL A   1     -11.428   1.975  37.648  0.00  0.00    +0.257 C 
ATOM      3  N   UNL A   1     -10.414   0.906  37.708  0.00  0.00    -0.234 N 
ENDROOT
BRANCH   3   4
ATOM      4  C   UNL A   1      -9.056   0.950  37.399  0.00  0.00    +0.062 A 
ATOM      5  C   UNL A   1      -8.311   1.225  38.334  0.00  0.00    +0.015 A 
ATOM      6  C   UNL A   1      -6.841   1.311  38.123  0.00  0.00    +0.005 A 
ATOM      7  C   UNL A   1      -6.347   1.026  36.804  0.00  0.00    +0.042 A 
ATOM      8  C   UNL A   1      -7.269   0.656  35.838  0.00  0.00    +0.197 A 
ATOM      9  C   UNL A   1      -8.625   0.601  36.099  0.00  0.00    +0.057 A 
ATOM     10  O   UNL A   1      -6.802   0.391  34.618  0.00  0.00    -0.286 OA
ENDBRANCH   3   4
BRANCH   2  11
ATOM     11  C   UNL A   1     -10.969   3.178  37.150  0.00  0.00    +0.064 A 
ATOM     12  C   UNL A   1     -11.250   3.643  35.839  0.00  0.00    +0.052 A 
ATOM     13  C   UNL A   1     -10.727   4.879  35.380  0.00  0.00    +0.015 A 
ATOM     14  C   UNL A   1     -10.252   5.810  36.295  0.00  0.00    +0.001 A 
ATOM     15  C   UNL A   1     -10.214   5.454  37.637  0.00  0.00    -0.004 A 
ATOM     16  C   UNL A   1     -10.545   4.216  38.099  0.00  0.00    -0.017 A 
BRANCH  12  17
ATOM     17  N   UNL A   1     -11.676   2.754  34.908  0.00  0.00    -0.307 N 
ATOM     18  C   UNL A   1     -11.117   2.082  34.379  0.00  0.00    +0.091 C 
ATOM     19  C   UNL A   1     -11.625   1.170  33.314  0.00  0.00    +0.021 C 
ATOM     20  C   UNL A   1     -13.093   2.816  34.566  0.00  0.00    +0.091 C 
ATOM     21  C   UNL A   1     -13.718   2.163  33.617  0.00  0.00    +0.021 C 
ATOM     22  C   UNL A   1     -12.923   1.170  33.041  0.00  0.00    +0.004 C 
ENDBRANCH  12  17
BRANCH  16  23
ATOM     23  C   UNL A   1     -10.420   3.935  39.515  0.00  0.00    +0.022 C 
ATOM     24  C   UNL A   1     -11.425   4.310  40.401  0.00  0.00    +0.005 C 
ATOM     25  C   UNL A   1      -9.095   4.399  40.042  0.00  0.00    +0.005 C 
ENDBRANCH  16  23
ENDBRANCH   2  11
BRANCH   3  26
ATOM     26  C   UNL A   1     -11.000  -0.381  38.160  0.00  0.00    +0.058 A 
ATOM     27  C   UNL A   1     -11.164  -1.430  37.412  0.00  0.00    +0.015 A 
ATOM     28  C   UNL A   1     -11.709  -2.589  37.808  0.00  0.00    +0.001 A 
ATOM     29  C   UNL A   1     -12.243  -2.679  39.086  0.00  0.00    +0.000 A 
ATOM     30  C   UNL A   1     -11.329  -0.438  39.535  0.00  0.00    +0.015 A 
ATOM     31  C   UNL A   1     -11.929  -1.615  39.990  0.00  0.00    +0.001 A 
ENDBRANCH   3  26
TORSDOF 5
ENDMDL
ENDMDL
