MODEL 1353
MODEL 1
REMARK VINA RESULT:    -6.499      0.000      0.000
REMARK INTER + INTRA:          -7.695
REMARK INTER:                  -7.259
REMARK INTRA:                  -0.437
REMARK UNBOUND:                -0.437
REMARK  Name = No_1353-gen_results/8p0m/2024-11-27-11-27-31/
REMARK  2 active torsions:
REMARK  status: ('A' for Active; 'I' for Inactive)
REMARK    1  A    between atoms: C_3  and  O_9
REMARK    2  A    between atoms: O_9  and  C_10
REMARK                            x       y       z     vdW  Elec       q    Type
REMARK                         _______ _______ _______ _____ _____    ______ ____
ROOT
ATOM      1  C   UNL A   1     -23.802  -3.455  29.040  0.00  0.00    +0.069 A 
ATOM      2  C   UNL A   1     -24.528  -4.198  28.865  0.00  0.00    +0.143 A 
ATOM      3  C   UNL A   1     -24.266  -2.275  29.865  0.00  0.00    +0.175 A 
ATOM      4  C   UNL A   1     -25.547  -2.304  30.454  0.00  0.00    +0.174 A 
ATOM      5  C   UNL A   1     -25.888  -4.482  29.377  0.00  0.00    +0.032 A 
ATOM      6  C   UNL A   1     -26.346  -3.421  30.146  0.00  0.00    +0.035 A 
ATOM      7  F   UNL A   1     -24.074  -5.335  28.084  0.00  0.00    -0.204 F 
ATOM      8  F   UNL A   1     -26.090  -1.463  31.232  0.00  0.00    -0.201 F 
ENDROOT
BRANCH   3   9
ATOM      9  O   UNL A   1     -23.542  -1.168  30.206  0.00  0.00    -0.451 OA
BRANCH   9  10
ATOM     10  C   UNL A   1     -22.981  -0.403  29.175  0.00  0.00    +0.145 A 
ATOM     11  C   UNL A   1     -21.573  -0.418  29.116  0.00  0.00    +0.037 A 
ATOM     12  C   UNL A   1     -23.783   0.449  28.439  0.00  0.00    +0.037 A 
ATOM     13  C   UNL A   1     -23.160   1.362  27.578  0.00  0.00    +0.003 A 
ATOM     14  C   UNL A   1     -20.982   0.486  28.256  0.00  0.00    +0.003 A 
ATOM     15  C   UNL A   1     -21.801   1.399  27.472  0.00  0.00    +0.000 A 
ENDBRANCH   9  10
ENDBRANCH   3   9
TORSDOF 2
ENDMDL
ENDMDL
