REMARK  Name = outputs/IAG933/test6/raw/output_1353_IAG933_linker_design_.xyz
REMARK  11 active torsions:
REMARK  status: ('A' for Active; 'I' for Inactive)
REMARK    1  A    between atoms: C_1  and  C_2
REMARK    2  A    between atoms: C_1  and  C_8
REMARK    3  A    between atoms: C_1  and  N_34
REMARK    4  A    between atoms: C_13  and  C_33
REMARK    5  A    between atoms: C_14  and  C_15
REMARK    6  A    between atoms: C_21  and  O_22
REMARK    7  A    between atoms: O_22  and  C_23
REMARK    8  A    between atoms: C_23  and  C_24
REMARK    9  A    between atoms: C_30  and  N_34
REMARK   10  A    between atoms: C_31  and  C_32
REMARK   11  A    between atoms: C_32  and  C_43
REMARK                            x       y       z     vdW  Elec       q    Type
REMARK                         _______ _______ _______ _____ _____    ______ ____
ROOT
ATOM      1  C   UNL A   1     -23.381   1.586  26.177  0.00  0.00    +0.210 C 
ATOM      2  C   UNL A   1     -24.373   0.787  28.402  0.00  0.00    +0.343 C 
ATOM      3  C   UNL A   1     -21.242  -0.065  28.468  0.00  0.00    +0.056 C 
ATOM      4  C   UNL A   1     -24.543   1.335  27.099  0.00  0.00    +0.145 C 
ATOM      5  O   UNL A   1     -24.190   1.782  29.328  0.00  0.00    -0.163 OA
ATOM      6  C   UNL A   1     -22.140   1.459  26.628  0.00  0.00    +0.240 C 
ATOM      7  F   UNL A   1     -23.499   1.683  24.824  0.00  0.00    -0.233 F 
ATOM      8  O   UNL A   1     -23.422  -0.202  27.803  0.00  0.00    -0.445 OA
ATOM      9  O   UNL A   1     -21.085   1.842  25.896  0.00  0.00    -0.212 OA
ATOM     10  C   UNL A   1     -22.211   0.420  27.581  0.00  0.00    +0.150 C 
ENDROOT
BRANCH   4  11
ATOM     11  C   UNL A   1     -25.688   1.614  26.461  0.00  0.00    +0.026 C 
ATOM     12  C   UNL A   1     -26.250   2.920  26.395  0.00  0.00    +0.073 C 
ATOM     13  C   UNL A   1     -27.438   3.091  25.645  0.00  0.00    +0.106 C 
ATOM     14  N   UNL A   1     -28.075   2.089  25.003  0.00  0.00    -0.208 NA
ATOM     15  C   UNL A   1     -27.543   0.849  25.079  0.00  0.00    +0.253 C 
ATOM     16  C   UNL A   1     -26.354   0.576  25.777  0.00  0.00    +0.189 C 
ATOM     17  F   UNL A   1     -25.860  -0.681  25.795  0.00  0.00    -0.200 F 
BRANCH  12  18
ATOM     18  C   UNL A   1     -25.642   4.093  27.123  0.00  0.00    +0.266 C 
ATOM     19  N   UNL A   1     -25.614   5.252  26.449  0.00  0.00    -0.200 NA
ATOM     20  C   UNL A   1     -25.026   6.479  26.963  0.00  0.00    +0.139 C 
ATOM     21  O   UNL A   1     -25.143   3.966  28.243  0.00  0.00    -0.268 OA
ENDBRANCH  12  18
BRANCH  15  22
ATOM     22  O   UNL A   1     -28.193  -0.208  24.477  0.00  0.00    -0.456 OA
BRANCH  22  23
ATOM     23  C   UNL A   1     -29.460   0.005  23.866  0.00  0.00    +0.243 C 
BRANCH  23  24
ATOM     24  C   UNL A   1     -30.065  -1.377  23.573  0.00  0.00    +0.229 C 
ATOM     25  O   UNL A   1     -30.729  -1.878  24.721  0.00  0.00    -0.216 OA
ENDBRANCH  23  24
ENDBRANCH  22  23
ENDBRANCH  15  22
ENDBRANCH   4  11
BRANCH   3  27
ATOM     26  O   UNL A   1     -22.118  -0.246  30.531  0.00  0.00    -0.215 OA
ATOM     27  C   UNL A   1     -21.599  -0.819  29.451  0.00  0.00    +0.210 C 
ENDBRANCH   3  27
BRANCH   3  28
ATOM     28  C   UNL A   1     -19.995   0.348  28.265  0.00  0.00    +0.221 C 
ATOM     29  F   UNL A   1     -19.835   1.754  27.928  0.00  0.00    -0.229 F 
ENDBRANCH   3  28
BRANCH   2  30
ATOM     30  N   UNL A   1     -25.255  -0.038  29.092  0.00  0.00    -0.070 NA
ATOM     31  O   UNL A   1     -26.630  -0.043  28.757  0.00  0.00    -0.113 OA
BRANCH  30  32
ATOM     32  C   UNL A   1     -24.855  -1.012  30.143  0.00  0.00    +0.131 C 
BRANCH  32  33
ATOM     33  C   UNL A   1     -24.973  -2.505  29.788  0.00  0.00    -0.004 C 
ATOM     34  C   UNL A   1     -23.906  -3.173  29.146  0.00  0.00    -0.003 C 
ATOM     35  C   UNL A   1     -23.989  -4.549  28.853  0.00  0.00    -0.000 C 
ATOM     36  C   UNL A   1     -25.137  -5.280  29.205  0.00  0.00    -0.000 C 
ATOM     37  C   UNL A   1     -26.232  -4.611  29.784  0.00  0.00    -0.000 C 
ATOM     38  C   UNL A   1     -26.155  -3.232  30.065  0.00  0.00    -0.003 C 
ENDBRANCH  32  33
BRANCH  32  39
ATOM     39  C   UNL A   1     -25.387  -0.679  31.571  0.00  0.00    +0.094 C 
ATOM     40  C   UNL A   1     -25.189   0.773  32.028  0.00  0.00    +0.021 C 
ATOM     41  C   UNL A   1     -25.336   0.684  33.544  0.00  0.00    +0.020 C 
ATOM     42  C   UNL A   1     -24.829  -0.715  33.905  0.00  0.00    +0.089 C 
ATOM     43  N   UNL A   1     -24.758  -1.481  32.646  0.00  0.00    -0.218 NA
ENDBRANCH  32  39
ENDBRANCH  30  32
ENDBRANCH   2  30
TORSDOF 11
