REMARK  Name = outputs/IAG933/test6/raw/output_1354_IAG933_linker_design_.xyz
REMARK  11 active torsions:
REMARK  status: ('A' for Active; 'I' for Inactive)
REMARK    1  A    between atoms: C_1  and  C_2
REMARK    2  A    between atoms: C_1  and  C_8
REMARK    3  A    between atoms: C_1  and  C_40
REMARK    4  A    between atoms: C_13  and  C_41
REMARK    5  A    between atoms: C_14  and  C_15
REMARK    6  A    between atoms: C_21  and  O_22
REMARK    7  A    between atoms: O_22  and  C_23
REMARK    8  A    between atoms: C_23  and  C_24
REMARK    9  A    between atoms: C_28  and  O_46
REMARK   10  A    between atoms: C_39  and  C_40
REMARK   11  A    between atoms: C_40  and  O_46
REMARK                            x       y       z     vdW  Elec       q    Type
REMARK                         _______ _______ _______ _____ _____    ______ ____
ROOT
ATOM      1  C   UNL A   1     -23.186   0.948  29.056  0.00  0.00    +0.128 C 
ATOM      2  O   UNL A   1     -20.147   0.885  28.186  0.00  0.00    -0.350 OA
ATOM      3  C   UNL A   1     -22.538   0.719  27.672  0.00  0.00    +0.078 C 
ATOM      4  C   UNL A   1     -21.226   1.639  27.522  0.00  0.00    +0.157 C 
ATOM      5  C   UNL A   1     -21.214  -0.693  29.594  0.00  0.00    +0.174 C 
ATOM      6  C   UNL A   1     -23.395   1.345  26.791  0.00  0.00    -0.009 C 
ATOM      7  C   UNL A   1     -22.761   1.904  25.561  0.00  0.00    +0.214 C 
ATOM      8  F   UNL A   1     -22.864   1.482  24.485  0.00  0.00    -0.230 F 
ATOM      9  C   UNL A   1     -20.614  -0.419  28.252  0.00  0.00    +0.174 C 
ATOM     10  C   UNL A   1     -24.560   0.703  28.488  0.00  0.00    +0.077 C 
ATOM     11  C   UNL A   1     -24.524   1.245  27.306  0.00  0.00    -0.020 C 
ATOM     12  F   UNL A   1     -20.609   1.260  25.241  0.00  0.00    -0.231 F 
ATOM     13  C   UNL A   1     -21.319   1.978  26.019  0.00  0.00    +0.224 C 
ATOM     14  O   UNL A   1     -22.222   0.357  30.040  0.00  0.00    -0.353 OA
ENDROOT
BRANCH  11  15
ATOM     15  C   UNL A   1     -25.688   1.614  26.461  0.00  0.00    +0.034 C 
ATOM     16  C   UNL A   1     -26.250   2.920  26.395  0.00  0.00    +0.076 C 
ATOM     17  C   UNL A   1     -27.438   3.091  25.645  0.00  0.00    +0.107 C 
ATOM     18  N   UNL A   1     -28.075   2.089  25.003  0.00  0.00    -0.208 NA
ATOM     19  C   UNL A   1     -27.543   0.849  25.079  0.00  0.00    +0.253 C 
ATOM     20  C   UNL A   1     -26.354   0.576  25.777  0.00  0.00    +0.193 C 
ATOM     21  F   UNL A   1     -25.860  -0.681  25.795  0.00  0.00    -0.199 F 
BRANCH  16  22
ATOM     22  C   UNL A   1     -25.642   4.093  27.123  0.00  0.00    +0.266 C 
ATOM     23  N   UNL A   1     -25.614   5.252  26.449  0.00  0.00    -0.200 NA
ATOM     24  C   UNL A   1     -25.026   6.479  26.963  0.00  0.00    +0.139 C 
ATOM     25  O   UNL A   1     -25.143   3.966  28.243  0.00  0.00    -0.268 OA
ENDBRANCH  16  22
BRANCH  19  26
ATOM     26  O   UNL A   1     -28.193  -0.208  24.477  0.00  0.00    -0.456 OA
BRANCH  26  27
ATOM     27  C   UNL A   1     -29.460   0.005  23.866  0.00  0.00    +0.243 C 
BRANCH  27  28
ATOM     28  C   UNL A   1     -30.065  -1.377  23.573  0.00  0.00    +0.229 C 
ATOM     29  O   UNL A   1     -30.729  -1.878  24.721  0.00  0.00    -0.216 OA
ENDBRANCH  27  28
ENDBRANCH  26  27
ENDBRANCH  19  26
ENDBRANCH  11  15
BRANCH  10  30
ATOM     30  C   UNL A   1     -25.441  -0.193  29.060  0.00  0.00    +0.127 C 
BRANCH  30  31
ATOM     31  C   UNL A   1     -24.855  -1.012  30.143  0.00  0.00    +0.066 C 
BRANCH  31  32
ATOM     32  C   UNL A   1     -24.973  -2.505  29.788  0.00  0.00    -0.019 C 
ATOM     33  C   UNL A   1     -23.906  -3.173  29.146  0.00  0.00    -0.004 C 
ATOM     34  C   UNL A   1     -23.989  -4.549  28.853  0.00  0.00    -0.000 C 
ATOM     35  C   UNL A   1     -25.137  -5.280  29.205  0.00  0.00    -0.000 C 
ATOM     36  C   UNL A   1     -26.232  -4.611  29.784  0.00  0.00    -0.000 C 
ATOM     37  C   UNL A   1     -26.155  -3.232  30.065  0.00  0.00    -0.004 C 
ENDBRANCH  31  32
BRANCH  31  38
ATOM     38  C   UNL A   1     -25.387  -0.679  31.571  0.00  0.00    +0.079 C 
ATOM     39  C   UNL A   1     -25.189   0.773  32.028  0.00  0.00    +0.019 C 
ATOM     40  C   UNL A   1     -25.336   0.684  33.544  0.00  0.00    +0.020 C 
ATOM     41  C   UNL A   1     -24.829  -0.715  33.905  0.00  0.00    +0.089 C 
ATOM     42  N   UNL A   1     -24.758  -1.481  32.646  0.00  0.00    -0.219 NA
ENDBRANCH  31  38
ENDBRANCH  30  31
BRANCH  30  43
ATOM     43  O   UNL A   1     -26.707  -0.548  28.517  0.00  0.00    -0.360 OA
BRANCH  43  44
ATOM     44  C   UNL A   1     -27.978   0.178  28.862  0.00  0.00    +0.093 C 
ATOM     45  C   UNL A   1     -28.657  -0.558  30.005  0.00  0.00    +0.030 C 
ATOM     46  C   UNL A   1     -28.976   0.272  27.691  0.00  0.00    +0.030 C 
ATOM     47  C   UNL A   1     -27.591   1.583  29.265  0.00  0.00    +0.030 C 
ENDBRANCH  43  44
ENDBRANCH  30  43
ENDBRANCH  10  30
TORSDOF 11
