MODEL 1355
MODEL 1
REMARK VINA RESULT:    -8.156      0.000      0.000
REMARK INTER + INTRA:         -12.204
REMARK INTER:                 -10.541
REMARK INTRA:                  -1.663
REMARK UNBOUND:                -1.663
REMARK  Name = No_1355-gen_results/8p0m/2024-11-27-11-27-31/
REMARK  5 active torsions:
REMARK  status: ('A' for Active; 'I' for Inactive)
REMARK    1  A    between atoms: C_7  and  C_11
REMARK    2  A    between atoms: N_13  and  C_14
REMARK    3  A    between atoms: C_19  and  C_21
REMARK    4  A    between atoms: C_21  and  C_23
REMARK    5  A    between atoms: C_23  and  C_24
REMARK                            x       y       z     vdW  Elec       q    Type
REMARK                         _______ _______ _______ _____ _____    ______ ____
ROOT
ATOM      1  C   UNL A   1     -24.207  -0.289  29.509  0.00  0.00    +0.253 C 
ATOM      2  O   UNL A   1     -23.378  -0.157  30.317  0.00  0.00    -0.270 OA
ATOM      3  N   UNL A   1     -24.221   0.264  28.265  0.00  0.00    -0.253 N 
ATOM      4  C   UNL A   1     -23.092   1.239  27.927  0.00  0.00    +0.120 C 
ENDROOT
BRANCH   1  11
ATOM      5  C   UNL A   1     -27.482  -2.732  30.350  0.00  0.00    +0.000 A 
ATOM      6  C   UNL A   1     -27.428  -1.707  30.588  0.00  0.00    +0.000 A 
ATOM      7  C   UNL A   1     -26.212  -3.290  29.870  0.00  0.00    +0.000 A 
ATOM      8  C   UNL A   1     -26.047  -4.744  29.681  0.00  0.00    +0.000 A 
ATOM      9  C   UNL A   1     -25.172  -5.270  28.859  0.00  0.00    +0.000 A 
ATOM     10  C   UNL A   1     -26.450  -0.697  30.293  0.00  0.00    +0.004 A 
ATOM     11  C   UNL A   1     -25.310  -1.164  29.826  0.00  0.00    +0.054 A 
ATOM     12  C   UNL A   1     -25.121  -2.514  29.633  0.00  0.00    +0.004 A 
ATOM     13  C   UNL A   1     -24.000  -4.429  28.495  0.00  0.00    +0.000 A 
ATOM     14  C   UNL A   1     -23.863  -3.389  28.880  0.00  0.00    +0.000 A 
ENDBRANCH   1  11
BRANCH   3  15
ATOM     15  C   UNL A   1     -25.186   0.202  27.290  0.00  0.00    +0.054 A 
ATOM     16  C   UNL A   1     -25.207  -0.524  26.379  0.00  0.00    +0.015 A 
ATOM     17  C   UNL A   1     -26.138  -0.429  25.267  0.00  0.00    -0.003 A 
ATOM     18  C   UNL A   1     -26.245   1.176  27.444  0.00  0.00    +0.015 A 
ATOM     19  C   UNL A   1     -27.211   1.338  26.479  0.00  0.00    -0.003 A 
ATOM     20  C   UNL A   1     -27.164   0.474  25.394  0.00  0.00    -0.022 A 
BRANCH  20  21
ATOM     21  C   UNL A   1     -28.171   0.566  24.299  0.00  0.00    +0.030 C 
ATOM     22  C   UNL A   1     -27.960   1.148  23.395  0.00  0.00    +0.005 C 
BRANCH  21  23
ATOM     23  C   UNL A   1     -29.404  -0.251  24.467  0.00  0.00    +0.099 C 
ATOM     24  C   UNL A   1     -30.725   0.704  24.392  0.00  0.00    +0.009 C 
BRANCH  23  25
ATOM     25  C   UNL A   1     -29.694  -1.295  23.794  0.00  0.00    +0.398 C 
ATOM     26  F   UNL A   1     -30.364  -1.067  22.843  0.00  0.00    -0.170 F 
ATOM     27  F   UNL A   1     -28.602  -2.015  23.340  0.00  0.00    -0.170 F 
ATOM     28  F   UNL A   1     -30.383  -2.328  24.473  0.00  0.00    -0.170 F 
ENDBRANCH  23  25
ENDBRANCH  21  23
ENDBRANCH  20  21
ENDBRANCH   3  15
TORSDOF 5
ENDMDL
ENDMDL
