REMARK  Name = outputs/IAG933/test6/raw/output_1356_IAG933_linker_design_.xyz
REMARK  11 active torsions:
REMARK  status: ('A' for Active; 'I' for Inactive)
REMARK    1  A    between atoms: C_1  and  C_2
REMARK    2  A    between atoms: C_1  and  C_8
REMARK    3  A    between atoms: C_1  and  C_35
REMARK    4  A    between atoms: C_13  and  C_34
REMARK    5  A    between atoms: C_14  and  C_15
REMARK    6  A    between atoms: C_21  and  O_22
REMARK    7  A    between atoms: O_22  and  C_23
REMARK    8  A    between atoms: C_23  and  C_24
REMARK    9  A    between atoms: C_29  and  C_41
REMARK   10  A    between atoms: N_32  and  C_34
REMARK   11  A    between atoms: C_40  and  C_41
REMARK                            x       y       z     vdW  Elec       q    Type
REMARK                         _______ _______ _______ _____ _____    ______ ____
ROOT
ATOM      1  C   UNL A   1     -24.779   1.260  27.390  0.00  0.00    +0.061 C 
ATOM      2  C   UNL A   1     -23.463   1.438  26.961  0.00  0.00    +0.075 C 
ENDROOT
BRANCH   1   3
ATOM      3  C   UNL A   1     -25.688   1.614  26.461  0.00  0.00    +0.108 C 
ATOM      4  C   UNL A   1     -26.250   2.920  26.395  0.00  0.00    +0.060 C 
ATOM      5  C   UNL A   1     -27.438   3.091  25.645  0.00  0.00    +0.102 C 
ATOM      6  N   UNL A   1     -28.075   2.089  25.003  0.00  0.00    -0.212 NA
ATOM      7  C   UNL A   1     -27.543   0.849  25.079  0.00  0.00    +0.234 C 
ATOM      8  C   UNL A   1     -26.354   0.576  25.777  0.00  0.00    +0.245 C 
ATOM      9  F   UNL A   1     -25.860  -0.681  25.795  0.00  0.00    -0.227 F 
BRANCH   4  10
ATOM     10  C   UNL A   1     -25.642   4.093  27.123  0.00  0.00    +0.263 C 
ATOM     11  N   UNL A   1     -25.614   5.252  26.449  0.00  0.00    -0.200 NA
ATOM     12  C   UNL A   1     -25.026   6.479  26.963  0.00  0.00    +0.139 C 
ATOM     13  O   UNL A   1     -25.143   3.966  28.243  0.00  0.00    -0.269 OA
ENDBRANCH   4  10
BRANCH   7  14
ATOM     14  O   UNL A   1     -28.193  -0.208  24.477  0.00  0.00    -0.459 OA
BRANCH  14  15
ATOM     15  C   UNL A   1     -29.460   0.005  23.866  0.00  0.00    +0.242 C 
BRANCH  15  16
ATOM     16  C   UNL A   1     -30.065  -1.377  23.573  0.00  0.00    +0.229 C 
ATOM     17  O   UNL A   1     -30.729  -1.878  24.721  0.00  0.00    -0.216 OA
ENDBRANCH  15  16
ENDBRANCH  14  15
ENDBRANCH   7  14
ENDBRANCH   1   3
BRANCH   2  23
ATOM     18  C   UNL A   1     -20.882  -0.253  28.662  0.00  0.00    +0.141 C 
ATOM     19  N   UNL A   1     -21.438   1.945  28.088  0.00  0.00    -0.081 NA
ATOM     20  O   UNL A   1     -20.399   1.125  28.617  0.00  0.00    -0.269 OA
ATOM     21  C   UNL A   1     -21.919  -0.581  29.804  0.00  0.00    +0.036 C 
ATOM     22  C   UNL A   1     -22.380  -0.021  28.522  0.00  0.00    +0.055 C 
ATOM     23  C   UNL A   1     -22.426   1.171  27.866  0.00  0.00    +0.134 C 
ENDBRANCH   2  23
BRANCH   2  24
ATOM     24  C   UNL A   1     -23.382   1.980  25.773  0.00  0.00    +0.332 C 
ATOM     25  O   UNL A   1     -23.354   1.569  24.617  0.00  0.00    -0.254 OA
ATOM     26  F   UNL A   1     -23.177   3.304  25.902  0.00  0.00    -0.159 F 
ENDBRANCH   2  24
BRANCH   1  27
ATOM     27  N   UNL A   1     -25.181   0.811  28.641  0.00  0.00    -0.183 NA
ATOM     28  C   UNL A   1     -25.718  -0.249  29.168  0.00  0.00    +0.250 C 
ATOM     29  O   UNL A   1     -26.789  -0.588  28.758  0.00  0.00    -0.273 OA
BRANCH  28  30
ATOM     30  C   UNL A   1     -24.855  -1.012  30.143  0.00  0.00    +0.117 C 
BRANCH  30  31
ATOM     31  C   UNL A   1     -24.973  -2.505  29.788  0.00  0.00    -0.013 C 
ATOM     32  C   UNL A   1     -23.906  -3.173  29.146  0.00  0.00    -0.004 C 
ATOM     33  C   UNL A   1     -23.989  -4.549  28.853  0.00  0.00    -0.000 C 
ATOM     34  C   UNL A   1     -25.137  -5.280  29.205  0.00  0.00    -0.000 C 
ATOM     35  C   UNL A   1     -26.232  -4.611  29.784  0.00  0.00    -0.000 C 
ATOM     36  C   UNL A   1     -26.155  -3.232  30.065  0.00  0.00    -0.004 C 
ENDBRANCH  30  31
BRANCH  30  37
ATOM     37  C   UNL A   1     -25.387  -0.679  31.571  0.00  0.00    +0.086 C 
ATOM     38  C   UNL A   1     -25.189   0.773  32.028  0.00  0.00    +0.020 C 
ATOM     39  C   UNL A   1     -25.336   0.684  33.544  0.00  0.00    +0.020 C 
ATOM     40  C   UNL A   1     -24.829  -0.715  33.905  0.00  0.00    +0.089 C 
ATOM     41  N   UNL A   1     -24.758  -1.481  32.646  0.00  0.00    -0.219 NA
ENDBRANCH  30  37
ENDBRANCH  28  30
ENDBRANCH   1  27
TORSDOF 11
