MODEL 1356
MODEL 1
REMARK VINA RESULT:    -7.496      0.000      0.000
REMARK INTER + INTRA:         -10.653
REMARK INTER:                  -9.687
REMARK INTRA:                  -0.966
REMARK UNBOUND:                -0.966
REMARK  Name = No_1356-gen_results/8p0m/2024-11-27-11-27-31/
REMARK  5 active torsions:
REMARK  status: ('A' for Active; 'I' for Inactive)
REMARK    1  A    between atoms: C_3  and  C_8
REMARK    2  A    between atoms: C_6  and  O_7
REMARK    3  A    between atoms: O_7  and  C_15
REMARK    4  A    between atoms: C_15  and  C_16
REMARK    5  A    between atoms: C_15  and  N_20
REMARK                            x       y       z     vdW  Elec       q    Type
REMARK                         _______ _______ _______ _____ _____    ______ ____
ROOT
ATOM      1  C   UNL A   1     -25.037  -0.325  25.587  0.00  0.00    +0.037 A 
ATOM      2  C   UNL A   1     -25.930  -0.087  24.809  0.00  0.00    +0.005 A 
ATOM      3  C   UNL A   1     -27.171   0.358  25.253  0.00  0.00    +0.018 A 
ATOM      4  C   UNL A   1     -27.445   0.504  26.659  0.00  0.00    +0.005 A 
ATOM      5  C   UNL A   1     -26.364   0.184  27.490  0.00  0.00    +0.037 A 
ATOM      6  C   UNL A   1     -25.216  -0.248  27.021  0.00  0.00    +0.141 A 
ENDROOT
BRANCH   3   7
ATOM      7  C   UNL A   1     -28.356   0.698  24.383  0.00  0.00    +0.084 A 
ATOM      8  N   UNL A   1     -29.255  -0.095  24.061  0.00  0.00    -0.218 NA
ATOM      9  C   UNL A   1     -30.402   0.283  23.382  0.00  0.00    +0.222 A 
ATOM     10  F   UNL A   1     -31.283  -0.602  23.090  0.00  0.00    -0.183 F 
ATOM     11  C   UNL A   1     -28.555   2.104  24.073  0.00  0.00    +0.019 A 
ATOM     12  C   UNL A   1     -30.699   1.610  23.155  0.00  0.00    +0.050 A 
ATOM     13  C   UNL A   1     -29.755   2.531  23.435  0.00  0.00    +0.005 A 
ENDBRANCH   3   7
BRANCH   6  14
ATOM     14  O   UNL A   1     -24.229  -0.575  27.899  0.00  0.00    -0.456 OA
BRANCH  14  15
ATOM     15  C   UNL A   1     -24.531  -1.259  29.057  0.00  0.00    +0.324 C 
BRANCH  15  16
ATOM     16  N   UNL A   1     -24.846  -2.625  28.761  0.00  0.00    -0.233 NA
ATOM     17  C   UNL A   1     -24.154  -3.467  28.427  0.00  0.00    +0.075 C 
ATOM     18  C   UNL A   1     -24.024  -4.552  28.525  0.00  0.00    +0.018 C 
ATOM     19  C   UNL A   1     -25.010  -5.330  29.267  0.00  0.00    +0.003 C 
ATOM     20  C   UNL A   1     -26.114  -4.524  29.649  0.00  0.00    +0.018 C 
ATOM     21  C   UNL A   1     -26.096  -3.088  29.442  0.00  0.00    +0.075 C 
ENDBRANCH  15  16
BRANCH  15  22
ATOM     22  C   UNL A   1     -23.539  -1.066  30.044  0.00  0.00    +0.450 C 
ATOM     23  F   UNL A   1     -23.562   0.025  30.537  0.00  0.00    -0.165 F 
ATOM     24  F   UNL A   1     -22.267  -1.226  29.438  0.00  0.00    -0.165 F 
ATOM     25  F   UNL A   1     -23.532  -1.962  31.065  0.00  0.00    -0.165 F 
ENDBRANCH  15  22
ENDBRANCH  14  15
ENDBRANCH   6  14
TORSDOF 5
ENDMDL
ENDMDL
