MODEL 1358
MODEL 1
REMARK VINA RESULT:    -7.150      0.000      0.000
REMARK INTER + INTRA:          -8.535
REMARK INTER:                  -8.404
REMARK INTRA:                  -0.130
REMARK UNBOUND:                -0.130
REMARK  Name = No_1358-gen_results/8p0m/2024-11-27-11-27-31/
REMARK  3 active torsions:
REMARK  status: ('A' for Active; 'I' for Inactive)
REMARK    1  A    between atoms: C_3  and  C_14
REMARK    2  A    between atoms: C_10  and  C_11
REMARK    3  A    between atoms: N_15  and  C_17
REMARK                            x       y       z     vdW  Elec       q    Type
REMARK                         _______ _______ _______ _____ _____    ______ ____
ROOT
ATOM      1  C   UNL A   1     -25.193  -0.493  28.141  0.00  0.00    +0.005 A 
ATOM      2  C   UNL A   1     -26.192  -0.653  28.436  0.00  0.00    +0.000 A 
ATOM      3  C   UNL A   1     -25.047   0.530  27.098  0.00  0.00    +0.056 A 
ATOM      4  C   UNL A   1     -23.714   1.028  26.707  0.00  0.00    +0.016 A 
ATOM      5  C   UNL A   1     -22.705   1.051  27.695  0.00  0.00    +0.058 A 
ATOM      6  C   UNL A   1     -22.953   0.381  28.940  0.00  0.00    +0.012 A 
ATOM      7  C   UNL A   1     -24.129  -0.199  29.185  0.00  0.00    +0.011 A 
ATOM      8  C   UNL A   1     -26.464  -1.689  29.551  0.00  0.00    +0.001 A 
ATOM      9  C   UNL A   1     -25.420  -1.757  30.531  0.00  0.00    +0.010 A 
ATOM     10  C   UNL A   1     -24.206  -1.031  30.401  0.00  0.00    +0.069 A 
ATOM     11 CL   UNL A   1     -21.211   1.799  27.433  0.00  0.00    -0.082 Cl
ENDROOT
BRANCH   3  12
ATOM     12  C   UNL A   1     -25.968   0.497  25.980  0.00  0.00    +0.269 C 
ATOM     13  N   UNL A   1     -27.005   1.173  25.991  0.00  0.00    -0.174 NA
ATOM     14  O   UNL A   1     -25.780  -0.298  25.032  0.00  0.00    -0.268 OA
BRANCH  13  15
ATOM     15  C   UNL A   1     -28.079   1.192  25.004  0.00  0.00    +0.093 A 
ATOM     16  C   UNL A   1     -28.837   0.180  24.964  0.00  0.00    +0.020 A 
ATOM     17  C   UNL A   1     -29.980   0.081  24.177  0.00  0.00    +0.019 A 
ATOM     18  C   UNL A   1     -30.857  -1.035  24.177  0.00  0.00    +0.002 A 
ATOM     19  C   UNL A   1     -31.924  -0.924  23.267  0.00  0.00    +0.000 A 
ATOM     20  C   UNL A   1     -32.159   0.190  22.523  0.00  0.00    +0.002 A 
ATOM     21  C   UNL A   1     -31.360   1.231  22.546  0.00  0.00    +0.019 A 
ATOM     22  C   UNL A   1     -30.245   1.191  23.341  0.00  0.00    +0.081 A 
ATOM     23  N   UNL A   1     -29.394   2.229  23.385  0.00  0.00    -0.242 NA
ATOM     24  C   UNL A   1     -28.301   2.296  24.169  0.00  0.00    +0.115 A 
ENDBRANCH  13  15
ENDBRANCH   3  12
BRANCH  10  25
ATOM     25  C   UNL A   1     -23.146  -1.230  31.287  0.00  0.00    +0.100 C 
ATOM     26  N   UNL A   1     -22.764  -1.198  32.413  0.00  0.00    -0.191 NA
ENDBRANCH  10  25
TORSDOF 3
ENDMDL
ENDMDL
