MODEL 1359
MODEL 1
REMARK VINA RESULT:    -5.436      0.000      0.000
REMARK INTER + INTRA:          -5.436
REMARK INTER:                  -5.436
REMARK INTRA:                   0.000
REMARK UNBOUND:                 0.000
REMARK  Name = No_1359-gen_results/8p0m/2024-11-27-11-27-31/
REMARK  0 active torsions:
REMARK  status: ('A' for Active; 'I' for Inactive)
REMARK                            x       y       z     vdW  Elec       q    Type
REMARK                         _______ _______ _______ _____ _____    ______ ____
ROOT
ATOM      1  C   UNL A   1     -26.503  -3.948  29.968  0.00  0.00    +0.000 A 
ATOM      2  C   UNL A   1     -26.161  -4.874  29.601  0.00  0.00    +0.000 A 
ATOM      3  C   UNL A   1     -25.542  -2.859  29.797  0.00  0.00    +0.000 A 
ATOM      4  C   UNL A   1     -24.323  -3.049  29.193  0.00  0.00    +0.000 A 
ATOM      5  C   UNL A   1     -24.955  -5.360  28.929  0.00  0.00    +0.000 A 
ATOM      6  C   UNL A   1     -24.018  -4.313  28.758  0.00  0.00    +0.000 A 
ATOM      7  C   UNL A   1     -25.861  -1.464  30.218  0.00  0.00    +0.000 A 
ATOM      8  C   UNL A   1     -24.863  -0.508  29.963  0.00  0.00    +0.000 A 
ATOM      9  C   UNL A   1     -23.634  -0.788  29.387  0.00  0.00    +0.000 A 
ATOM     10  C   UNL A   1     -23.358  -2.058  28.969  0.00  0.00    +0.000 A 
ENDROOT
TORSDOF 0
ENDMDL
ENDMDL
