REMARK  Name = outputs/IAG933/test6/raw/output_1359_IAG933_linker_design_.xyz
REMARK  11 active torsions:
REMARK  status: ('A' for Active; 'I' for Inactive)
REMARK    1  A    between atoms: C_1  and  C_2
REMARK    2  A    between atoms: C_1  and  C_8
REMARK    3  A    between atoms: C_1  and  N_49
REMARK    4  A    between atoms: C_13  and  C_53
REMARK    5  A    between atoms: C_14  and  C_15
REMARK    6  A    between atoms: C_21  and  O_22
REMARK    7  A    between atoms: O_22  and  C_23
REMARK    8  A    between atoms: C_23  and  C_24
REMARK    9  A    between atoms: C_28  and  C_46
REMARK   10  A    between atoms: C_30  and  C_47
REMARK   11  A    between atoms: C_39  and  C_50
REMARK                            x       y       z     vdW  Elec       q    Type
REMARK                         _______ _______ _______ _____ _____    ______ ____
ROOT
ATOM      1  C   UNL A   1     -22.009   2.014  26.593  0.00  0.00    +0.168 C 
ATOM      2  O   UNL A   1     -21.329   1.378  27.565  0.00  0.00    -0.471 OA
ATOM      3  C   UNL A   1     -21.952   0.704  28.464  0.00  0.00    +0.223 C 
ATOM      4  C   UNL A   1     -23.429   1.968  26.622  0.00  0.00    +0.019 C 
ATOM      5  C   UNL A   1     -24.993   1.105  28.802  0.00  0.00    +0.066 C 
ATOM      6  N   UNL A   1     -24.058  -0.044  29.398  0.00  0.00    -0.267 NA
ATOM      7  C   UNL A   1     -24.505   1.493  27.315  0.00  0.00    +0.065 C 
ATOM      8  C   UNL A   1     -22.846   0.360  29.366  0.00  0.00    +0.120 C 
ENDROOT
BRANCH   7   9
ATOM      9  C   UNL A   1     -25.688   1.614  26.461  0.00  0.00    +0.021 C 
ATOM     10  C   UNL A   1     -26.250   2.920  26.395  0.00  0.00    +0.073 C 
ATOM     11  C   UNL A   1     -27.438   3.091  25.645  0.00  0.00    +0.106 C 
ATOM     12  N   UNL A   1     -28.075   2.089  25.003  0.00  0.00    -0.208 NA
ATOM     13  C   UNL A   1     -27.543   0.849  25.079  0.00  0.00    +0.253 C 
ATOM     14  C   UNL A   1     -26.354   0.576  25.777  0.00  0.00    +0.190 C 
ATOM     15  F   UNL A   1     -25.860  -0.681  25.795  0.00  0.00    -0.200 F 
BRANCH  10  16
ATOM     16  C   UNL A   1     -25.642   4.093  27.123  0.00  0.00    +0.266 C 
ATOM     17  N   UNL A   1     -25.614   5.252  26.449  0.00  0.00    -0.200 NA
ATOM     18  C   UNL A   1     -25.026   6.479  26.963  0.00  0.00    +0.139 C 
ATOM     19  O   UNL A   1     -25.143   3.966  28.243  0.00  0.00    -0.268 OA
ENDBRANCH  10  16
BRANCH  13  20
ATOM     20  O   UNL A   1     -28.193  -0.208  24.477  0.00  0.00    -0.456 OA
BRANCH  20  21
ATOM     21  C   UNL A   1     -29.460   0.005  23.866  0.00  0.00    +0.243 C 
BRANCH  21  22
ATOM     22  C   UNL A   1     -30.065  -1.377  23.573  0.00  0.00    +0.229 C 
ATOM     23  O   UNL A   1     -30.729  -1.878  24.721  0.00  0.00    -0.216 OA
ENDBRANCH  21  22
ENDBRANCH  20  21
ENDBRANCH  13  20
ENDBRANCH   7   9
BRANCH   5  24
ATOM     24  C   UNL A   1     -26.552   0.419  28.833  0.00  0.00    +0.018 C 
ATOM     25  C   UNL A   1     -28.078   0.591  29.295  0.00  0.00    +0.033 C 
ATOM     26  C   UNL A   1     -27.681  -0.018  27.943  0.00  0.00    +0.004 C 
BRANCH  25  39
ATOM     27  O   UNL A   1     -32.588   1.500  27.871  0.00  0.00    -0.116 OA
ATOM     28  C   UNL A   1     -29.472   2.688  29.397  0.00  0.00    +0.007 C 
ATOM     29  C   UNL A   1     -30.201   4.931  32.462  0.00  0.00    +0.044 C 
ATOM     30  C   UNL A   1     -34.114   4.881  33.661  0.00  0.00    +0.090 C 
ATOM     31  C   UNL A   1     -33.987   2.352  31.314  0.00  0.00    +0.186 C 
ATOM     32  C   UNL A   1     -29.431   3.598  28.291  0.00  0.00    -0.002 C 
ATOM     33  C   UNL A   1     -32.852   2.599  32.395  0.00  0.00    +0.107 C 
ATOM     34  C   UNL A   1     -31.584   0.568  30.197  0.00  0.00    +0.248 C 
ATOM     35  C   UNL A   1     -31.601   4.723  33.137  0.00  0.00    +0.077 C 
ATOM     36  N   UNL A   1     -32.372   1.662  29.355  0.00  0.00    -0.100 NA
ATOM     37  C   UNL A   1     -29.525   3.158  30.803  0.00  0.00    +0.037 C 
ATOM     38  N   UNL A   1     -32.962   3.916  33.280  0.00  0.00    -0.269 NA
ATOM     39  C   UNL A   1     -29.520   1.194  29.171  0.00  0.00    +0.139 C 
ATOM     40  O   UNL A   1     -34.522   3.629  30.970  0.00  0.00    -0.220 OA
ATOM     41  C   UNL A   1     -29.791   4.507  31.059  0.00  0.00    -0.018 C 
ATOM     42  C   UNL A   1     -33.779   1.675  29.932  0.00  0.00    +0.141 C 
ATOM     43  O   UNL A   1     -30.163   0.515  30.261  0.00  0.00    -0.334 OA
ATOM     44  C   UNL A   1     -29.673   5.411  29.944  0.00  0.00    -0.004 C 
ATOM     45  C   UNL A   1     -29.486   4.994  28.585  0.00  0.00    -0.001 C 
BRANCH  37  46
ATOM     46  C   UNL A   1     -29.322   2.319  31.960  0.00  0.00    +0.234 C 
ATOM     47  O   UNL A   1     -29.167   2.637  33.080  0.00  0.00    -0.283 OA
ENDBRANCH  37  46
ENDBRANCH  25  39
ENDBRANCH   5  24
BRANCH   6  48
ATOM     48  C   UNL A   1     -24.855  -1.012  30.143  0.00  0.00    +0.096 C 
BRANCH  48  49
ATOM     49  C   UNL A   1     -24.973  -2.505  29.788  0.00  0.00    -0.006 C 
ATOM     50  C   UNL A   1     -23.906  -3.173  29.146  0.00  0.00    -0.003 C 
ATOM     51  C   UNL A   1     -23.989  -4.549  28.853  0.00  0.00    -0.000 C 
ATOM     52  C   UNL A   1     -25.137  -5.280  29.205  0.00  0.00    -0.000 C 
ATOM     53  C   UNL A   1     -26.232  -4.611  29.784  0.00  0.00    -0.000 C 
ATOM     54  C   UNL A   1     -26.155  -3.232  30.065  0.00  0.00    -0.003 C 
ENDBRANCH  48  49
BRANCH  48  55
ATOM     55  C   UNL A   1     -25.387  -0.679  31.571  0.00  0.00    +0.092 C 
ATOM     56  C   UNL A   1     -25.189   0.773  32.028  0.00  0.00    +0.021 C 
ATOM     57  C   UNL A   1     -25.336   0.684  33.544  0.00  0.00    +0.020 C 
ATOM     58  C   UNL A   1     -24.829  -0.715  33.905  0.00  0.00    +0.089 C 
ATOM     59  N   UNL A   1     -24.758  -1.481  32.646  0.00  0.00    -0.218 NA
ENDBRANCH  48  55
ENDBRANCH   6  48
TORSDOF 11
