MODEL 135
MODEL 1
REMARK VINA RESULT:    -7.014      0.000      0.000
REMARK INTER + INTRA:          -9.501
REMARK INTER:                  -8.654
REMARK INTRA:                  -0.847
REMARK UNBOUND:                -0.847
REMARK  Name = No_135-gen_results/8p0m/2024-11-27-11-27-31/
REMARK  4 active torsions:
REMARK  status: ('A' for Active; 'I' for Inactive)
REMARK    1  A    between atoms: C_3  and  C_7
REMARK    2  A    between atoms: C_6  and  C_19
REMARK    3  A    between atoms: C_7  and  C_8
REMARK    4  A    between atoms: C_8  and  C_9
REMARK                            x       y       z     vdW  Elec       q    Type
REMARK                         _______ _______ _______ _____ _____    ______ ____
ROOT
ATOM      1  C   UNL A   1     -23.027  -0.893  30.145  0.00  0.00    +0.034 C 
ENDROOT
BRANCH   1   4
ATOM      2  C   UNL A   1     -24.094  -3.159  29.425  0.00  0.00    +0.192 A 
ATOM      3  C   UNL A   1     -24.944  -3.779  29.494  0.00  0.00    +0.042 A 
ATOM      4  C   UNL A   1     -24.187  -1.883  30.076  0.00  0.00    +0.017 A 
ATOM      5  C   UNL A   1     -25.323  -1.413  30.599  0.00  0.00    -0.001 A 
ATOM      6  C   UNL A   1     -26.398  -2.257  30.577  0.00  0.00    -0.000 A 
ATOM      7  C   UNL A   1     -26.248  -3.510  29.983  0.00  0.00    +0.003 A 
ATOM      8  O   UNL A   1     -23.402  -2.985  28.500  0.00  0.00    -0.287 OA
BRANCH   7   9
ATOM      9  C   UNL A   1     -27.385  -4.515  29.995  0.00  0.00    -0.004 C 
ATOM     10  C   UNL A   1     -28.355  -4.318  30.624  0.00  0.00    -0.026 C 
ATOM     11  C   UNL A   1     -29.490  -5.253  30.642  0.00  0.00    +0.031 C 
ENDBRANCH   7   9
ENDBRANCH   1   4
BRANCH   1  12
ATOM     12  C   UNL A   1     -23.319   0.394  29.619  0.00  0.00    +0.030 C 
ATOM     13  C   UNL A   1     -23.632   1.442  30.606  0.00  0.00    +0.005 C 
BRANCH  12  14
ATOM     14  C   UNL A   1     -23.248   0.722  28.316  0.00  0.00    +0.019 A 
ATOM     15  C   UNL A   1     -22.500   1.719  27.783  0.00  0.00    -0.001 A 
ATOM     16  C   UNL A   1     -22.469   2.085  26.375  0.00  0.00    +0.002 A 
ATOM     17  C   UNL A   1     -23.553   1.631  25.627  0.00  0.00    +0.033 A 
ATOM     18  C   UNL A   1     -24.401   0.711  26.127  0.00  0.00    +0.178 A 
ATOM     19  C   UNL A   1     -24.326   0.299  27.400  0.00  0.00    +0.219 A 
ATOM     20  O   UNL A   1     -25.354   0.608  27.828  0.00  0.00    -0.284 OA
ATOM     21  F   UNL A   1     -25.341   0.307  25.310  0.00  0.00    -0.201 F 
ENDBRANCH  12  14
ENDBRANCH   1  12
TORSDOF 4
ENDMDL
ENDMDL
