REMARK  Name = outputs/IAG933/test6/raw/output_1360_IAG933_linker_design_.xyz
REMARK  11 active torsions:
REMARK  status: ('A' for Active; 'I' for Inactive)
REMARK    1  A    between atoms: C_1  and  C_2
REMARK    2  A    between atoms: C_1  and  C_8
REMARK    3  A    between atoms: C_1  and  C_44
REMARK    4  A    between atoms: C_13  and  C_34
REMARK    5  A    between atoms: C_14  and  C_15
REMARK    6  A    between atoms: C_21  and  O_22
REMARK    7  A    between atoms: O_22  and  C_23
REMARK    8  A    between atoms: C_23  and  C_24
REMARK    9  A    between atoms: C_29  and  C_44
REMARK   10  A    between atoms: N_40  and  C_43
REMARK   11  A    between atoms: C_44  and  N_46
REMARK                            x       y       z     vdW  Elec       q    Type
REMARK                         _______ _______ _______ _____ _____    ______ ____
ROOT
ATOM      1  C   UNL A   1     -25.637  -0.202  29.058  0.00  0.00    +0.122 C 
ENDROOT
BRANCH   1   3
ATOM      2  N   UNL A   1     -22.428  -0.234  29.746  0.00  0.00    -0.124 NA
ATOM      3  C   UNL A   1     -24.472   0.622  28.466  0.00  0.00    -0.003 C 
ATOM      4  C   UNL A   1     -23.213   1.699  26.918  0.00  0.00    -0.025 C 
ATOM      5  C   UNL A   1     -24.546   1.286  27.277  0.00  0.00    -0.006 C 
ATOM      6  C   UNL A   1     -23.193   0.705  28.942  0.00  0.00    +0.133 C 
ATOM      7  C   UNL A   1     -22.839   2.200  25.558  0.00  0.00    +0.031 C 
ATOM      8  C   UNL A   1     -22.451   1.449  28.008  0.00  0.00    -0.008 C 
BRANCH   5   9
ATOM      9  C   UNL A   1     -25.688   1.614  26.461  0.00  0.00    +0.037 C 
ATOM     10  C   UNL A   1     -26.250   2.920  26.395  0.00  0.00    +0.076 C 
ATOM     11  C   UNL A   1     -27.438   3.091  25.645  0.00  0.00    +0.107 C 
ATOM     12  N   UNL A   1     -28.075   2.089  25.003  0.00  0.00    -0.208 NA
ATOM     13  C   UNL A   1     -27.543   0.849  25.079  0.00  0.00    +0.253 C 
ATOM     14  C   UNL A   1     -26.354   0.576  25.777  0.00  0.00    +0.193 C 
ATOM     15  F   UNL A   1     -25.860  -0.681  25.795  0.00  0.00    -0.199 F 
BRANCH  10  16
ATOM     16  C   UNL A   1     -25.642   4.093  27.123  0.00  0.00    +0.266 C 
ATOM     17  N   UNL A   1     -25.614   5.252  26.449  0.00  0.00    -0.200 NA
ATOM     18  C   UNL A   1     -25.026   6.479  26.963  0.00  0.00    +0.139 C 
ATOM     19  O   UNL A   1     -25.143   3.966  28.243  0.00  0.00    -0.268 OA
ENDBRANCH  10  16
BRANCH  13  20
ATOM     20  O   UNL A   1     -28.193  -0.208  24.477  0.00  0.00    -0.456 OA
BRANCH  20  21
ATOM     21  C   UNL A   1     -29.460   0.005  23.866  0.00  0.00    +0.243 C 
BRANCH  21  22
ATOM     22  C   UNL A   1     -30.065  -1.377  23.573  0.00  0.00    +0.229 C 
ATOM     23  O   UNL A   1     -30.729  -1.878  24.721  0.00  0.00    -0.216 OA
ENDBRANCH  21  22
ENDBRANCH  20  21
ENDBRANCH  13  20
ENDBRANCH   5   9
ENDBRANCH   1   3
BRANCH   1  28
ATOM     24  C   UNL A   1     -28.680   2.222  31.312  0.00  0.00    +0.117 C 
ATOM     25  C   UNL A   1     -28.210   1.045  28.983  0.00  0.00    +0.324 C 
ATOM     26  N   UNL A   1     -28.818   2.070  29.838  0.00  0.00    -0.259 N 
ATOM     27  O   UNL A   1     -28.855   0.443  28.160  0.00  0.00    -0.251 OA
ATOM     28  N   UNL A   1     -26.809   0.754  29.084  0.00  0.00    -0.186 NA
BRANCH  26  34
ATOM     29  C   UNL A   1     -29.467   5.225  28.608  0.00  0.00    +0.319 C 
ATOM     30  C   UNL A   1     -30.486   3.187  28.411  0.00  0.00    +0.229 C 
ATOM     31  O   UNL A   1     -28.926   5.990  27.503  0.00  0.00    -0.250 OA
ATOM     32  C   UNL A   1     -28.778   4.418  29.632  0.00  0.00    +0.133 C 
ATOM     33  O   UNL A   1     -30.558   4.532  28.033  0.00  0.00    -0.447 OA
ATOM     34  C   UNL A   1     -29.305   3.147  29.284  0.00  0.00    +0.132 C 
ENDBRANCH  26  34
ENDBRANCH   1  28
BRANCH   1  35
ATOM     35  C   UNL A   1     -24.855  -1.012  30.143  0.00  0.00    +0.062 C 
BRANCH  35  36
ATOM     36  C   UNL A   1     -24.973  -2.505  29.788  0.00  0.00    -0.019 C 
ATOM     37  C   UNL A   1     -23.906  -3.173  29.146  0.00  0.00    -0.004 C 
ATOM     38  C   UNL A   1     -23.989  -4.549  28.853  0.00  0.00    -0.000 C 
ATOM     39  C   UNL A   1     -25.137  -5.280  29.205  0.00  0.00    -0.000 C 
ATOM     40  C   UNL A   1     -26.232  -4.611  29.784  0.00  0.00    -0.000 C 
ATOM     41  C   UNL A   1     -26.155  -3.232  30.065  0.00  0.00    -0.004 C 
ENDBRANCH  35  36
BRANCH  35  42
ATOM     42  C   UNL A   1     -25.387  -0.679  31.571  0.00  0.00    +0.079 C 
ATOM     43  C   UNL A   1     -25.189   0.773  32.028  0.00  0.00    +0.019 C 
ATOM     44  C   UNL A   1     -25.336   0.684  33.544  0.00  0.00    +0.020 C 
ATOM     45  C   UNL A   1     -24.829  -0.715  33.905  0.00  0.00    +0.089 C 
ATOM     46  N   UNL A   1     -24.758  -1.481  32.646  0.00  0.00    -0.219 NA
ENDBRANCH  35  42
ENDBRANCH   1  35
TORSDOF 11
