MODEL 1360
MODEL 1
REMARK VINA RESULT:    -5.284      0.000      0.000
REMARK INTER + INTRA:          -5.732
REMARK INTER:                  -5.593
REMARK INTRA:                  -0.139
REMARK UNBOUND:                -0.139
REMARK  Name = No_1360-gen_results/8p0m/2024-11-27-11-27-31/
REMARK  1 active torsions:
REMARK  status: ('A' for Active; 'I' for Inactive)
REMARK    1  A    between atoms: C_1  and  C_2
REMARK                            x       y       z     vdW  Elec       q    Type
REMARK                         _______ _______ _______ _____ _____    ______ ____
ROOT
ATOM      1  C   UNL A   1      -7.973  -9.617  19.625  0.00  0.00    +0.044 A 
ATOM      2  C   UNL A   1      -8.051 -10.748  18.744  0.00  0.00    +0.001 A 
ATOM      3  C   UNL A   1      -9.105 -10.836  17.713  0.00  0.00    -0.000 A 
ATOM      4  C   UNL A   1     -10.343 -10.207  17.945  0.00  0.00    -0.000 A 
ATOM      5  C   UNL A   1     -10.478  -9.357  19.061  0.00  0.00    -0.000 A 
ATOM      6  C   UNL A   1      -9.450  -9.163  19.907  0.00  0.00    +0.001 A 
ENDROOT
BRANCH   1   7
ATOM      7  C   UNL A   1      -7.295  -9.699  20.428  0.00  0.00    +0.341 C 
ATOM      8  F   UNL A   1      -7.723 -10.060  21.535  0.00  0.00    -0.193 F 
ATOM      9  F   UNL A   1      -6.191  -8.917  20.637  0.00  0.00    -0.193 F 
ENDBRANCH   1   7
TORSDOF 1
ENDMDL
ENDMDL
