MODEL 1361
MODEL 1
REMARK VINA RESULT:    -5.824      0.000      0.000
REMARK INTER + INTRA:         -14.418
REMARK INTER:                 -10.251
REMARK INTRA:                  -4.167
REMARK UNBOUND:                -4.167
REMARK  Name = No_1361-gen_results/8p0m/2024-11-27-11-27-31/
REMARK  13 active torsions:
REMARK  status: ('A' for Active; 'I' for Inactive)
REMARK    1  A    between atoms: C_1  and  C_2
REMARK    2  A    between atoms: C_5  and  C_11
REMARK    3  A    between atoms: N_8  and  C_10
REMARK    4  A    between atoms: C_11  and  C_17
REMARK    5  A    between atoms: C_18  and  C_19
REMARK    6  A    between atoms: C_19  and  C_20
REMARK    7  A    between atoms: C_20  and  C_21
REMARK    8  A    between atoms: C_20  and  C_22
REMARK    9  A    between atoms: C_21  and  O_23
REMARK   10  A    between atoms: O_23  and  C_24
REMARK   11  A    between atoms: C_24  and  C_25
REMARK   12  A    between atoms: C_25  and  C_26
REMARK   13  A    between atoms: C_26  and  C_27
REMARK                            x       y       z     vdW  Elec       q    Type
REMARK                         _______ _______ _______ _____ _____    ______ ____
ROOT
ATOM      1  C   UNL A   1     -28.676 -12.483  31.377  0.00  0.00    -0.018 C 
ATOM      2  C   UNL A   1     -27.907 -12.093  32.416  0.00  0.00    +0.033 C 
ENDROOT
BRANCH   2   3
ATOM      3  C   UNL A   1     -28.009 -11.845  33.518  0.00  0.00    +0.177 C 
ATOM      4  O   UNL A   1     -27.140 -12.051  34.544  0.00  0.00    -0.291 OA
BRANCH   3   5
ATOM      5  C   UNL A   1     -29.026 -10.817  33.864  0.00  0.00    +0.124 C 
BRANCH   5   6
ATOM      6  C   UNL A   1     -30.187 -11.244  34.626  0.00  0.00    +0.192 C 
ATOM      7  O   UNL A   1     -30.769 -10.272  35.230  0.00  0.00    -0.220 OA
ENDBRANCH   5   6
BRANCH   5   8
ATOM      8  C   UNL A   1     -28.847  -9.420  33.703  0.00  0.00    +0.152 C 
BRANCH   8   9
ATOM      9  O   UNL A   1     -29.002  -9.150  32.651  0.00  0.00    -0.353 OA
BRANCH   9  10
ATOM     10  C   UNL A   1     -30.155  -8.366  32.265  0.00  0.00    +0.142 C 
BRANCH  10  11
ATOM     11  C   UNL A   1     -31.074  -8.973  31.459  0.00  0.00    +0.037 C 
BRANCH  11  12
ATOM     12  C   UNL A   1     -31.154  -8.434  30.182  0.00  0.00    +0.029 C 
BRANCH  12  13
ATOM     13  C   UNL A   1     -31.400  -9.418  29.134  0.00  0.00    -0.022 A 
ATOM     14  C   UNL A   1     -31.315  -9.142  27.914  0.00  0.00    -0.004 A 
ATOM     15  C   UNL A   1     -31.739  -9.627  27.046  0.00  0.00    -0.000 A 
ATOM     16  C   UNL A   1     -32.618 -10.807  27.208  0.00  0.00    -0.000 A 
ATOM     17  C   UNL A   1     -32.884 -11.165  28.512  0.00  0.00    -0.000 A 
ATOM     18  C   UNL A   1     -32.385 -10.413  29.497  0.00  0.00    -0.004 A 
ENDBRANCH  12  13
ENDBRANCH  11  12
ENDBRANCH  10  11
ENDBRANCH   9  10
ENDBRANCH   8   9
ENDBRANCH   5   8
ENDBRANCH   3   5
ENDBRANCH   2   3
BRANCH   1  19
ATOM     19  C   UNL A   1     -28.920 -11.728  30.248  0.00  0.00    +0.052 C 
BRANCH  19  23
ATOM     20  C   UNL A   1     -30.403 -13.672  26.582  0.00  0.00    +0.055 A 
ATOM     21  C   UNL A   1     -30.420 -14.337  27.891  0.00  0.00    +0.004 A 
ATOM     22  C   UNL A   1     -30.188 -13.572  29.132  0.00  0.00    -0.004 A 
ATOM     23  C   UNL A   1     -29.343 -12.442  29.058  0.00  0.00    -0.018 A 
ATOM     24  C   UNL A   1     -28.952 -11.965  27.763  0.00  0.00    -0.004 A 
ATOM     25  C   UNL A   1     -29.325 -12.605  26.654  0.00  0.00    +0.004 A 
BRANCH  20  26
ATOM     26  C   UNL A   1     -30.429 -14.343  25.770  0.00  0.00    +0.269 C 
ATOM     27  N   UNL A   1     -30.057 -13.794  24.465  0.00  0.00    -0.172 NA
ATOM     28  O   UNL A   1     -30.746 -15.544  25.590  0.00  0.00    -0.268 OA
BRANCH  27  29
ATOM     29  C   UNL A   1     -30.693 -13.717  23.600  0.00  0.00    +0.113 A 
ATOM     30  C   UNL A   1     -30.163 -14.155  22.226  0.00  0.00    +0.211 A 
ATOM     31  C   UNL A   1     -30.840 -13.828  20.999  0.00  0.00    +0.043 A 
ATOM     32  C   UNL A   1     -32.024 -13.068  21.151  0.00  0.00    +0.003 A 
ATOM     33  C   UNL A   1     -32.505 -12.632  22.357  0.00  0.00    +0.002 A 
ATOM     34  C   UNL A   1     -31.852 -12.892  23.538  0.00  0.00    +0.020 A 
ATOM     35  O   UNL A   1     -29.093 -14.873  22.194  0.00  0.00    -0.285 OA
ENDBRANCH  27  29
ENDBRANCH  20  26
ENDBRANCH  19  23
ENDBRANCH   1  19
TORSDOF 13
ENDMDL
ENDMDL
