MODEL 1362
MODEL 1
REMARK VINA RESULT:    -5.011      0.000      0.000
REMARK INTER + INTRA:          -5.011
REMARK INTER:                  -5.011
REMARK INTRA:                   0.000
REMARK UNBOUND:                 0.000
REMARK  Name = No_1362-gen_results/8p0m/2024-11-27-11-27-31/
REMARK  0 active torsions:
REMARK  status: ('A' for Active; 'I' for Inactive)
REMARK                            x       y       z     vdW  Elec       q    Type
REMARK                         _______ _______ _______ _____ _____    ______ ____
ROOT
ATOM      1  C   UNL A   1     -10.373  -9.319  19.065  0.00  0.00    +0.042 A 
ATOM      2  C   UNL A   1      -9.548  -9.184  19.939  0.00  0.00    +0.003 A 
ATOM      3  C   UNL A   1      -8.320  -9.833  19.872  0.00  0.00    +0.000 A 
ATOM      4  C   UNL A   1      -8.010 -10.724  18.783  0.00  0.00    +0.003 A 
ATOM      5  C   UNL A   1      -9.030 -10.840  17.830  0.00  0.00    +0.042 A 
ATOM      6  C   UNL A   1     -10.181 -10.217  17.948  0.00  0.00    +0.196 A 
ATOM      7  O   UNL A   1     -11.134 -10.415  16.996  0.00  0.00    -0.287 OA
ENDROOT
TORSDOF 0
ENDMDL
ENDMDL
