MODEL 1363
MODEL 1
REMARK VINA RESULT:    -4.468      0.000      0.000
REMARK INTER + INTRA:          -5.481
REMARK INTER:                  -5.252
REMARK INTRA:                  -0.230
REMARK UNBOUND:                -0.230
REMARK  Name = No_1363-gen_results/8p0m/2024-11-27-11-27-31/
REMARK  3 active torsions:
REMARK  status: ('A' for Active; 'I' for Inactive)
REMARK    1  A    between atoms: C_1  and  C_3
REMARK    2  A    between atoms: C_2  and  C_6
REMARK    3  A    between atoms: C_3  and  C_4
REMARK                            x       y       z     vdW  Elec       q    Type
REMARK                         _______ _______ _______ _____ _____    ______ ____
ROOT
ATOM      1  C   UNL A   1     -23.505  -2.337  28.951  0.00  0.00    -0.082 C 
ATOM      2  C   UNL A   1     -24.268  -3.043  28.777  0.00  0.00    -0.064 C 
ENDROOT
BRANCH   2   3
ATOM      3  C   UNL A   1     -24.086  -4.563  28.559  0.00  0.00    +0.045 C 
ATOM      4  C   UNL A   1     -25.078  -5.319  29.185  0.00  0.00    -0.017 C 
ATOM      5  C   UNL A   1     -26.224  -4.694  29.649  0.00  0.00    +0.031 C 
ENDBRANCH   2   3
BRANCH   1   6
ATOM      6  C   UNL A   1     -23.712  -0.976  29.220  0.00  0.00    +0.102 C 
BRANCH   6   7
ATOM      7  C   UNL A   1     -22.713   0.029  29.101  0.00  0.00    -0.012 C 
ATOM      8  C   UNL A   1     -21.409  -0.220  28.858  0.00  0.00    -0.004 C 
ENDBRANCH   6   7
ENDBRANCH   1   6
TORSDOF 3
ENDMDL
ENDMDL
