MODEL 1365
MODEL 1
REMARK VINA RESULT:    -7.411      0.000      0.000
REMARK INTER + INTRA:         -11.536
REMARK INTER:                 -10.010
REMARK INTRA:                  -1.526
REMARK UNBOUND:                -1.526
REMARK  Name = No_1365-gen_results/8p0m/2024-11-27-11-27-31/
REMARK  6 active torsions:
REMARK  status: ('A' for Active; 'I' for Inactive)
REMARK    1  A    between atoms: C_2  and  O_15
REMARK    2  A    between atoms: C_3  and  C_4
REMARK    3  A    between atoms: O_15  and  C_16
REMARK    4  A    between atoms: C_17  and  O_24
REMARK    5  A    between atoms: O_24  and  C_25
REMARK    6  A    between atoms: C_25  and  C_26
REMARK                            x       y       z     vdW  Elec       q    Type
REMARK                         _______ _______ _______ _____ _____    ______ ____
ROOT
ATOM      1  C   UNL A   1     -23.473   0.879  27.748  0.00  0.00    +0.067 A 
ATOM      2  C   UNL A   1     -24.232  -0.018  28.034  0.00  0.00    +0.144 A 
ATOM      3  C   UNL A   1     -23.811  -1.099  28.800  0.00  0.00    +0.013 A 
ATOM      4  C   UNL A   1     -22.028   0.765  28.026  0.00  0.00    +0.143 A 
ATOM      5  C   UNL A   1     -21.550  -0.225  28.839  0.00  0.00    +0.029 A 
ATOM      6  C   UNL A   1     -22.425  -1.275  29.249  0.00  0.00    +0.001 A 
ATOM      7  F   UNL A   1     -21.183   1.723  27.688  0.00  0.00    -0.204 F 
ENDROOT
BRANCH   3   8
ATOM      8  C   UNL A   1     -24.645  -2.266  29.209  0.00  0.00    +0.033 C 
ATOM      9  C   UNL A   1     -25.977  -2.191  29.745  0.00  0.00    +0.005 C 
ATOM     10  C   UNL A   1     -26.693  -3.323  30.048  0.00  0.00    +0.008 C 
ATOM     11  C   UNL A   1     -26.320  -4.596  29.682  0.00  0.00    +0.065 C 
ATOM     12  C   UNL A   1     -24.244  -3.627  28.836  0.00  0.00    +0.069 C 
ATOM     13  C   UNL A   1     -25.079  -4.733  29.100  0.00  0.00    +0.151 C 
ATOM     14  O   UNL A   1     -24.612  -5.934  28.719  0.00  0.00    -0.296 OA
ENDBRANCH   3   8
BRANCH   2  15
ATOM     15  O   UNL A   1     -25.559   0.043  27.743  0.00  0.00    -0.450 OA
BRANCH  15  16
ATOM     16  C   UNL A   1     -26.090   1.246  27.308  0.00  0.00    +0.187 A 
ATOM     17  C   UNL A   1     -26.494   2.156  28.138  0.00  0.00    +0.201 A 
ATOM     18  C   UNL A   1     -27.137   3.272  27.760  0.00  0.00    +0.177 A 
ATOM     19  C   UNL A   1     -26.113   1.471  25.947  0.00  0.00    +0.072 A 
ATOM     20  C   UNL A   1     -26.753   2.582  25.441  0.00  0.00    +0.012 A 
ATOM     21  C   UNL A   1     -27.160   3.568  26.354  0.00  0.00    +0.034 A 
ATOM     22 BR   UNL A   1     -25.484   0.197  24.724  0.00  0.00    -0.046 Br
ATOM     23  F   UNL A   1     -27.550   4.225  28.587  0.00  0.00    -0.201 F 
BRANCH  17  24
ATOM     24  O   UNL A   1     -26.460   1.875  29.512  0.00  0.00    -0.465 OA
BRANCH  24  25
ATOM     25  C   UNL A   1     -25.532   2.514  30.256  0.00  0.00    +0.232 C 
BRANCH  25  26
ATOM     26  C   UNL A   1     -24.763   1.680  31.128  0.00  0.00    +0.016 C 
ATOM     27  C   UNL A   1     -25.081   0.728  31.666  0.00  0.00    -0.027 C 
ATOM     28  C   UNL A   1     -24.280  -0.115  32.527  0.00  0.00    +0.030 C 
ENDBRANCH  25  26
ENDBRANCH  24  25
ENDBRANCH  17  24
ENDBRANCH  15  16
ENDBRANCH   2  15
TORSDOF 6
ENDMDL
ENDMDL
