REMARK  Name = No_1365-gen_results/8p0m/2024-11-27-11-27-31/
REMARK  6 active torsions:
REMARK  status: ('A' for Active; 'I' for Inactive)
REMARK    1  A    between atoms: C_2  and  O_15
REMARK    2  A    between atoms: C_3  and  C_4
REMARK    3  A    between atoms: O_15  and  C_16
REMARK    4  A    between atoms: C_17  and  O_24
REMARK    5  A    between atoms: O_24  and  C_25
REMARK    6  A    between atoms: C_25  and  C_26
REMARK                            x       y       z     vdW  Elec       q    Type
REMARK                         _______ _______ _______ _____ _____    ______ ____
ROOT
ATOM      1  C   UNL A   1     -28.016  -0.814  28.878  0.00  0.00    +0.067 A 
ATOM      2  C   UNL A   1     -27.064  -0.119  28.608  0.00  0.00    +0.144 A 
ATOM      3  C   UNL A   1     -25.792  -0.430  29.076  0.00  0.00    +0.013 A 
ATOM      4  C   UNL A   1     -27.905  -1.898  29.873  0.00  0.00    +0.143 A 
ATOM      5  C   UNL A   1     -26.680  -2.314  30.318  0.00  0.00    +0.029 A 
ATOM      6  C   UNL A   1     -25.520  -1.556  29.977  0.00  0.00    +0.001 A 
ATOM      7  F   UNL A   1     -28.945  -2.643  30.202  0.00  0.00    -0.204 F 
ENDROOT
BRANCH   3   8
ATOM      8  C   UNL A   1     -24.546   0.349  28.823  0.00  0.00    +0.033 C 
ATOM      9  C   UNL A   1     -23.241   0.022  29.332  0.00  0.00    +0.005 C 
ATOM     10  C   UNL A   1     -22.136   0.769  29.006  0.00  0.00    +0.008 C 
ATOM     11  C   UNL A   1     -22.116   1.734  28.026  0.00  0.00    +0.065 C 
ATOM     12  C   UNL A   1     -24.522   1.391  27.791  0.00  0.00    +0.069 C 
ATOM     13  C   UNL A   1     -23.325   2.052  27.447  0.00  0.00    +0.151 C 
ATOM     14  O   UNL A   1     -23.418   2.991  26.490  0.00  0.00    -0.296 OA
ENDBRANCH   3   8
BRANCH   2  15
ATOM     15  O   UNL A   1     -27.154   0.916  27.732  0.00  0.00    -0.450 OA
BRANCH  15  16
ATOM     16  C   UNL A   1     -28.410   1.338  27.328  0.00  0.00    +0.187 A 
ATOM     17  C   UNL A   1     -29.131   2.134  28.054  0.00  0.00    +0.201 A 
ATOM     18  C   UNL A   1     -30.402   2.456  27.765  0.00  0.00    +0.177 A 
ATOM     19  C   UNL A   1     -28.844   0.931  26.083  0.00  0.00    +0.072 A 
ATOM     20  C   UNL A   1     -30.134   1.198  25.680  0.00  0.00    +0.012 A 
ATOM     21  C   UNL A   1     -30.890   2.083  26.466  0.00  0.00    +0.034 A 
ATOM     22 BR   UNL A   1     -27.800  -0.174  24.986  0.00  0.00    -0.046 Br
ATOM     23  F   UNL A   1     -31.157   3.277  28.483  0.00  0.00    -0.201 F 
BRANCH  17  24
ATOM     24  O   UNL A   1     -28.651   2.511  29.317  0.00  0.00    -0.465 OA
BRANCH  24  25
ATOM     25  C   UNL A   1     -27.695   3.464  29.362  0.00  0.00    +0.232 C 
BRANCH  25  26
ATOM     26  C   UNL A   1     -27.938   4.537  30.276  0.00  0.00    +0.016 C 
ATOM     27  C   UNL A   1     -28.318   4.486  31.349  0.00  0.00    -0.027 C 
ATOM     28  C   UNL A   1     -28.535   5.583  32.266  0.00  0.00    +0.030 C 
ENDBRANCH  25  26
ENDBRANCH  24  25
ENDBRANCH  17  24
ENDBRANCH  15  16
ENDBRANCH   2  15
TORSDOF 6
