MODEL 1366
MODEL 1
REMARK VINA RESULT:    -5.997      0.000      0.000
REMARK INTER + INTRA:          -7.544
REMARK INTER:                  -7.049
REMARK INTRA:                  -0.495
REMARK UNBOUND:                -0.495
REMARK  Name = No_1366-gen_results/8p0m/2024-11-27-11-27-31/
REMARK  3 active torsions:
REMARK  status: ('A' for Active; 'I' for Inactive)
REMARK    1  A    between atoms: C_2  and  C_7
REMARK    2  A    between atoms: C_4  and  C_14
REMARK    3  A    between atoms: C_6  and  C_11
REMARK                            x       y       z     vdW  Elec       q    Type
REMARK                         _______ _______ _______ _____ _____    ______ ____
ROOT
ATOM      1  C   UNL A   1     -28.964 -10.415  32.801  0.00  0.00    +0.010 A 
ATOM      2  C   UNL A   1     -29.685  -9.744  32.100  0.00  0.00    +0.072 A 
ATOM      3  C   UNL A   1     -29.889 -10.067  30.763  0.00  0.00    +0.008 A 
ATOM      4  C   UNL A   1     -29.211 -11.185  30.159  0.00  0.00    +0.072 A 
ATOM      5  C   UNL A   1     -28.378 -11.891  31.036  0.00  0.00    +0.010 A 
ATOM      6  C   UNL A   1     -28.206 -11.535  32.288  0.00  0.00    +0.080 A 
ENDROOT
BRANCH   2   7
ATOM      7  C   UNL A   1     -30.442  -8.543  32.546  0.00  0.00    +0.419 C 
ATOM      8  F   UNL A   1     -31.562  -8.750  32.826  0.00  0.00    -0.166 F 
ATOM      9  F   UNL A   1     -29.837  -7.926  33.670  0.00  0.00    -0.166 F 
ATOM     10  F   UNL A   1     -30.350  -7.507  31.583  0.00  0.00    -0.166 F 
ENDBRANCH   2   7
BRANCH   4  11
ATOM     11  C   UNL A   1     -29.463 -11.479  28.758  0.00  0.00    +0.419 C 
ATOM     12  F   UNL A   1     -28.488 -11.817  28.201  0.00  0.00    -0.166 F 
ATOM     13  F   UNL A   1     -30.426 -12.506  28.625  0.00  0.00    -0.166 F 
ATOM     14  F   UNL A   1     -30.179 -10.408  28.240  0.00  0.00    -0.166 F 
ENDBRANCH   4  11
BRANCH   6  15
ATOM     15  C   UNL A   1     -27.235 -12.302  33.080  0.00  0.00    +0.388 C 
ATOM     16  O   UNL A   1     -26.371 -13.001  32.547  0.00  0.00    -0.241 OA
ATOM     17  O   UNL A   1     -27.313 -12.322  34.355  0.00  0.00    -0.241 OA
ENDBRANCH   6  15
TORSDOF 3
ENDMDL
ENDMDL
