REMARK  Name = No_1366-gen_results/8p0m/2024-11-27-11-27-31/
REMARK  3 active torsions:
REMARK  status: ('A' for Active; 'I' for Inactive)
REMARK    1  A    between atoms: C_2  and  C_7
REMARK    2  A    between atoms: C_4  and  C_14
REMARK    3  A    between atoms: C_6  and  C_11
REMARK                            x       y       z     vdW  Elec       q    Type
REMARK                         _______ _______ _______ _____ _____    ______ ____
ROOT
ATOM      1  C   UNL A   1     -28.016  -0.814  28.878  0.00  0.00    +0.010 A 
ATOM      2  C   UNL A   1     -27.064  -0.119  28.608  0.00  0.00    +0.072 A 
ATOM      3  C   UNL A   1     -25.792  -0.430  29.076  0.00  0.00    +0.008 A 
ATOM      4  C   UNL A   1     -25.576  -1.565  29.936  0.00  0.00    +0.072 A 
ATOM      5  C   UNL A   1     -26.735  -2.300  30.217  0.00  0.00    +0.010 A 
ATOM      6  C   UNL A   1     -27.918  -1.954  29.763  0.00  0.00    +0.080 A 
ENDROOT
BRANCH   2   7
ATOM      7  C   UNL A   1     -27.106   1.102  27.759  0.00  0.00    +0.419 C 
ATOM      8  F   UNL A   1     -28.103   1.242  27.157  0.00  0.00    -0.166 F 
ATOM      9  F   UNL A   1     -26.908   2.281  28.520  0.00  0.00    -0.166 F 
ATOM     10  F   UNL A   1     -25.987   1.146  26.890  0.00  0.00    -0.166 F 
ENDBRANCH   2   7
BRANCH   4  11
ATOM     11  C   UNL A   1     -24.225  -1.846  30.393  0.00  0.00    +0.419 C 
ATOM     12  F   UNL A   1     -23.716  -2.689  29.755  0.00  0.00    -0.166 F 
ATOM     13  F   UNL A   1     -23.417  -0.688  30.319  0.00  0.00    -0.166 F 
ATOM     14  F   UNL A   1     -24.288  -2.010  31.770  0.00  0.00    -0.166 F 
ENDBRANCH   4  11
BRANCH   6  15
ATOM     15  C   UNL A   1     -29.069  -2.753  30.205  0.00  0.00    +0.388 C 
ATOM     16  O   UNL A   1     -29.009  -3.980  30.299  0.00  0.00    -0.241 OA
ATOM     17  O   UNL A   1     -30.195  -2.193  30.431  0.00  0.00    -0.241 OA
ENDBRANCH   6  15
TORSDOF 3
