REMARK  Name = No_1367-gen_results/8p0m/2024-11-27-11-27-31/
REMARK  5 active torsions:
REMARK  status: ('A' for Active; 'I' for Inactive)
REMARK    1  A    between atoms: C_2  and  C_23
REMARK    2  A    between atoms: C_3  and  C_13
REMARK    3  A    between atoms: C_4  and  C_6
REMARK    4  A    between atoms: C_13  and  C_14
REMARK    5  A    between atoms: C_14  and  C_15
REMARK                            x       y       z     vdW  Elec       q    Type
REMARK                         _______ _______ _______ _____ _____    ______ ____
ROOT
ATOM      1  C   UNL A   1     -28.016  -0.814  28.878  0.00  0.00    +0.009 A 
ATOM      2  C   UNL A   1     -28.469  -0.785  29.829  0.00  0.00    +0.080 A 
ATOM      3  C   UNL A   1     -28.196   0.348  28.055  0.00  0.00    +0.035 A 
ATOM      4  C   UNL A   1     -29.019   1.350  28.378  0.00  0.00    +0.003 A 
ATOM      5  C   UNL A   1     -29.411   0.180  30.378  0.00  0.00    +0.007 A 
ATOM      6  C   UNL A   1     -29.587   1.224  29.619  0.00  0.00    +0.000 A 
ENDROOT
BRANCH   4   7
ATOM      7  C   UNL A   1     -29.224   2.492  27.543  0.00  0.00    +0.000 A 
ATOM      8  C   UNL A   1     -29.621   2.761  26.511  0.00  0.00    +0.000 A 
ATOM      9  C   UNL A   1     -29.704   4.031  25.768  0.00  0.00    +0.000 A 
ATOM     10  C   UNL A   1     -29.186   5.163  26.411  0.00  0.00    +0.000 A 
ATOM     11  C   UNL A   1     -28.622   5.015  27.630  0.00  0.00    +0.000 A 
ATOM     12  C   UNL A   1     -28.567   3.793  28.244  0.00  0.00    +0.000 A 
ENDBRANCH   4   7
BRANCH   2  13
ATOM     13  C   UNL A   1     -28.300  -2.058  30.853  0.00  0.00    +0.388 C 
ATOM     14  O   UNL A   1     -28.015  -1.741  31.940  0.00  0.00    -0.241 OA
ATOM     15  O   UNL A   1     -28.710  -3.204  30.459  0.00  0.00    -0.241 OA
ENDBRANCH   2  13
BRANCH   3  16
ATOM     16  C   UNL A   1     -27.464   0.364  26.715  0.00  0.00    +0.177 C 
ATOM     17  O   UNL A   1     -28.133   0.426  25.692  0.00  0.00    -0.291 OA
BRANCH  16  18
ATOM     18  C   UNL A   1     -26.028   0.286  26.743  0.00  0.00    +0.084 C 
ATOM     19  C   UNL A   1     -25.379   0.463  25.488  0.00  0.00    +0.013 C 
BRANCH  18  20
ATOM     20  C   UNL A   1     -25.303   0.146  27.933  0.00  0.00    -0.015 A 
ATOM     21  C   UNL A   1     -24.402   1.023  28.354  0.00  0.00    -0.004 A 
ATOM     22  C   UNL A   1     -23.318   0.612  29.137  0.00  0.00    -0.000 A 
ATOM     23  C   UNL A   1     -23.303  -0.690  29.707  0.00  0.00    -0.000 A 
ATOM     24  C   UNL A   1     -24.308  -1.570  29.326  0.00  0.00    -0.000 A 
ATOM     25  C   UNL A   1     -25.206  -1.222  28.405  0.00  0.00    -0.004 A 
ENDBRANCH  18  20
ENDBRANCH  16  18
ENDBRANCH   3  16
TORSDOF 5
