MODEL 1367
MODEL 1
REMARK VINA RESULT:    -8.045      0.000      0.000
REMARK INTER + INTRA:         -12.018
REMARK INTER:                 -10.397
REMARK INTRA:                  -1.621
REMARK UNBOUND:                -1.621
REMARK  Name = No_1367-gen_results/8p0m/2024-11-27-11-27-31/
REMARK  5 active torsions:
REMARK  status: ('A' for Active; 'I' for Inactive)
REMARK    1  A    between atoms: C_2  and  C_23
REMARK    2  A    between atoms: C_3  and  C_13
REMARK    3  A    between atoms: C_4  and  C_6
REMARK    4  A    between atoms: C_13  and  C_14
REMARK    5  A    between atoms: C_14  and  C_15
REMARK                            x       y       z     vdW  Elec       q    Type
REMARK                         _______ _______ _______ _____ _____    ______ ____
ROOT
ATOM      1  C   UNL A   1     -23.800  -2.821  29.475  0.00  0.00    +0.009 A 
ATOM      2  C   UNL A   1     -24.629  -3.471  29.478  0.00  0.00    +0.080 A 
ATOM      3  C   UNL A   1     -23.995  -1.543  30.099  0.00  0.00    +0.035 A 
ATOM      4  C   UNL A   1     -25.188  -1.110  30.517  0.00  0.00    +0.003 A 
ATOM      5  C   UNL A   1     -26.011  -3.209  29.855  0.00  0.00    +0.007 A 
ATOM      6  C   UNL A   1     -26.188  -2.041  30.403  0.00  0.00    +0.000 A 
ENDROOT
BRANCH   4   7
ATOM      7  C   UNL A   1     -25.389   0.176  31.108  0.00  0.00    +0.000 A 
ATOM      8  C   UNL A   1     -25.411   1.277  30.821  0.00  0.00    +0.000 A 
ATOM      9  C   UNL A   1     -25.581   2.514  31.603  0.00  0.00    +0.000 A 
ATOM     10  C   UNL A   1     -25.731   2.359  32.988  0.00  0.00    +0.000 A 
ATOM     11  C   UNL A   1     -25.673   1.115  33.511  0.00  0.00    +0.000 A 
ATOM     12  C   UNL A   1     -25.492   0.017  32.714  0.00  0.00    +0.000 A 
ENDBRANCH   4   7
BRANCH   2  13
ATOM     13  C   UNL A   1     -24.497  -4.965  28.808  0.00  0.00    +0.388 C 
ATOM     14  O   UNL A   1     -23.647  -5.040  28.012  0.00  0.00    -0.241 OA
ATOM     15  O   UNL A   1     -25.136  -5.928  29.358  0.00  0.00    -0.241 OA
ENDBRANCH   2  13
BRANCH   3  16
ATOM     16  C   UNL A   1     -22.776  -0.628  30.193  0.00  0.00    +0.177 C 
ATOM     17  O   UNL A   1     -22.303  -0.408  31.300  0.00  0.00    -0.291 OA
BRANCH  16  18
ATOM     18  C   UNL A   1     -22.272  -0.068  28.968  0.00  0.00    +0.084 C 
ATOM     19  C   UNL A   1     -20.914  -0.373  28.666  0.00  0.00    +0.013 C 
BRANCH  18  20
ATOM     20  C   UNL A   1     -23.081   0.647  28.076  0.00  0.00    -0.015 A 
ATOM     21  C   UNL A   1     -24.116   0.120  27.436  0.00  0.00    -0.004 A 
ATOM     22  C   UNL A   1     -24.499   0.603  26.180  0.00  0.00    -0.000 A 
ATOM     23  C   UNL A   1     -23.957   1.822  25.689  0.00  0.00    -0.000 A 
ATOM     24  C   UNL A   1     -22.934   2.412  26.421  0.00  0.00    -0.000 A 
ATOM     25  C   UNL A   1     -22.436   1.812  27.502  0.00  0.00    -0.004 A 
ENDBRANCH  18  20
ENDBRANCH  16  18
ENDBRANCH   3  16
TORSDOF 5
ENDMDL
ENDMDL
