MODEL 1368
MODEL 1
REMARK VINA RESULT:    -4.347      0.000      0.000
REMARK INTER + INTRA:          -4.347
REMARK INTER:                  -4.347
REMARK INTRA:                   0.000
REMARK UNBOUND:                 0.000
REMARK  Name = No_1368-gen_results/8p0m/2024-11-27-11-27-31/
REMARK  0 active torsions:
REMARK  status: ('A' for Active; 'I' for Inactive)
REMARK                            x       y       z     vdW  Elec       q    Type
REMARK                         _______ _______ _______ _____ _____    ______ ____
ROOT
ATOM      1  C   UNL A   1     -24.730  -2.711  29.172  0.00  0.00    +0.035 A 
ATOM      2  C   UNL A   1     -23.928  -3.389  28.572  0.00  0.00    +0.007 A 
ATOM      3  C   UNL A   1     -24.001  -4.766  28.491  0.00  0.00    +0.001 A 
ATOM      4  C   UNL A   1     -25.103  -5.414  29.116  0.00  0.00    +0.000 A 
ATOM      5  C   UNL A   1     -26.059  -4.603  29.626  0.00  0.00    +0.001 A 
ATOM      6  C   UNL A   1     -25.925  -3.291  29.624  0.00  0.00    +0.007 A 
ATOM      7 BR   UNL A   1     -24.335  -0.800  29.232  0.00  0.00    -0.049 Br
ENDROOT
TORSDOF 0
ENDMDL
ENDMDL
