REMARK  Name = No_137-gen_results/8p0m/2024-11-27-11-27-31/
REMARK  3 active torsions:
REMARK  status: ('A' for Active; 'I' for Inactive)
REMARK    1  A    between atoms: C_1  and  C_2
REMARK    2  A    between atoms: C_1  and  C_8
REMARK    3  A    between atoms: C_4  and  C_15
REMARK                            x       y       z     vdW  Elec       q    Type
REMARK                         _______ _______ _______ _____ _____    ______ ____
ROOT
ATOM      1  C   UNL A   1     -27.064  -0.119  28.608  0.00  0.00    -0.018 A 
ATOM      2  C   UNL A   1     -25.792  -0.430  29.076  0.00  0.00    -0.007 A 
ATOM      3  C   UNL A   1     -24.546   0.349  28.823  0.00  0.00    -0.012 A 
ATOM      4  C   UNL A   1     -24.659   1.420  27.888  0.00  0.00    +0.054 A 
ATOM      5  C   UNL A   1     -25.947   1.681  27.379  0.00  0.00    +0.011 A 
ATOM      6  C   UNL A   1     -27.044   0.974  27.687  0.00  0.00    -0.003 A 
ATOM      7 CL   UNL A   1     -23.266   2.284  27.493  0.00  0.00    -0.083 Cl
ENDROOT
BRANCH   3   8
ATOM      8  C   UNL A   1     -23.260  -0.084  29.355  0.00  0.00    +0.027 C 
ATOM      9  C   UNL A   1     -22.259   0.615  29.205  0.00  0.00    +0.005 C 
ENDBRANCH   3   8
BRANCH   1  10
ATOM     10  C   UNL A   1     -28.016  -0.814  28.878  0.00  0.00    +0.053 C 
BRANCH  10  11
ATOM     11  C   UNL A   1     -28.660  -0.460  30.201  0.00  0.00    -0.018 A 
ATOM     12  C   UNL A   1     -29.750  -1.249  30.677  0.00  0.00    -0.004 A 
ATOM     13  C   UNL A   1     -30.374  -0.977  31.847  0.00  0.00    -0.000 A 
ATOM     14  C   UNL A   1     -29.861   0.113  32.639  0.00  0.00    -0.000 A 
ATOM     15  C   UNL A   1     -28.774   0.823  32.221  0.00  0.00    -0.000 A 
ATOM     16  C   UNL A   1     -28.160   0.541  31.032  0.00  0.00    -0.004 A 
ENDBRANCH  10  11
ENDBRANCH   1  10
TORSDOF 3
