MODEL 1370
MODEL 1
REMARK VINA RESULT:    -5.310      0.000      0.000
REMARK INTER + INTRA:          -6.103
REMARK INTER:                  -5.931
REMARK INTRA:                  -0.172
REMARK UNBOUND:                -0.172
REMARK  Name = No_1370-gen_results/8p0m/2024-11-27-11-27-31/
REMARK  2 active torsions:
REMARK  status: ('A' for Active; 'I' for Inactive)
REMARK    1  A    between atoms: C_1  and  C_2
REMARK    2  A    between atoms: C_1  and  C_8
REMARK                            x       y       z     vdW  Elec       q    Type
REMARK                         _______ _______ _______ _____ _____    ______ ____
ROOT
ATOM      1  C   UNL A   1     -24.385  -1.845  28.645  0.00  0.00    -0.022 A 
ATOM      2  C   UNL A   1     -24.843  -0.843  27.808  0.00  0.00    -0.003 A 
ATOM      3  C   UNL A   1     -24.140   0.368  27.459  0.00  0.00    +0.011 A 
ATOM      4  C   UNL A   1     -22.857   0.588  28.014  0.00  0.00    +0.058 A 
ATOM      5  C   UNL A   1     -22.329  -0.401  28.885  0.00  0.00    +0.011 A 
ATOM      6  C   UNL A   1     -23.057  -1.523  29.129  0.00  0.00    -0.003 A 
ATOM      7 CL   UNL A   1     -21.792   1.815  27.602  0.00  0.00    -0.082 Cl
ENDROOT
BRANCH   1   8
ATOM      8  C   UNL A   1     -24.962  -2.884  28.869  0.00  0.00    +0.026 C 
BRANCH   8   9
ATOM      9  C   UNL A   1     -24.238  -4.187  28.724  0.00  0.00    +0.005 C 
ATOM     10  C   UNL A   1     -24.873  -5.399  29.070  0.00  0.00    +0.000 C 
ENDBRANCH   8   9
ENDBRANCH   1   8
TORSDOF 2
ENDMDL
ENDMDL
