REMARK  Name = No_1371-gen_results/8p0m/2024-11-27-11-27-31/
REMARK  11 active torsions:
REMARK  status: ('A' for Active; 'I' for Inactive)
REMARK    1  A    between atoms: C_1  and  C_6
REMARK    2  A    between atoms: C_4  and  C_11
REMARK    3  A    between atoms: C_6  and  N_9
REMARK    4  A    between atoms: N_9  and  C_10
REMARK    5  A    between atoms: C_10  and  C_16
REMARK    6  A    between atoms: C_16  and  C_17
REMARK    7  A    between atoms: C_16  and  C_27
REMARK    8  A    between atoms: C_17  and  C_18
REMARK    9  A    between atoms: C_18  and  C_20
REMARK   10  A    between atoms: N_28  and  C_29
REMARK   11  A    between atoms: C_29  and  C_31
REMARK                            x       y       z     vdW  Elec       q    Type
REMARK                         _______ _______ _______ _____ _____    ______ ____
ROOT
ATOM      1  C   UNL A   1     -29.187  -2.592  31.988  0.00  0.00    +0.223 C 
ATOM      2  O   UNL A   1     -28.334  -2.069  33.095  0.00  0.00    -0.204 OA
ENDROOT
BRANCH   1   3
ATOM      3  N   UNL A   1     -29.117  -1.654  30.906  0.00  0.00    -0.218 NA
ATOM      4  C   UNL A   1     -30.246  -0.772  30.795  0.00  0.00    +0.094 C 
BRANCH   3   5
ATOM      5  C   UNL A   1     -28.022  -1.590  30.088  0.00  0.00    +0.237 C 
ATOM      6  O   UNL A   1     -27.115  -2.378  30.350  0.00  0.00    -0.200 OA
BRANCH   5   7
ATOM      7  C   UNL A   1     -28.016  -0.814  28.878  0.00  0.00    +0.023 A 
ATOM      8  C   UNL A   1     -27.064  -0.119  28.608  0.00  0.00    -0.001 A 
ATOM      9  C   UNL A   1     -26.972   0.714  27.506  0.00  0.00    +0.004 A 
ATOM     10  C   UNL A   1     -28.105   0.774  26.642  0.00  0.00    +0.071 A 
ATOM     11  C   UNL A   1     -29.201   0.104  27.053  0.00  0.00    +0.004 A 
ATOM     12  C   UNL A   1     -29.164  -0.639  28.148  0.00  0.00    -0.001 A 
BRANCH  10  13
ATOM     13  C   UNL A   1     -28.005   1.659  25.455  0.00  0.00    +0.419 C 
ATOM     14  F   UNL A   1     -28.422   2.604  25.668  0.00  0.00    -0.166 F 
ATOM     15  F   UNL A   1     -26.692   1.728  25.054  0.00  0.00    -0.166 F 
ATOM     16  F   UNL A   1     -28.613   0.987  24.386  0.00  0.00    -0.166 F 
ENDBRANCH  10  13
ENDBRANCH   5   7
ENDBRANCH   3   5
ENDBRANCH   1   3
BRANCH   1  17
ATOM     17  C   UNL A   1     -30.483  -2.773  32.399  0.00  0.00    +0.120 C 
BRANCH  17  18
ATOM     18  C   UNL A   1     -30.876  -2.210  33.676  0.00  0.00    +0.213 C 
ATOM     19  N   UNL A   1     -31.750  -2.313  34.215  0.00  0.00    -0.032 NA
BRANCH  19  20
ATOM     20  C   UNL A   1     -32.142  -1.718  35.399  0.00  0.00    +0.427 C 
ATOM     21  N   UNL A   1     -33.319  -1.888  36.025  0.00  0.00    +0.200 NA
BRANCH  20  22
ATOM     22  C   UNL A   1     -31.165  -0.758  35.983  0.00  0.00    +0.101 C 
ATOM     23  C   UNL A   1     -29.965  -0.561  35.367  0.00  0.00    +0.008 C 
ENDBRANCH  20  22
ENDBRANCH  19  20
ENDBRANCH  17  18
BRANCH  17  24
ATOM     24  C   UNL A   1     -31.088  -3.519  31.779  0.00  0.00    +0.039 C 
BRANCH  24  25
ATOM     25  C   UNL A   1     -30.612  -4.136  30.709  0.00  0.00    -0.022 C 
ATOM     26  C   UNL A   1     -29.411  -4.843  30.998  0.00  0.00    -0.005 C 
BRANCH  25  27
ATOM     27  C   UNL A   1     -31.487  -4.992  29.716  0.00  0.00    -0.004 A 
ATOM     28  C   UNL A   1     -31.042  -5.346  28.611  0.00  0.00    -0.000 A 
ATOM     29  C   UNL A   1     -31.618  -5.477  27.746  0.00  0.00    -0.000 A 
ATOM     30  C   UNL A   1     -32.986  -5.536  27.659  0.00  0.00    -0.000 A 
ATOM     31  C   UNL A   1     -33.613  -5.142  28.850  0.00  0.00    -0.000 A 
ATOM     32  C   UNL A   1     -32.863  -4.739  29.851  0.00  0.00    -0.000 A 
ENDBRANCH  25  27
ENDBRANCH  24  25
ENDBRANCH  17  24
ENDBRANCH   1  17
TORSDOF 11
