MODEL 1371
MODEL 1
REMARK VINA RESULT:    -7.708      0.000      0.000
REMARK INTER + INTRA:         -14.639
REMARK INTER:                 -12.665
REMARK INTRA:                  -1.974
REMARK UNBOUND:                -1.974
REMARK  Name = No_1371-gen_results/8p0m/2024-11-27-11-27-31/
REMARK  11 active torsions:
REMARK  status: ('A' for Active; 'I' for Inactive)
REMARK    1  A    between atoms: C_1  and  C_6
REMARK    2  A    between atoms: C_4  and  C_11
REMARK    3  A    between atoms: C_6  and  N_9
REMARK    4  A    between atoms: N_9  and  C_10
REMARK    5  A    between atoms: C_10  and  C_16
REMARK    6  A    between atoms: C_16  and  C_17
REMARK    7  A    between atoms: C_16  and  C_27
REMARK    8  A    between atoms: C_17  and  C_18
REMARK    9  A    between atoms: C_18  and  C_20
REMARK   10  A    between atoms: N_28  and  C_29
REMARK   11  A    between atoms: C_29  and  C_31
REMARK                            x       y       z     vdW  Elec       q    Type
REMARK                         _______ _______ _______ _____ _____    ______ ____
ROOT
ATOM      1  C   UNL A   1      -9.044   0.907  37.034  0.00  0.00    +0.223 C 
ATOM      2  O   UNL A   1      -9.153   2.070  37.962  0.00  0.00    -0.204 OA
ENDROOT
BRANCH   1   3
ATOM      3  N   UNL A   1      -8.501   1.388  35.797  0.00  0.00    -0.218 NA
ATOM      4  C   UNL A   1      -8.300   2.809  35.737  0.00  0.00    +0.094 C 
BRANCH   3   5
ATOM      5  C   UNL A   1      -8.161   0.531  34.787  0.00  0.00    +0.237 C 
ATOM      6  O   UNL A   1      -8.906   0.538  33.809  0.00  0.00    -0.200 OA
BRANCH   5   7
ATOM      7  C   UNL A   1      -6.905  -0.169  34.769  0.00  0.00    +0.023 A 
ATOM      8  C   UNL A   1      -5.867   0.446  34.835  0.00  0.00    -0.001 A 
ATOM      9  C   UNL A   1      -4.602  -0.114  34.767  0.00  0.00    +0.004 A 
ATOM     10  C   UNL A   1      -4.528  -1.525  34.572  0.00  0.00    +0.071 A 
ATOM     11  C   UNL A   1      -5.699  -2.156  34.353  0.00  0.00    +0.004 A 
ATOM     12  C   UNL A   1      -6.843  -1.495  34.420  0.00  0.00    -0.001 A 
BRANCH  10  13
ATOM     13  C   UNL A   1      -3.173  -2.128  34.508  0.00  0.00    +0.419 C 
ATOM     14  F   UNL A   1      -2.932  -2.583  35.428  0.00  0.00    -0.166 F 
ATOM     15  F   UNL A   1      -3.119  -2.999  33.446  0.00  0.00    -0.166 F 
ATOM     16  F   UNL A   1      -2.288  -1.116  34.115  0.00  0.00    -0.166 F 
ENDBRANCH  10  13
ENDBRANCH   5   7
ENDBRANCH   3   5
ENDBRANCH   1   3
BRANCH   1  17
ATOM     17  C   UNL A   1     -10.263   0.309  36.837  0.00  0.00    +0.120 C 
BRANCH  17  18
ATOM     18  C   UNL A   1     -11.380   1.152  36.458  0.00  0.00    +0.213 C 
ATOM     19  N   UNL A   1     -11.805   1.329  35.535  0.00  0.00    -0.032 NA
BRANCH  19  20
ATOM     20  C   UNL A   1     -12.826   2.186  35.174  0.00  0.00    +0.427 C 
ATOM     21  N   UNL A   1     -13.125   2.591  33.927  0.00  0.00    +0.200 NA
BRANCH  20  22
ATOM     22  C   UNL A   1     -13.620   2.743  36.304  0.00  0.00    +0.101 C 
ATOM     23  C   UNL A   1     -14.858   3.261  36.067  0.00  0.00    +0.008 C 
ENDBRANCH  20  22
ENDBRANCH  19  20
ENDBRANCH  17  18
BRANCH  17  24
ATOM     24  C   UNL A   1     -10.328  -0.781  37.176  0.00  0.00    +0.039 C 
BRANCH  24  25
ATOM     25  C   UNL A   1     -11.155  -1.205  38.118  0.00  0.00    -0.022 C 
ATOM     26  C   UNL A   1     -11.768  -2.441  37.766  0.00  0.00    -0.005 C 
BRANCH  25  27
ATOM     27  C   UNL A   1     -10.814  -1.220  39.657  0.00  0.00    -0.004 A 
ATOM     28  C   UNL A   1      -9.695  -0.871  40.069  0.00  0.00    -0.000 A 
ATOM     29  C   UNL A   1      -9.221  -1.259  40.919  0.00  0.00    -0.000 A 
ATOM     30  C   UNL A   1      -9.780  -2.035  41.902  0.00  0.00    -0.000 A 
ATOM     31  C   UNL A   1     -11.053  -2.507  41.549  0.00  0.00    -0.000 A 
ATOM     32  C   UNL A   1     -11.526  -2.208  40.360  0.00  0.00    -0.000 A 
ENDBRANCH  25  27
ENDBRANCH  24  25
ENDBRANCH  17  24
ENDBRANCH   1  17
TORSDOF 11
ENDMDL
ENDMDL
