REMARK  Name = outputs/IAG933/test6/raw/output_1372_IAG933_linker_design_.xyz
REMARK  12 active torsions:
REMARK  status: ('A' for Active; 'I' for Inactive)
REMARK    1  A    between atoms: C_1  and  C_2
REMARK    2  A    between atoms: C_1  and  C_8
REMARK    3  A    between atoms: C_9  and  C_39
REMARK    4  A    between atoms: C_13  and  C_42
REMARK    5  A    between atoms: C_14  and  C_15
REMARK    6  A    between atoms: C_21  and  O_22
REMARK    7  A    between atoms: O_22  and  C_23
REMARK    8  A    between atoms: C_23  and  C_24
REMARK    9  A    between atoms: C_31  and  C_36
REMARK   10  A    between atoms: C_31  and  N_38
REMARK   11  A    between atoms: C_34  and  C_39
REMARK   12  A    between atoms: N_38  and  C_39
REMARK                            x       y       z     vdW  Elec       q    Type
REMARK                         _______ _______ _______ _____ _____    ______ ____
ROOT
ATOM      1  C   UNL A   1     -21.785   1.206  28.779  0.00  0.00    -0.029 C 
ATOM      2  C   UNL A   1     -24.172   0.473  27.923  0.00  0.00    +0.028 C 
ATOM      3  C   UNL A   1     -21.014   1.672  27.577  0.00  0.00    -0.026 C 
ATOM      4  C   UNL A   1     -21.779   2.070  26.238  0.00  0.00    +0.051 C 
ATOM      5  C   UNL A   1     -23.322   2.079  25.990  0.00  0.00    -0.029 C 
ATOM      6  C   UNL A   1     -23.239   1.229  28.743  0.00  0.00    +0.043 C 
ATOM      7  C   UNL A   1     -24.410   1.404  26.833  0.00  0.00    -0.041 C 
ENDROOT
BRANCH   7   8
ATOM      8  C   UNL A   1     -25.688   1.614  26.461  0.00  0.00    +0.088 C 
ATOM      9  C   UNL A   1     -26.250   2.920  26.395  0.00  0.00    +0.059 C 
ATOM     10  C   UNL A   1     -27.438   3.091  25.645  0.00  0.00    +0.102 C 
ATOM     11  N   UNL A   1     -28.075   2.089  25.003  0.00  0.00    -0.212 NA
ATOM     12  C   UNL A   1     -27.543   0.849  25.079  0.00  0.00    +0.234 C 
ATOM     13  C   UNL A   1     -26.354   0.576  25.777  0.00  0.00    +0.244 C 
ATOM     14  F   UNL A   1     -25.860  -0.681  25.795  0.00  0.00    -0.227 F 
BRANCH   9  15
ATOM     15  C   UNL A   1     -25.642   4.093  27.123  0.00  0.00    +0.263 C 
ATOM     16  N   UNL A   1     -25.614   5.252  26.449  0.00  0.00    -0.200 NA
ATOM     17  C   UNL A   1     -25.026   6.479  26.963  0.00  0.00    +0.139 C 
ATOM     18  O   UNL A   1     -25.143   3.966  28.243  0.00  0.00    -0.269 OA
ENDBRANCH   9  15
BRANCH  12  19
ATOM     19  O   UNL A   1     -28.193  -0.208  24.477  0.00  0.00    -0.459 OA
BRANCH  19  20
ATOM     20  C   UNL A   1     -29.460   0.005  23.866  0.00  0.00    +0.242 C 
BRANCH  20  21
ATOM     21  C   UNL A   1     -30.065  -1.377  23.573  0.00  0.00    +0.229 C 
ATOM     22  O   UNL A   1     -30.729  -1.878  24.721  0.00  0.00    -0.216 OA
ENDBRANCH  20  21
ENDBRANCH  19  20
ENDBRANCH  12  19
ENDBRANCH   7   8
BRANCH   6  23
ATOM     23  C   UNL A   1     -23.768   1.971  29.769  0.00  0.00    +0.094 C 
BRANCH  23  24
ATOM     24  N   UNL A   1     -25.127   2.392  30.038  0.00  0.00    -0.210 NA
BRANCH  24  25
ATOM     25  C   UNL A   1     -25.792   2.082  31.404  0.00  0.00    +0.150 C 
BRANCH  25  27
ATOM     26  C   UNL A   1     -25.387  -0.679  31.571  0.00  0.00    +0.079 C 
ATOM     27  C   UNL A   1     -25.189   0.773  32.028  0.00  0.00    +0.043 C 
ATOM     28  C   UNL A   1     -25.336   0.684  33.544  0.00  0.00    +0.022 C 
ATOM     29  C   UNL A   1     -24.829  -0.715  33.905  0.00  0.00    +0.089 C 
ATOM     30  N   UNL A   1     -24.758  -1.481  32.646  0.00  0.00    -0.219 NA
BRANCH  26  31
ATOM     31  C   UNL A   1     -24.855  -1.012  30.143  0.00  0.00    +0.044 C 
BRANCH  31  32
ATOM     32  C   UNL A   1     -24.973  -2.505  29.788  0.00  0.00    -0.021 C 
ATOM     33  C   UNL A   1     -23.906  -3.173  29.146  0.00  0.00    -0.004 C 
ATOM     34  C   UNL A   1     -23.989  -4.549  28.853  0.00  0.00    -0.000 C 
ATOM     35  C   UNL A   1     -25.137  -5.280  29.205  0.00  0.00    -0.000 C 
ATOM     36  C   UNL A   1     -26.232  -4.611  29.784  0.00  0.00    -0.000 C 
ATOM     37  C   UNL A   1     -26.155  -3.232  30.065  0.00  0.00    -0.004 C 
ENDBRANCH  31  32
ENDBRANCH  26  31
ENDBRANCH  25  27
BRANCH  25  39
ATOM     38  O   UNL A   1     -24.625   3.933  32.318  0.00  0.00    -0.273 OA
ATOM     39  C   UNL A   1     -25.694   3.331  32.343  0.00  0.00    +0.242 C 
ATOM     40  N   UNL A   1     -26.789   3.826  33.055  0.00  0.00    -0.275 N 
ATOM     41  C   UNL A   1     -27.020   5.247  32.651  0.00  0.00    +0.115 C 
ATOM     42  C   UNL A   1     -26.752   3.822  34.538  0.00  0.00    +0.115 C 
ENDBRANCH  25  39
ENDBRANCH  24  25
ENDBRANCH  23  24
ENDBRANCH   6  23
TORSDOF 12
