MODEL 1372
MODEL 1
REMARK VINA RESULT:    -4.849      0.000      0.000
REMARK INTER + INTRA:          -5.167
REMARK INTER:                  -5.132
REMARK INTRA:                  -0.035
REMARK UNBOUND:                -0.035
REMARK  Name = No_1372-gen_results/8p0m/2024-11-27-11-27-31/
REMARK  1 active torsions:
REMARK  status: ('A' for Active; 'I' for Inactive)
REMARK    1  A    between atoms: C_1  and  C_8
REMARK                            x       y       z     vdW  Elec       q    Type
REMARK                         _______ _______ _______ _____ _____    ______ ____
ROOT
ATOM      1  C   UNL A   1     -27.797 -12.048  31.860  0.00  0.00    -0.014 C 
ATOM      2  C   UNL A   1     -28.591 -11.557  31.090  0.00  0.00    -0.047 C 
ATOM      3  C   UNL A   1     -28.715 -11.892  29.753  0.00  0.00    +0.022 C 
ATOM      4  C   UNL A   1     -29.594 -11.268  28.794  0.00  0.00    +0.004 C 
ATOM      5  C   UNL A   1     -30.430 -10.212  29.230  0.00  0.00    +0.001 C 
ATOM      6  C   UNL A   1     -30.355  -9.822  30.592  0.00  0.00    +0.004 C 
ATOM      7  C   UNL A   1     -29.472 -10.453  31.413  0.00  0.00    +0.022 C 
ENDROOT
BRANCH   1   8
ATOM      8  C   UNL A   1     -27.876 -11.713  33.323  0.00  0.00    +0.135 C 
ATOM      9  N   UNL A   1     -27.188 -12.383  34.233  0.00  0.00    -0.126 NA
ENDBRANCH   1   8
TORSDOF 1
ENDMDL
ENDMDL
