MODEL 1373
MODEL 1
REMARK VINA RESULT:    -4.354      0.000      0.000
REMARK INTER + INTRA:          -4.354
REMARK INTER:                  -4.354
REMARK INTRA:                   0.000
REMARK UNBOUND:                 0.000
REMARK  Name = No_1373-gen_results/8p0m/2024-11-27-11-27-31/
REMARK  0 active torsions:
REMARK  status: ('A' for Active; 'I' for Inactive)
REMARK                            x       y       z     vdW  Elec       q    Type
REMARK                         _______ _______ _______ _____ _____    ______ ____
ROOT
ATOM      1  C   UNL A   1     -24.168  -4.904  28.589  0.00  0.00    +0.000 A 
ATOM      2  C   UNL A   1     -25.017  -5.315  29.059  0.00  0.00    +0.000 A 
ATOM      3  C   UNL A   1     -24.065  -3.447  28.739  0.00  0.00    +0.000 A 
ATOM      4  C   UNL A   1     -25.048  -2.709  29.256  0.00  0.00    +0.000 A 
ATOM      5  C   UNL A   1     -26.198  -4.733  29.648  0.00  0.00    +0.000 A 
ATOM      6  C   UNL A   1     -26.094  -3.377  29.755  0.00  0.00    +0.000 A 
ENDROOT
TORSDOF 0
ENDMDL
ENDMDL
