REMARK  Name = No_1374-gen_results/8p0m/2024-11-27-11-27-31/
REMARK  2 active torsions:
REMARK  status: ('A' for Active; 'I' for Inactive)
REMARK    1  A    between atoms: C_4  and  C_6
REMARK    2  A    between atoms: C_6  and  C_8
REMARK                            x       y       z     vdW  Elec       q    Type
REMARK                         _______ _______ _______ _____ _____    ______ ____
ROOT
ATOM      1  C   UNL A   1     -24.398  -0.836  30.177  0.00  0.00    +0.053 C 
ENDROOT
BRANCH   1   5
ATOM      2  C   UNL A   1     -28.016  -0.814  28.878  0.00  0.00    -0.000 A 
ATOM      3  C   UNL A   1     -28.469  -0.785  29.829  0.00  0.00    -0.000 A 
ATOM      4  C   UNL A   1     -26.504  -0.778  28.877  0.00  0.00    -0.004 A 
ATOM      5  C   UNL A   1     -25.810  -0.853  30.103  0.00  0.00    -0.018 A 
ATOM      6  C   UNL A   1     -27.991  -0.892  31.226  0.00  0.00    -0.000 A 
ATOM      7  C   UNL A   1     -26.575  -0.890  31.266  0.00  0.00    -0.004 A 
ENDBRANCH   1   5
BRANCH   1   8
ATOM      8  C   UNL A   1     -23.796   0.436  29.909  0.00  0.00    -0.018 A 
ATOM      9  C   UNL A   1     -24.169   1.590  30.314  0.00  0.00    -0.004 A 
ATOM     10  C   UNL A   1     -23.660   2.805  29.796  0.00  0.00    -0.000 A 
ATOM     11  C   UNL A   1     -22.826   2.646  28.640  0.00  0.00    -0.000 A 
ATOM     12  C   UNL A   1     -22.878   0.603  28.732  0.00  0.00    -0.004 A 
ATOM     13  C   UNL A   1     -22.402   1.594  28.217  0.00  0.00    -0.000 A 
ENDBRANCH   1   8
TORSDOF 2
