MODEL 1374
MODEL 1
REMARK VINA RESULT:    -6.584      0.000      0.000
REMARK INTER + INTRA:          -7.846
REMARK INTER:                  -7.353
REMARK INTRA:                  -0.492
REMARK UNBOUND:                -0.492
REMARK  Name = No_1374-gen_results/8p0m/2024-11-27-11-27-31/
REMARK  2 active torsions:
REMARK  status: ('A' for Active; 'I' for Inactive)
REMARK    1  A    between atoms: C_4  and  C_6
REMARK    2  A    between atoms: C_6  and  C_8
REMARK                            x       y       z     vdW  Elec       q    Type
REMARK                         _______ _______ _______ _____ _____    ______ ____
ROOT
ATOM      1  C   UNL A   1     -24.060  -1.391  29.952  0.00  0.00    +0.053 C 
ENDROOT
BRANCH   1   5
ATOM      2  C   UNL A   1     -22.321   1.243  27.757  0.00  0.00    -0.000 A 
ATOM      3  C   UNL A   1     -23.097   1.317  27.048  0.00  0.00    -0.000 A 
ATOM      4  C   UNL A   1     -22.588   0.309  28.917  0.00  0.00    -0.004 A 
ATOM      5  C   UNL A   1     -23.752  -0.488  28.908  0.00  0.00    -0.018 A 
ATOM      6  C   UNL A   1     -24.361   0.592  26.791  0.00  0.00    -0.000 A 
ATOM      7  C   UNL A   1     -24.633  -0.316  27.844  0.00  0.00    -0.004 A 
ENDBRANCH   1   5
BRANCH   1   8
ATOM      8  C   UNL A   1     -24.690  -2.607  29.531  0.00  0.00    -0.018 A 
ATOM      9  C   UNL A   1     -25.792  -3.111  29.940  0.00  0.00    -0.004 A 
ATOM     10  C   UNL A   1     -26.205  -4.433  29.647  0.00  0.00    -0.000 A 
ATOM     11  C   UNL A   1     -25.200  -5.234  29.011  0.00  0.00    -0.000 A 
ATOM     12  C   UNL A   1     -23.886  -3.675  28.847  0.00  0.00    -0.004 A 
ATOM     13  C   UNL A   1     -24.152  -4.826  28.565  0.00  0.00    -0.000 A 
ENDBRANCH   1   8
TORSDOF 2
ENDMDL
ENDMDL
