MODEL 1375
MODEL 1
REMARK VINA RESULT:    -2.770      0.000      0.000
REMARK INTER + INTRA:          -2.770
REMARK INTER:                  -2.770
REMARK INTRA:                   0.000
REMARK UNBOUND:                 0.000
REMARK  Name = No_1375-gen_results/8p0m/2024-11-27-11-27-31/
REMARK  0 active torsions:
REMARK  status: ('A' for Active; 'I' for Inactive)
REMARK                            x       y       z     vdW  Elec       q    Type
REMARK                         _______ _______ _______ _____ _____    ______ ____
ROOT
ATOM      1 BR   UNL A   1      -9.305 -10.212  17.684  0.00  0.00    +0.013 Br
ATOM      2  C   UNL A   1      -9.103  -9.677  18.935  0.00  0.00    +0.012 C 
ATOM      3  C   UNL A   1      -8.871  -9.262  19.826  0.00  0.00    +0.118 C 
ATOM      4  F   UNL A   1      -9.610  -9.238  20.552  0.00  0.00    -0.142 F 
ENDROOT
TORSDOF 0
ENDMDL
ENDMDL
