REMARK  Name = outputs/IAG933/test6/raw/output_1376_IAG933_linker_design_.xyz
REMARK  16 active torsions:
REMARK  status: ('A' for Active; 'I' for Inactive)
REMARK    1  A    between atoms: C_1  and  C_2
REMARK    2  A    between atoms: C_1  and  C_8
REMARK    3  A    between atoms: C_1  and  C_28
REMARK    4  A    between atoms: C_13  and  C_40
REMARK    5  A    between atoms: C_14  and  C_15
REMARK    6  A    between atoms: C_21  and  O_22
REMARK    7  A    between atoms: O_22  and  C_23
REMARK    8  A    between atoms: C_23  and  C_24
REMARK    9  A    between atoms: C_28  and  N_36
REMARK   10  A    between atoms: C_28  and  N_38
REMARK   11  A    between atoms: N_29  and  N_36
REMARK   12  A    between atoms: C_30  and  C_37
REMARK   13  A    between atoms: C_35  and  C_37
REMARK   14  A    between atoms: C_35  and  C_41
REMARK   15  A    between atoms: N_36  and  C_40
REMARK   16  A    between atoms: N_38  and  C_41
REMARK                            x       y       z     vdW  Elec       q    Type
REMARK                         _______ _______ _______ _____ _____    ______ ____
ROOT
ATOM      1  N   UNL A   1     -24.319   0.416  28.135  0.00  0.00    -0.200 N 
ENDROOT
BRANCH   1   2
ATOM      2  N   UNL A   1     -23.077   0.067  28.331  0.00  0.00    -0.183 NA
ATOM      3  C   UNL A   1     -21.832   0.310  28.247  0.00  0.00    +0.091 C 
ATOM      4  C   UNL A   1     -20.991   1.218  27.658  0.00  0.00    +0.055 C 
ENDBRANCH   1   2
BRANCH   1   6
ATOM      5 CL   UNL A   1     -23.095   1.826  25.728  0.00  0.00    -0.086 Cl
ATOM      6  C   UNL A   1     -24.352   1.336  27.004  0.00  0.00    +0.196 C 
BRANCH   6   7
ATOM      7  C   UNL A   1     -25.688   1.614  26.461  0.00  0.00    +0.051 C 
ATOM      8  C   UNL A   1     -26.250   2.920  26.395  0.00  0.00    +0.075 C 
ATOM      9  C   UNL A   1     -27.438   3.091  25.645  0.00  0.00    +0.106 C 
ATOM     10  N   UNL A   1     -28.075   2.089  25.003  0.00  0.00    -0.208 NA
ATOM     11  C   UNL A   1     -27.543   0.849  25.079  0.00  0.00    +0.253 C 
ATOM     12  C   UNL A   1     -26.354   0.576  25.777  0.00  0.00    +0.192 C 
ATOM     13  F   UNL A   1     -25.860  -0.681  25.795  0.00  0.00    -0.200 F 
BRANCH   8  14
ATOM     14  C   UNL A   1     -25.642   4.093  27.123  0.00  0.00    +0.266 C 
ATOM     15  N   UNL A   1     -25.614   5.252  26.449  0.00  0.00    -0.200 NA
ATOM     16  C   UNL A   1     -25.026   6.479  26.963  0.00  0.00    +0.139 C 
ATOM     17  O   UNL A   1     -25.143   3.966  28.243  0.00  0.00    -0.268 OA
ENDBRANCH   8  14
BRANCH  11  18
ATOM     18  O   UNL A   1     -28.193  -0.208  24.477  0.00  0.00    -0.456 OA
BRANCH  18  19
ATOM     19  C   UNL A   1     -29.460   0.005  23.866  0.00  0.00    +0.243 C 
BRANCH  19  20
ATOM     20  C   UNL A   1     -30.065  -1.377  23.573  0.00  0.00    +0.229 C 
ATOM     21  O   UNL A   1     -30.729  -1.878  24.721  0.00  0.00    -0.216 OA
ENDBRANCH  19  20
ENDBRANCH  18  19
ENDBRANCH  11  18
ENDBRANCH   6   7
ENDBRANCH   1   6
BRANCH   1  22
ATOM     22  C   UNL A   1     -25.299  -0.131  28.967  0.00  0.00    +0.171 C 
BRANCH  22  23
ATOM     23  C   UNL A   1     -24.855  -1.012  30.143  0.00  0.00    +0.075 C 
BRANCH  23  24
ATOM     24  C   UNL A   1     -24.973  -2.505  29.788  0.00  0.00    -0.018 C 
ATOM     25  C   UNL A   1     -23.906  -3.173  29.146  0.00  0.00    -0.004 C 
ATOM     26  C   UNL A   1     -23.989  -4.549  28.853  0.00  0.00    -0.000 C 
ATOM     27  C   UNL A   1     -25.137  -5.280  29.205  0.00  0.00    -0.000 C 
ATOM     28  C   UNL A   1     -26.232  -4.611  29.784  0.00  0.00    -0.000 C 
ATOM     29  C   UNL A   1     -26.155  -3.232  30.065  0.00  0.00    -0.004 C 
ENDBRANCH  23  24
BRANCH  23  30
ATOM     30  C   UNL A   1     -25.387  -0.679  31.571  0.00  0.00    +0.080 C 
ATOM     31  C   UNL A   1     -25.189   0.773  32.028  0.00  0.00    +0.019 C 
ATOM     32  C   UNL A   1     -25.336   0.684  33.544  0.00  0.00    +0.020 C 
ATOM     33  C   UNL A   1     -24.829  -0.715  33.905  0.00  0.00    +0.089 C 
ATOM     34  N   UNL A   1     -24.758  -1.481  32.646  0.00  0.00    -0.219 NA
ENDBRANCH  23  30
ENDBRANCH  22  23
BRANCH  22  35
ATOM     35  N   UNL A   1     -26.529   0.113  28.700  0.00  0.00    -0.196 NA
BRANCH  35  36
ATOM     36  C   UNL A   1     -27.698  -0.731  28.610  0.00  0.00    +0.123 C 
BRANCH  36  38
ATOM     37  O   UNL A   1     -29.974  -0.309  28.455  0.00  0.00    -0.222 OA
ATOM     38  C   UNL A   1     -28.863   0.087  29.285  0.00  0.00    +0.172 C 
BRANCH  38  39
ATOM     39  C   UNL A   1     -28.902   1.662  29.312  0.00  0.00    +0.070 C 
BRANCH  39  40
ATOM     40  C   UNL A   1     -27.771   2.377  30.069  0.00  0.00    +0.185 C 
ATOM     41  O   UNL A   1     -28.264   3.340  30.965  0.00  0.00    -0.220 OA
ENDBRANCH  39  40
ENDBRANCH  38  39
ENDBRANCH  36  38
ENDBRANCH  35  36
ENDBRANCH  22  35
ENDBRANCH   1  22
TORSDOF 16
