MODEL 1377
MODEL 1
REMARK VINA RESULT:    -4.890      0.000      0.000
REMARK INTER + INTRA:          -5.222
REMARK INTER:                  -5.176
REMARK INTRA:                  -0.047
REMARK UNBOUND:                -0.047
REMARK  Name = No_1377-gen_results/8p0m/2024-11-27-11-27-31/
REMARK  1 active torsions:
REMARK  status: ('A' for Active; 'I' for Inactive)
REMARK    1  A    between atoms: C_1  and  C_8
REMARK                            x       y       z     vdW  Elec       q    Type
REMARK                         _______ _______ _______ _____ _____    ______ ____
ROOT
ATOM      1  C   UNL A   1     -23.317  -2.040  28.934  0.00  0.00    -0.014 C 
ATOM      2  C   UNL A   1     -24.182  -2.848  29.184  0.00  0.00    -0.047 C 
ATOM      3  C   UNL A   1     -24.116  -4.201  28.898  0.00  0.00    +0.022 C 
ATOM      4  C   UNL A   1     -25.163  -5.171  29.110  0.00  0.00    +0.004 C 
ATOM      5  C   UNL A   1     -26.387  -4.733  29.669  0.00  0.00    +0.001 C 
ATOM      6  C   UNL A   1     -26.519  -3.357  29.989  0.00  0.00    +0.004 C 
ATOM      7  C   UNL A   1     -25.484  -2.514  29.724  0.00  0.00    +0.022 C 
ENDROOT
BRANCH   1   8
ATOM      8  C   UNL A   1     -23.444  -0.633  29.444  0.00  0.00    +0.135 C 
ATOM      9  N   UNL A   1     -22.505  -0.069  30.186  0.00  0.00    -0.126 NA
ENDBRANCH   1   8
TORSDOF 1
ENDMDL
ENDMDL
