REMARK  Name = No_1378-gen_results/8p0m/2024-11-27-11-27-31/
REMARK  4 active torsions:
REMARK  status: ('A' for Active; 'I' for Inactive)
REMARK    1  A    between atoms: C_2  and  C_14
REMARK    2  A    between atoms: C_6  and  O_8
REMARK    3  A    between atoms: O_8  and  C_9
REMARK    4  A    between atoms: C_9  and  C_10
REMARK                            x       y       z     vdW  Elec       q    Type
REMARK                         _______ _______ _______ _____ _____    ______ ____
ROOT
ATOM      1  C   UNL A   1     -28.016  -0.814  28.878  0.00  0.00    +0.038 A 
ATOM      2  C   UNL A   1     -27.064  -0.119  28.608  0.00  0.00    +0.014 A 
ATOM      3  C   UNL A   1     -25.765  -0.390  29.036  0.00  0.00    +0.068 A 
ATOM      4  C   UNL A   1     -25.530  -1.530  29.901  0.00  0.00    +0.071 A 
ATOM      5  C   UNL A   1     -26.689  -2.289  30.181  0.00  0.00    +0.050 A 
ATOM      6  C   UNL A   1     -27.873  -1.951  29.737  0.00  0.00    +0.150 A 
ATOM      7 CL   UNL A   1     -24.382   0.559  28.679  0.00  0.00    -0.081 Cl
ATOM      8 CL   UNL A   1     -23.974  -1.889  30.419  0.00  0.00    -0.081 Cl
ENDROOT
BRANCH   2   9
ATOM      9  C   UNL A   1     -27.151   1.079  27.640  0.00  0.00    +0.001 A 
ATOM     10  C   UNL A   1     -27.065   2.255  28.152  0.00  0.00    +0.000 A 
ATOM     11  C   UNL A   1     -27.149   3.386  27.293  0.00  0.00    +0.000 A 
ATOM     12  C   UNL A   1     -27.264   3.157  25.897  0.00  0.00    +0.000 A 
ATOM     13  C   UNL A   1     -27.217   0.947  26.259  0.00  0.00    +0.000 A 
ATOM     14  C   UNL A   1     -27.282   1.919  25.411  0.00  0.00    +0.000 A 
ENDBRANCH   2   9
BRANCH   6  15
ATOM     15  O   UNL A   1     -28.960  -2.734  30.097  0.00  0.00    -0.416 OA
BRANCH  15  16
ATOM     16  C   UNL A   1     -30.055  -2.140  30.608  0.00  0.00    +0.427 C 
ATOM     17  O   UNL A   1     -30.599  -1.314  30.017  0.00  0.00    -0.237 OA
BRANCH  16  18
ATOM     18  C   UNL A   1     -30.615  -2.928  31.619  0.00  0.00    +0.463 C 
ATOM     19  O   UNL A   1     -31.587  -2.496  32.170  0.00  0.00    -0.233 OA
ATOM     20  O   UNL A   1     -29.901  -3.775  32.215  0.00  0.00    -0.233 OA
ENDBRANCH  16  18
ENDBRANCH  15  16
ENDBRANCH   6  15
TORSDOF 4
