MODEL 1378
MODEL 1
REMARK VINA RESULT:    -6.891      0.000      0.000
REMARK INTER + INTRA:          -9.186
REMARK INTER:                  -8.502
REMARK INTRA:                  -0.683
REMARK UNBOUND:                -0.683
REMARK  Name = No_1378-gen_results/8p0m/2024-11-27-11-27-31/
REMARK  4 active torsions:
REMARK  status: ('A' for Active; 'I' for Inactive)
REMARK    1  A    between atoms: C_2  and  C_14
REMARK    2  A    between atoms: C_6  and  O_8
REMARK    3  A    between atoms: O_8  and  C_9
REMARK    4  A    between atoms: C_9  and  C_10
REMARK                            x       y       z     vdW  Elec       q    Type
REMARK                         _______ _______ _______ _____ _____    ______ ____
ROOT
ATOM      1  C   UNL A   1     -25.046  -0.630  27.833  0.00  0.00    +0.038 A 
ATOM      2  C   UNL A   1     -24.786  -1.213  28.860  0.00  0.00    +0.014 A 
ATOM      3  C   UNL A   1     -24.448  -0.568  30.049  0.00  0.00    +0.068 A 
ATOM      4  C   UNL A   1     -24.340   0.878  30.062  0.00  0.00    +0.071 A 
ATOM      5  C   UNL A   1     -24.648   1.489  28.826  0.00  0.00    +0.050 A 
ATOM      6  C   UNL A   1     -24.950   0.797  27.756  0.00  0.00    +0.150 A 
ATOM      7 CL   UNL A   1     -24.076  -1.347  31.531  0.00  0.00    -0.081 Cl
ATOM      8 CL   UNL A   1     -23.950   1.681  31.483  0.00  0.00    -0.081 Cl
ENDROOT
BRANCH   2   9
ATOM      9  C   UNL A   1     -24.933  -2.741  29.013  0.00  0.00    +0.001 A 
ATOM     10  C   UNL A   1     -26.036  -3.178  29.508  0.00  0.00    +0.000 A 
ATOM     11  C   UNL A   1     -26.206  -4.581  29.673  0.00  0.00    +0.000 A 
ATOM     12  C   UNL A   1     -25.167  -5.437  29.224  0.00  0.00    +0.000 A 
ATOM     13  C   UNL A   1     -23.988  -3.652  28.559  0.00  0.00    +0.000 A 
ATOM     14  C   UNL A   1     -24.072  -4.937  28.657  0.00  0.00    +0.000 A 
ENDBRANCH   2   9
BRANCH   6  15
ATOM     15  O   UNL A   1     -25.197   1.483  26.576  0.00  0.00    -0.416 OA
BRANCH  15  16
ATOM     16  C   UNL A   1     -24.328   1.363  25.554  0.00  0.00    +0.427 C 
ATOM     17  O   UNL A   1     -24.543   0.632  24.690  0.00  0.00    -0.237 OA
BRANCH  16  18
ATOM     18  C   UNL A   1     -23.483   2.476  25.495  0.00  0.00    +0.463 C 
ATOM     19  O   UNL A   1     -23.979   3.547  25.700  0.00  0.00    -0.233 OA
ATOM     20  O   UNL A   1     -22.419   2.414  24.828  0.00  0.00    -0.233 OA
ENDBRANCH  16  18
ENDBRANCH  15  16
ENDBRANCH   6  15
TORSDOF 4
ENDMDL
ENDMDL
