MODEL 137
MODEL 1
REMARK VINA RESULT:    -7.294      0.000      0.000
REMARK INTER + INTRA:          -9.241
REMARK INTER:                  -8.573
REMARK INTRA:                  -0.668
REMARK UNBOUND:                -0.668
REMARK  Name = No_137-gen_results/8p0m/2024-11-27-11-27-31/
REMARK  3 active torsions:
REMARK  status: ('A' for Active; 'I' for Inactive)
REMARK    1  A    between atoms: C_1  and  C_2
REMARK    2  A    between atoms: C_1  and  C_8
REMARK    3  A    between atoms: C_4  and  C_15
REMARK                            x       y       z     vdW  Elec       q    Type
REMARK                         _______ _______ _______ _____ _____    ______ ____
ROOT
ATOM      1  C   UNL A   1     -24.196  -0.428  28.982  0.00  0.00    -0.018 A 
ATOM      2  C   UNL A   1     -24.944  -0.247  27.824  0.00  0.00    -0.007 A 
ATOM      3  C   UNL A   1     -24.529   0.529  26.621  0.00  0.00    -0.012 A 
ATOM      4  C   UNL A   1     -23.319   1.274  26.745  0.00  0.00    +0.054 A 
ATOM      5  C   UNL A   1     -22.606   1.123  27.951  0.00  0.00    +0.011 A 
ATOM      6  C   UNL A   1     -23.007   0.365  28.982  0.00  0.00    -0.003 A 
ATOM      7 CL   UNL A   1     -22.841   2.241  25.449  0.00  0.00    -0.083 Cl
ENDROOT
BRANCH   3   8
ATOM      8  C   UNL A   1     -25.408   0.664  25.466  0.00  0.00    +0.027 C 
ATOM      9  C   UNL A   1     -25.593  -0.290  24.711  0.00  0.00    +0.005 C 
ENDBRANCH   3   8
BRANCH   1  10
ATOM     10  C   UNL A   1     -24.621  -1.086  29.904  0.00  0.00    +0.053 C 
BRANCH  10  11
ATOM     11  C   UNL A   1     -24.771  -2.555  29.572  0.00  0.00    -0.018 A 
ATOM     12  C   UNL A   1     -25.987  -3.223  29.907  0.00  0.00    -0.004 A 
ATOM     13  C   UNL A   1     -26.177  -4.537  29.646  0.00  0.00    -0.000 A 
ATOM     14  C   UNL A   1     -25.125  -5.240  28.956  0.00  0.00    -0.000 A 
ATOM     15  C   UNL A   1     -23.992  -4.587  28.569  0.00  0.00    -0.000 A 
ATOM     16  C   UNL A   1     -23.810  -3.260  28.849  0.00  0.00    -0.004 A 
ENDBRANCH  10  11
ENDBRANCH   1  10
TORSDOF 3
ENDMDL
ENDMDL
