REMARK  Name = outputs/IAG933/test6/raw/output_138_IAG933_linker_design_.xyz
REMARK  14 active torsions:
REMARK  status: ('A' for Active; 'I' for Inactive)
REMARK    1  A    between atoms: C_1  and  C_2
REMARK    2  A    between atoms: C_1  and  C_8
REMARK    3  A    between atoms: C_1  and  C_28
REMARK    4  A    between atoms: C_13  and  C_31
REMARK    5  A    between atoms: C_14  and  C_15
REMARK    6  A    between atoms: C_21  and  O_22
REMARK    7  A    between atoms: O_22  and  C_23
REMARK    8  A    between atoms: C_23  and  C_24
REMARK    9  A    between atoms: C_28  and  C_37
REMARK   10  A    between atoms: C_28  and  C_39
REMARK   11  A    between atoms: C_30  and  O_32
REMARK   12  A    between atoms: C_30  and  O_44
REMARK   13  A    between atoms: O_32  and  C_42
REMARK   14  A    between atoms: C_39  and  O_44
REMARK                            x       y       z     vdW  Elec       q    Type
REMARK                         _______ _______ _______ _____ _____    ______ ____
ROOT
ATOM      1  C   UNL A   1     -25.773  -0.340  29.113  0.00  0.00    +0.105 C 
ENDROOT
BRANCH   1   5
ATOM      2  C   UNL A   1     -24.167   1.307  26.833  0.00  0.00    +0.038 C 
ATOM      3  C   UNL A   1     -23.045   0.685  28.765  0.00  0.00    +0.036 C 
ATOM      4  C   UNL A   1     -23.493   1.789  25.541  0.00  0.00    +0.003 C 
ATOM      5  C   UNL A   1     -24.558   0.593  28.186  0.00  0.00    +0.017 C 
ATOM      6  C   UNL A   1     -22.542   1.081  27.599  0.00  0.00    +0.161 C 
ATOM      7  F   UNL A   1     -21.455   1.268  27.136  0.00  0.00    -0.237 F 
BRANCH   2   8
ATOM      8  C   UNL A   1     -25.688   1.614  26.461  0.00  0.00    +0.073 C 
ATOM      9  C   UNL A   1     -26.250   2.920  26.395  0.00  0.00    +0.055 C 
ATOM     10  C   UNL A   1     -27.438   3.091  25.645  0.00  0.00    +0.102 C 
ATOM     11  N   UNL A   1     -28.075   2.089  25.003  0.00  0.00    -0.212 NA
ATOM     12  C   UNL A   1     -27.543   0.849  25.079  0.00  0.00    +0.234 C 
ATOM     13  C   UNL A   1     -26.354   0.576  25.777  0.00  0.00    +0.240 C 
ATOM     14  F   UNL A   1     -25.860  -0.681  25.795  0.00  0.00    -0.227 F 
BRANCH   9  15
ATOM     15  C   UNL A   1     -25.642   4.093  27.123  0.00  0.00    +0.262 C 
ATOM     16  N   UNL A   1     -25.614   5.252  26.449  0.00  0.00    -0.200 NA
ATOM     17  C   UNL A   1     -25.026   6.479  26.963  0.00  0.00    +0.139 C 
ATOM     18  O   UNL A   1     -25.143   3.966  28.243  0.00  0.00    -0.269 OA
ENDBRANCH   9  15
BRANCH  12  19
ATOM     19  O   UNL A   1     -28.193  -0.208  24.477  0.00  0.00    -0.459 OA
BRANCH  19  20
ATOM     20  C   UNL A   1     -29.460   0.005  23.866  0.00  0.00    +0.242 C 
BRANCH  20  21
ATOM     21  C   UNL A   1     -30.065  -1.377  23.573  0.00  0.00    +0.229 C 
ATOM     22  O   UNL A   1     -30.729  -1.878  24.721  0.00  0.00    -0.216 OA
ENDBRANCH  20  21
ENDBRANCH  19  20
ENDBRANCH  12  19
ENDBRANCH   2   8
ENDBRANCH   1   5
BRANCH   1  24
ATOM     23  O   UNL A   1     -27.038   1.527  29.132  0.00  0.00    -0.250 OA
ATOM     24  C   UNL A   1     -27.057   0.234  29.169  0.00  0.00    +0.320 C 
BRANCH  24  25
ATOM     25  O   UNL A   1     -28.276  -0.365  29.172  0.00  0.00    -0.408 OA
BRANCH  25  26
ATOM     26  C   UNL A   1     -29.384   0.363  29.759  0.00  0.00    +0.431 C 
BRANCH  26  27
ATOM     27  O   UNL A   1     -29.477   1.443  29.482  0.00  0.00    -0.438 OA
BRANCH  27  31
ATOM     28  C   UNL A   1     -29.117   4.464  27.866  0.00  0.00    +0.003 C 
ATOM     29  C   UNL A   1     -29.997   3.495  30.326  0.00  0.00    +0.037 C 
ATOM     30  C   UNL A   1     -29.407   5.337  28.908  0.00  0.00    +0.000 C 
ATOM     31  C   UNL A   1     -29.668   2.626  29.294  0.00  0.00    +0.143 C 
ATOM     32  C   UNL A   1     -29.365   3.110  28.021  0.00  0.00    +0.037 C 
ATOM     33  C   UNL A   1     -29.834   4.870  30.146  0.00  0.00    +0.003 C 
ENDBRANCH  27  31
ENDBRANCH  26  27
ENDBRANCH  25  26
ENDBRANCH  24  25
ENDBRANCH   1  24
BRANCH   1  34
ATOM     34  C   UNL A   1     -24.855  -1.012  30.143  0.00  0.00    +0.049 C 
BRANCH  34  35
ATOM     35  C   UNL A   1     -24.973  -2.505  29.788  0.00  0.00    -0.021 C 
ATOM     36  C   UNL A   1     -23.906  -3.173  29.146  0.00  0.00    -0.004 C 
ATOM     37  C   UNL A   1     -23.989  -4.549  28.853  0.00  0.00    -0.000 C 
ATOM     38  C   UNL A   1     -25.137  -5.280  29.205  0.00  0.00    -0.000 C 
ATOM     39  C   UNL A   1     -26.232  -4.611  29.784  0.00  0.00    -0.000 C 
ATOM     40  C   UNL A   1     -26.155  -3.232  30.065  0.00  0.00    -0.004 C 
ENDBRANCH  34  35
BRANCH  34  41
ATOM     41  C   UNL A   1     -25.387  -0.679  31.571  0.00  0.00    +0.077 C 
ATOM     42  C   UNL A   1     -25.189   0.773  32.028  0.00  0.00    +0.019 C 
ATOM     43  C   UNL A   1     -25.336   0.684  33.544  0.00  0.00    +0.020 C 
ATOM     44  C   UNL A   1     -24.829  -0.715  33.905  0.00  0.00    +0.089 C 
ATOM     45  N   UNL A   1     -24.758  -1.481  32.646  0.00  0.00    -0.219 NA
ENDBRANCH  34  41
ENDBRANCH   1  34
TORSDOF 14
