MODEL 1380
MODEL 1
REMARK VINA RESULT:    -5.300      0.000      0.000
REMARK INTER + INTRA:          -5.755
REMARK INTER:                  -5.610
REMARK INTRA:                  -0.145
REMARK UNBOUND:                -0.145
REMARK  Name = No_1380-gen_results/8p0m/2024-11-27-11-27-31/
REMARK  1 active torsions:
REMARK  status: ('A' for Active; 'I' for Inactive)
REMARK    1  A    between atoms: C_4  and  C_7
REMARK                            x       y       z     vdW  Elec       q    Type
REMARK                         _______ _______ _______ _____ _____    ______ ____
ROOT
ATOM      1  C   UNL A   1     -26.517  -3.877  29.859  0.00  0.00    -0.000 A 
ATOM      2  C   UNL A   1     -26.139  -4.819  29.576  0.00  0.00    -0.000 A 
ATOM      3  C   UNL A   1     -25.541  -2.727  29.751  0.00  0.00    -0.000 A 
ATOM      4  C   UNL A   1     -24.278  -2.945  29.163  0.00  0.00    -0.000 A 
ATOM      5  C   UNL A   1     -24.906  -5.303  28.915  0.00  0.00    -0.000 A 
ATOM      6  C   UNL A   1     -23.986  -4.271  28.793  0.00  0.00    -0.000 A 
ENDROOT
BRANCH   4   7
ATOM      7  C   UNL A   1     -23.313  -1.904  29.051  0.00  0.00    -0.005 C 
ATOM      8  C   UNL A   1     -23.558  -0.762  28.561  0.00  0.00    -0.026 C 
ATOM      9  C   UNL A   1     -22.590   0.349  28.578  0.00  0.00    +0.031 C 
ENDBRANCH   4   7
TORSDOF 1
ENDMDL
ENDMDL
