REMARK  Name = No_1381-gen_results/8p0m/2024-11-27-11-27-31/
REMARK  5 active torsions:
REMARK  status: ('A' for Active; 'I' for Inactive)
REMARK    1  A    between atoms: C_3  and  C_7
REMARK    2  A    between atoms: C_10  and  C_11
REMARK    3  A    between atoms: C_14  and  C_15
REMARK    4  A    between atoms: C_24  and  C_26
REMARK    5  A    between atoms: C_26  and  C_27
REMARK                            x       y       z     vdW  Elec       q    Type
REMARK                         _______ _______ _______ _____ _____    ______ ____
ROOT
ATOM      1  C   UNL A   1     -28.016  -0.814  28.878  0.00  0.00    +0.000 A 
ATOM      2  C   UNL A   1     -28.469  -0.785  29.829  0.00  0.00    -0.000 A 
ATOM      3  C   UNL A   1     -27.087   0.290  28.638  0.00  0.00    +0.004 A 
ATOM      4  C   UNL A   1     -26.832   1.249  29.587  0.00  0.00    +0.052 A 
ATOM      5  C   UNL A   1     -28.391   0.080  31.006  0.00  0.00    -0.003 A 
ATOM      6  C   UNL A   1     -27.494   1.152  30.784  0.00  0.00    -0.002 A 
ATOM      7  C   UNL A   1     -25.955   2.408  29.411  0.00  0.00    +0.271 C 
ATOM      8  O   UNL A   1     -25.530   2.738  28.482  0.00  0.00    -0.268 OA
ATOM      9  N   UNL A   1     -25.620   3.059  30.603  0.00  0.00    -0.140 NA
ATOM     10  C   UNL A   1     -26.004   2.705  31.924  0.00  0.00    +0.259 C 
ATOM     11  C   UNL A   1     -27.059   1.822  32.078  0.00  0.00    +0.163 C 
ATOM     12  O   UNL A   1     -25.462   3.430  32.845  0.00  0.00    -0.272 OA
ENDROOT
BRANCH   3  13
ATOM     13  C   UNL A   1     -26.311   0.392  27.364  0.00  0.00    +0.000 A 
ATOM     14  C   UNL A   1     -26.767   1.025  26.372  0.00  0.00    +0.000 A 
ATOM     15  C   UNL A   1     -26.011   1.016  25.124  0.00  0.00    +0.000 A 
ATOM     16  C   UNL A   1     -25.072  -0.232  27.315  0.00  0.00    +0.000 A 
ATOM     17  C   UNL A   1     -24.677   0.470  25.110  0.00  0.00    +0.000 A 
ATOM     18  C   UNL A   1     -24.277  -0.154  26.217  0.00  0.00    +0.000 A 
BRANCH  16  19
ATOM     19  C   UNL A   1     -24.543  -0.918  28.581  0.00  0.00    +0.006 A 
ATOM     20  C   UNL A   1     -23.468  -0.273  29.223  0.00  0.00    +0.080 A 
ATOM     21  C   UNL A   1     -24.900  -2.212  28.847  0.00  0.00    +0.000 A 
ATOM     22  C   UNL A   1     -24.629  -2.799  29.820  0.00  0.00    +0.000 A 
ATOM     23  C   UNL A   1     -23.595  -2.181  30.743  0.00  0.00    +0.000 A 
ATOM     24  C   UNL A   1     -23.022  -1.007  30.405  0.00  0.00    +0.007 A 
BRANCH  20  25
ATOM     25  C   UNL A   1     -22.810   0.931  28.829  0.00  0.00    +0.388 C 
ATOM     26  O   UNL A   1     -21.653   0.796  28.550  0.00  0.00    -0.241 OA
ATOM     27  O   UNL A   1     -23.405   2.070  28.803  0.00  0.00    -0.241 OA
ENDBRANCH  20  25
ENDBRANCH  16  19
ENDBRANCH   3  13
BRANCH  11  28
ATOM     28  C   UNL A   1     -27.531   1.524  33.388  0.00  0.00    +0.185 C 
ATOM     29  O   UNL A   1     -28.455   2.351  33.725  0.00  0.00    -0.290 OA
BRANCH  28  30
ATOM     30  C   UNL A   1     -27.148   0.357  33.931  0.00  0.00    +0.035 A 
ATOM     31  C   UNL A   1     -25.985  -0.106  33.816  0.00  0.00    +0.003 A 
ATOM     32  C   UNL A   1     -25.504  -1.248  34.659  0.00  0.00    +0.000 A 
ATOM     33  C   UNL A   1     -26.334  -1.637  35.674  0.00  0.00    +0.000 A 
ATOM     34  C   UNL A   1     -27.420  -1.026  35.871  0.00  0.00    +0.000 A 
ATOM     35  C   UNL A   1     -27.918   0.024  35.119  0.00  0.00    +0.003 A 
ENDBRANCH  28  30
ENDBRANCH  11  28
TORSDOF 5
