MODEL 1382
MODEL 1
REMARK VINA RESULT:    -7.409      0.000      0.000
REMARK INTER + INTRA:         -12.046
REMARK INTER:                 -10.008
REMARK INTRA:                  -2.038
REMARK UNBOUND:                -2.038
REMARK  Name = No_1382-gen_results/8p0m/2024-11-27-11-27-31/
REMARK  6 active torsions:
REMARK  status: ('A' for Active; 'I' for Inactive)
REMARK    1  A    between atoms: C_3  and  C_7
REMARK    2  A    between atoms: C_5  and  C_24
REMARK    3  A    between atoms: N_8  and  C_17
REMARK    4  A    between atoms: C_9  and  C_10
REMARK    5  A    between atoms: C_28  and  C_29
REMARK    6  A    between atoms: C_29  and  C_31
REMARK                            x       y       z     vdW  Elec       q    Type
REMARK                         _______ _______ _______ _____ _____    ______ ____
ROOT
ATOM      1  C   UNL A   1     -23.284  -0.760  29.517  0.00  0.00    +0.259 C 
ATOM      2  N   UNL A   1     -24.096  -1.229  28.664  0.00  0.00    -0.201 N 
ATOM      3  C   UNL A   1     -24.884  -0.381  27.772  0.00  0.00    +0.259 C 
ATOM      4  O   UNL A   1     -25.733  -1.044  27.004  0.00  0.00    -0.269 OA
ATOM      5  O   UNL A   1     -22.269  -0.225  28.997  0.00  0.00    -0.269 OA
ENDROOT
BRANCH   1   8
ATOM      6  C   UNL A   1     -24.070  -1.104  31.922  0.00  0.00    +0.004 A 
ATOM      7  C   UNL A   1     -24.526  -0.731  32.796  0.00  0.00    +0.000 A 
ATOM      8  C   UNL A   1     -23.914  -0.220  30.832  0.00  0.00    +0.054 A 
ATOM      9  C   UNL A   1     -24.348   1.090  30.885  0.00  0.00    +0.004 A 
ATOM     10  C   UNL A   1     -24.700   1.458  31.793  0.00  0.00    -0.000 A 
ATOM     11  C   UNL A   1     -24.926   0.682  33.032  0.00  0.00    -0.000 A 
BRANCH  10  12
ATOM     12  C   UNL A   1     -25.246   2.982  32.051  0.00  0.00    -0.003 A 
ATOM     13  C   UNL A   1     -24.689   3.789  32.461  0.00  0.00    -0.000 A 
ATOM     14  C   UNL A   1     -25.095   5.260  32.521  0.00  0.00    -0.000 A 
ATOM     15  C   UNL A   1     -26.259   5.590  31.840  0.00  0.00    -0.000 A 
ATOM     16  C   UNL A   1     -26.546   3.212  31.306  0.00  0.00    -0.011 A 
ATOM     17  C   UNL A   1     -27.031   4.548  31.234  0.00  0.00    -0.004 A 
BRANCH  16  18
ATOM     18  C   UNL A   1     -27.297   2.160  30.687  0.00  0.00    +0.140 C 
BRANCH  18  19
ATOM     19  C   UNL A   1     -28.423   1.744  31.501  0.00  0.00    +0.369 C 
ATOM     20  O   UNL A   1     -28.239   0.710  32.163  0.00  0.00    -0.245 OA
ATOM     21  O   UNL A   1     -29.524   2.351  31.581  0.00  0.00    -0.245 OA
ENDBRANCH  18  19
ENDBRANCH  16  18
ENDBRANCH  10  12
ENDBRANCH   1   8
BRANCH   3  22
ATOM     22  C   UNL A   1     -24.484   0.865  27.421  0.00  0.00    +0.054 A 
ATOM     23  C   UNL A   1     -25.156   1.991  27.853  0.00  0.00    +0.004 A 
ATOM     24  C   UNL A   1     -24.723   3.310  27.413  0.00  0.00    +0.000 A 
ATOM     25  C   UNL A   1     -23.819   3.438  26.392  0.00  0.00    +0.000 A 
ATOM     26  C   UNL A   1     -23.417   2.304  25.728  0.00  0.00    +0.000 A 
ATOM     27  C   UNL A   1     -23.769   1.051  26.185  0.00  0.00    +0.004 A 
ENDBRANCH   3  22
BRANCH   2  28
ATOM     28  C   UNL A   1     -24.676  -2.518  28.981  0.00  0.00    +0.061 A 
ATOM     29  C   UNL A   1     -23.867  -3.526  28.428  0.00  0.00    +0.015 A 
ATOM     30  C   UNL A   1     -24.174  -4.836  28.704  0.00  0.00    +0.001 A 
ATOM     31  C   UNL A   1     -25.491  -5.125  29.317  0.00  0.00    +0.000 A 
ATOM     32  C   UNL A   1     -26.295  -4.031  29.701  0.00  0.00    +0.001 A 
ATOM     33  C   UNL A   1     -25.920  -2.687  29.464  0.00  0.00    +0.015 A 
ENDBRANCH   2  28
TORSDOF 6
ENDMDL
ENDMDL
