REMARK  Name = outputs/IAG933/test6/raw/output_1382_IAG933_linker_design_.xyz
REMARK  10 active torsions:
REMARK  status: ('A' for Active; 'I' for Inactive)
REMARK    1  A    between atoms: C_1  and  C_2
REMARK    2  A    between atoms: C_1  and  C_8
REMARK    3  A    between atoms: C_1  and  C_33
REMARK    4  A    between atoms: C_13  and  C_29
REMARK    5  A    between atoms: C_14  and  C_15
REMARK    6  A    between atoms: C_21  and  O_22
REMARK    7  A    between atoms: O_22  and  C_23
REMARK    8  A    between atoms: C_23  and  C_24
REMARK    9  A    between atoms: N_28  and  C_29
REMARK   10  A    between atoms: N_28  and  C_32
REMARK                            x       y       z     vdW  Elec       q    Type
REMARK                         _______ _______ _______ _____ _____    ______ ____
ROOT
ATOM      1  N   UNL A   1     -24.253   0.357  28.058  0.00  0.00    -0.275 N 
ATOM      2  O   UNL A   1     -26.441   0.209  28.841  0.00  0.00    -0.275 OA
ATOM      3  C   UNL A   1     -25.284  -0.117  28.990  0.00  0.00    +0.231 C 
ENDROOT
BRANCH   1   5
ATOM      4  C   UNL A   1     -21.927   1.322  27.851  0.00  0.00    +0.023 C 
ATOM      5  C   UNL A   1     -23.032   0.795  28.735  0.00  0.00    +0.094 C 
ENDBRANCH   1   5
BRANCH   3   6
ATOM      6  C   UNL A   1     -24.855  -1.012  30.143  0.00  0.00    +0.115 C 
BRANCH   6   7
ATOM      7  C   UNL A   1     -24.973  -2.505  29.788  0.00  0.00    -0.013 C 
ATOM      8  C   UNL A   1     -23.906  -3.173  29.146  0.00  0.00    -0.004 C 
ATOM      9  C   UNL A   1     -23.989  -4.549  28.853  0.00  0.00    -0.000 C 
ATOM     10  C   UNL A   1     -25.137  -5.280  29.205  0.00  0.00    -0.000 C 
ATOM     11  C   UNL A   1     -26.232  -4.611  29.784  0.00  0.00    -0.000 C 
ATOM     12  C   UNL A   1     -26.155  -3.232  30.065  0.00  0.00    -0.004 C 
ENDBRANCH   6   7
BRANCH   6  13
ATOM     13  C   UNL A   1     -25.387  -0.679  31.571  0.00  0.00    +0.086 C 
ATOM     14  C   UNL A   1     -25.189   0.773  32.028  0.00  0.00    +0.020 C 
ATOM     15  C   UNL A   1     -25.336   0.684  33.544  0.00  0.00    +0.020 C 
ATOM     16  C   UNL A   1     -24.829  -0.715  33.905  0.00  0.00    +0.089 C 
ATOM     17  N   UNL A   1     -24.758  -1.481  32.646  0.00  0.00    -0.219 NA
ENDBRANCH   6  13
ENDBRANCH   3   6
BRANCH   1  18
ATOM     18  C   UNL A   1     -24.387   1.357  26.985  0.00  0.00    +0.123 C 
BRANCH  18  19
ATOM     19  C   UNL A   1     -25.688   1.614  26.461  0.00  0.00    +0.036 C 
ATOM     20  C   UNL A   1     -26.250   2.920  26.395  0.00  0.00    +0.074 C 
ATOM     21  C   UNL A   1     -27.438   3.091  25.645  0.00  0.00    +0.106 C 
ATOM     22  N   UNL A   1     -28.075   2.089  25.003  0.00  0.00    -0.208 NA
ATOM     23  C   UNL A   1     -27.543   0.849  25.079  0.00  0.00    +0.253 C 
ATOM     24  C   UNL A   1     -26.354   0.576  25.777  0.00  0.00    +0.191 C 
ATOM     25  F   UNL A   1     -25.860  -0.681  25.795  0.00  0.00    -0.200 F 
BRANCH  20  26
ATOM     26  C   UNL A   1     -25.642   4.093  27.123  0.00  0.00    +0.266 C 
ATOM     27  N   UNL A   1     -25.614   5.252  26.449  0.00  0.00    -0.200 NA
ATOM     28  C   UNL A   1     -25.026   6.479  26.963  0.00  0.00    +0.139 C 
ATOM     29  O   UNL A   1     -25.143   3.966  28.243  0.00  0.00    -0.268 OA
ENDBRANCH  20  26
BRANCH  23  30
ATOM     30  O   UNL A   1     -28.193  -0.208  24.477  0.00  0.00    -0.456 OA
BRANCH  30  31
ATOM     31  C   UNL A   1     -29.460   0.005  23.866  0.00  0.00    +0.243 C 
BRANCH  31  32
ATOM     32  C   UNL A   1     -30.065  -1.377  23.573  0.00  0.00    +0.229 C 
ATOM     33  O   UNL A   1     -30.729  -1.878  24.721  0.00  0.00    -0.216 OA
ENDBRANCH  31  32
ENDBRANCH  30  31
ENDBRANCH  23  30
ENDBRANCH  18  19
ENDBRANCH   1  18
TORSDOF 10
