REMARK  Name = No_1383-gen_results/8p0m/2024-11-27-11-27-31/
REMARK  8 active torsions:
REMARK  status: ('A' for Active; 'I' for Inactive)
REMARK    1  A    between atoms: C_4  and  C_7
REMARK    2  A    between atoms: C_7  and  C_8
REMARK    3  A    between atoms: C_9  and  C_10
REMARK    4  A    between atoms: C_10  and  C_11
REMARK    5  A    between atoms: C_11  and  C_12
REMARK    6  A    between atoms: C_12  and  C_13
REMARK    7  A    between atoms: C_12  and  C_20
REMARK    8  A    between atoms: C_13  and  C_14
REMARK                            x       y       z     vdW  Elec       q    Type
REMARK                         _______ _______ _______ _____ _____    ______ ____
ROOT
ATOM      1  C   UNL A   1     -22.491   1.993  27.593  0.00  0.00    +0.013 C 
ENDROOT
BRANCH   1   2
ATOM      2  C   UNL A   1     -21.970   1.750  28.929  0.00  0.00    +0.026 C 
BRANCH   2   4
ATOM      3  C   UNL A   1     -23.817   0.476  29.912  0.00  0.00    -0.026 C 
ATOM      4  C   UNL A   1     -22.501   0.545  29.410  0.00  0.00    -0.030 C 
BRANCH   3   5
ATOM      5  C   UNL A   1     -24.389  -0.805  30.164  0.00  0.00    +0.052 C 
BRANCH   5   9
ATOM      6  C   UNL A   1     -28.016  -0.814  28.878  0.00  0.00    -0.000 A 
ATOM      7  C   UNL A   1     -28.469  -0.785  29.829  0.00  0.00    -0.000 A 
ATOM      8  C   UNL A   1     -26.504  -0.778  28.877  0.00  0.00    -0.004 A 
ATOM      9  C   UNL A   1     -25.810  -0.853  30.103  0.00  0.00    -0.018 A 
ATOM     10  C   UNL A   1     -27.991  -0.892  31.226  0.00  0.00    -0.000 A 
ATOM     11  C   UNL A   1     -26.604  -0.868  31.265  0.00  0.00    -0.004 A 
ENDBRANCH   5   9
ENDBRANCH   3   5
ENDBRANCH   2   4
ENDBRANCH   1   2
BRANCH   1  12
ATOM     12  C   UNL A   1     -23.875   2.437  27.537  0.00  0.00    +0.097 C 
BRANCH  12  13
ATOM     13  C   UNL A   1     -24.713   1.551  28.476  0.00  0.00    +0.426 C 
ATOM     14  O   UNL A   1     -25.598   2.247  29.323  0.00  0.00    -0.267 OA
ATOM     15  O   UNL A   1     -25.150   0.421  27.826  0.00  0.00    -0.267 OA
ENDBRANCH  12  13
BRANCH  12  16
ATOM     16  C   UNL A   1     -24.325   2.559  26.225  0.00  0.00    +0.034 C 
BRANCH  16  17
ATOM     17  C   UNL A   1     -25.376   1.837  25.868  0.00  0.00    -0.022 A 
ATOM     18  C   UNL A   1     -25.218   0.622  25.151  0.00  0.00    -0.004 A 
ATOM     19  C   UNL A   1     -26.301  -0.250  24.894  0.00  0.00    -0.000 A 
ATOM     20  C   UNL A   1     -27.533   0.342  24.737  0.00  0.00    -0.000 A 
ATOM     21  C   UNL A   1     -27.816   1.580  25.349  0.00  0.00    -0.000 A 
ATOM     22  C   UNL A   1     -26.743   2.404  25.846  0.00  0.00    -0.004 A 
ENDBRANCH  16  17
ENDBRANCH  12  16
ENDBRANCH   1  12
TORSDOF 8
