MODEL 1383
MODEL 1
REMARK VINA RESULT:    -5.259      0.000      0.000
REMARK INTER + INTRA:         -11.366
REMARK INTER:                  -7.719
REMARK INTRA:                  -3.647
REMARK UNBOUND:                -3.647
REMARK  Name = No_1383-gen_results/8p0m/2024-11-27-11-27-31/
REMARK  8 active torsions:
REMARK  status: ('A' for Active; 'I' for Inactive)
REMARK    1  A    between atoms: C_4  and  C_7
REMARK    2  A    between atoms: C_7  and  C_8
REMARK    3  A    between atoms: C_9  and  C_10
REMARK    4  A    between atoms: C_10  and  C_11
REMARK    5  A    between atoms: C_11  and  C_12
REMARK    6  A    between atoms: C_12  and  C_13
REMARK    7  A    between atoms: C_12  and  C_20
REMARK    8  A    between atoms: C_13  and  C_14
REMARK                            x       y       z     vdW  Elec       q    Type
REMARK                         _______ _______ _______ _____ _____    ______ ____
ROOT
ATOM      1  C   UNL A   1     -16.427 -23.765   7.395  0.00  0.00    +0.013 C 
ENDROOT
BRANCH   1   2
ATOM      2  C   UNL A   1     -15.576 -23.694   6.218  0.00  0.00    +0.026 C 
BRANCH   2   4
ATOM      3  C   UNL A   1     -17.648 -23.654   4.912  0.00  0.00    -0.026 C 
ATOM      4  C   UNL A   1     -16.331 -23.207   5.141  0.00  0.00    -0.030 C 
BRANCH   3   5
ATOM      5  C   UNL A   1     -18.452 -22.961   3.960  0.00  0.00    +0.052 C 
BRANCH   5   9
ATOM      6  C   UNL A   1     -21.902 -23.568   5.552  0.00  0.00    -0.000 A 
ATOM      7  C   UNL A   1     -22.428 -22.899   4.930  0.00  0.00    -0.000 A 
ATOM      8  C   UNL A   1     -20.426 -23.708   5.253  0.00  0.00    -0.004 A 
ATOM      9  C   UNL A   1     -19.831 -22.862   4.294  0.00  0.00    -0.018 A 
ATOM     10  C   UNL A   1     -22.053 -21.896   3.908  0.00  0.00    -0.000 A 
ATOM     11  C   UNL A   1     -20.701 -21.990   3.612  0.00  0.00    -0.004 A 
ENDBRANCH   5   9
ENDBRANCH   3   5
ENDBRANCH   2   4
ENDBRANCH   1   2
BRANCH   1  12
ATOM     12  C   UNL A   1     -16.473 -22.556   8.202  0.00  0.00    +0.097 C 
BRANCH  12  13
ATOM     13  C   UNL A   1     -15.433 -22.680   9.330  0.00  0.00    +0.426 C 
ATOM     14  O   UNL A   1     -14.169 -22.130   9.041  0.00  0.00    -0.267 OA
ATOM     15  O   UNL A   1     -16.007 -22.443  10.557  0.00  0.00    -0.267 OA
ENDBRANCH  12  13
BRANCH  12  16
ATOM     16  C   UNL A   1     -17.774 -22.239   8.583  0.00  0.00    +0.034 C 
BRANCH  16  17
ATOM     17  C   UNL A   1     -18.487 -21.485   7.760  0.00  0.00    -0.022 A 
ATOM     18  C   UNL A   1     -17.860 -20.529   6.918  0.00  0.00    -0.004 A 
ATOM     19  C   UNL A   1     -18.569 -19.823   5.919  0.00  0.00    -0.000 A 
ATOM     20  C   UNL A   1     -19.893 -19.559   6.184  0.00  0.00    -0.000 A 
ATOM     21  C   UNL A   1     -20.630 -20.395   7.047  0.00  0.00    -0.000 A 
ATOM     22  C   UNL A   1     -19.947 -21.312   7.925  0.00  0.00    -0.004 A 
ENDBRANCH  16  17
ENDBRANCH  12  16
ENDBRANCH   1  12
TORSDOF 8
ENDMDL
ENDMDL
