REMARK  Name = outputs/IAG933/test6/raw/output_1384_IAG933_linker_design_.xyz
REMARK  15 active torsions:
REMARK  status: ('A' for Active; 'I' for Inactive)
REMARK    1  A    between atoms: C_1  and  C_2
REMARK    2  A    between atoms: C_1  and  C_8
REMARK    3  A    between atoms: C_1  and  C_30
REMARK    4  A    between atoms: C_13  and  N_29
REMARK    5  A    between atoms: C_14  and  C_15
REMARK    6  A    between atoms: C_21  and  O_22
REMARK    7  A    between atoms: O_22  and  C_23
REMARK    8  A    between atoms: C_23  and  C_24
REMARK    9  A    between atoms: C_28  and  C_30
REMARK   10  A    between atoms: N_29  and  C_31
REMARK   11  A    between atoms: C_30  and  C_31
REMARK   12  A    between atoms: C_31  and  O_32
REMARK   13  A    between atoms: O_32  and  C_38
REMARK   14  A    between atoms: C_36  and  C_42
REMARK   15  A    between atoms: C_38  and  C_43
REMARK                            x       y       z     vdW  Elec       q    Type
REMARK                         _______ _______ _______ _____ _____    ______ ____
ROOT
ATOM      1  C   UNL A   1     -25.334   0.021  29.151  0.00  0.00    +0.070 C 
ENDROOT
BRANCH   1   2
ATOM      2  C   UNL A   1     -26.759   0.274  29.146  0.00  0.00    +0.077 C 
ATOM      3  C   UNL A   1     -29.369   1.440  28.777  0.00  0.00    +0.020 C 
ATOM      4  C   UNL A   1     -27.645  -0.683  28.640  0.00  0.00    +0.020 C 
ATOM      5  N   UNL A   1     -27.092   1.514  29.539  0.00  0.00    -0.221 NA
ATOM      6  C   UNL A   1     -28.503   3.677  29.533  0.00  0.00    +0.019 C 
ATOM      7  C   UNL A   1     -28.123   2.299  28.997  0.00  0.00    +0.073 C 
ATOM      8  C   UNL A   1     -28.946  -0.025  28.523  0.00  0.00    +0.036 C 
BRANCH   8   9
ATOM      9  C   UNL A   1     -29.680  -0.741  29.624  0.00  0.00    +0.182 C 
ATOM     10  O   UNL A   1     -29.707  -2.094  29.235  0.00  0.00    -0.220 OA
ENDBRANCH   8   9
ENDBRANCH   1   2
BRANCH   1  11
ATOM     11  C   UNL A   1     -24.855  -1.012  30.143  0.00  0.00    +0.044 C 
BRANCH  11  12
ATOM     12  C   UNL A   1     -24.973  -2.505  29.788  0.00  0.00    -0.021 C 
ATOM     13  C   UNL A   1     -23.906  -3.173  29.146  0.00  0.00    -0.004 C 
ATOM     14  C   UNL A   1     -23.989  -4.549  28.853  0.00  0.00    -0.000 C 
ATOM     15  C   UNL A   1     -25.137  -5.280  29.205  0.00  0.00    -0.000 C 
ATOM     16  C   UNL A   1     -26.232  -4.611  29.784  0.00  0.00    -0.000 C 
ATOM     17  C   UNL A   1     -26.155  -3.232  30.065  0.00  0.00    -0.004 C 
ENDBRANCH  11  12
BRANCH  11  18
ATOM     18  C   UNL A   1     -25.387  -0.679  31.571  0.00  0.00    +0.077 C 
ATOM     19  C   UNL A   1     -25.189   0.773  32.028  0.00  0.00    +0.019 C 
ATOM     20  C   UNL A   1     -25.336   0.684  33.544  0.00  0.00    +0.020 C 
ATOM     21  C   UNL A   1     -24.829  -0.715  33.905  0.00  0.00    +0.089 C 
ATOM     22  N   UNL A   1     -24.758  -1.481  32.646  0.00  0.00    -0.219 NA
ENDBRANCH  11  18
ENDBRANCH   1  11
BRANCH   1  23
ATOM     23  C   UNL A   1     -24.503   0.932  28.562  0.00  0.00    +0.210 C 
BRANCH  23  24
ATOM     24  N   UNL A   1     -24.399   1.331  26.954  0.00  0.00    -0.208 NA
BRANCH  24  25
ATOM     25  C   UNL A   1     -25.688   1.614  26.461  0.00  0.00    +0.106 C 
ATOM     26  C   UNL A   1     -26.250   2.920  26.395  0.00  0.00    +0.091 C 
ATOM     27  C   UNL A   1     -27.438   3.091  25.645  0.00  0.00    +0.108 C 
ATOM     28  N   UNL A   1     -28.075   2.089  25.003  0.00  0.00    -0.208 NA
ATOM     29  C   UNL A   1     -27.543   0.849  25.079  0.00  0.00    +0.255 C 
ATOM     30  C   UNL A   1     -26.354   0.576  25.777  0.00  0.00    +0.208 C 
ATOM     31  F   UNL A   1     -25.860  -0.681  25.795  0.00  0.00    -0.198 F 
BRANCH  26  32
ATOM     32  C   UNL A   1     -25.642   4.093  27.123  0.00  0.00    +0.268 C 
ATOM     33  N   UNL A   1     -25.614   5.252  26.449  0.00  0.00    -0.200 NA
ATOM     34  C   UNL A   1     -25.026   6.479  26.963  0.00  0.00    +0.139 C 
ATOM     35  O   UNL A   1     -25.143   3.966  28.243  0.00  0.00    -0.268 OA
ENDBRANCH  26  32
BRANCH  29  36
ATOM     36  O   UNL A   1     -28.193  -0.208  24.477  0.00  0.00    -0.456 OA
BRANCH  36  37
ATOM     37  C   UNL A   1     -29.460   0.005  23.866  0.00  0.00    +0.243 C 
BRANCH  37  38
ATOM     38  C   UNL A   1     -30.065  -1.377  23.573  0.00  0.00    +0.229 C 
ATOM     39  O   UNL A   1     -30.729  -1.878  24.721  0.00  0.00    -0.216 OA
ENDBRANCH  37  38
ENDBRANCH  36  37
ENDBRANCH  29  36
ENDBRANCH  24  25
ENDBRANCH  23  24
BRANCH  23  40
ATOM     40  O   UNL A   1     -23.360   1.375  29.242  0.00  0.00    -0.336 OA
BRANCH  40  41
ATOM     41  C   UNL A   1     -22.245   0.448  29.157  0.00  0.00    +0.144 C 
BRANCH  41  43
ATOM     42  C   UNL A   1     -21.705   1.887  26.693  0.00  0.00    +0.003 C 
ATOM     43  C   UNL A   1     -21.285   1.087  27.965  0.00  0.00    +0.032 C 
ENDBRANCH  41  43
ENDBRANCH  40  41
ENDBRANCH  23  40
ENDBRANCH   1  23
TORSDOF 15
