MODEL 1385
MODEL 1
REMARK VINA RESULT:    -4.281      0.000      0.000
REMARK INTER + INTRA:          -4.281
REMARK INTER:                  -4.281
REMARK INTRA:                   0.000
REMARK UNBOUND:                 0.000
REMARK  Name = No_1385-gen_results/8p0m/2024-11-27-11-27-31/
REMARK  0 active torsions:
REMARK  status: ('A' for Active; 'I' for Inactive)
REMARK                            x       y       z     vdW  Elec       q    Type
REMARK                         _______ _______ _______ _____ _____    ______ ____
ROOT
ATOM      1  C   UNL A   1     -26.077  -4.840  29.656  0.00  0.00    +0.000 A 
ATOM      2  C   UNL A   1     -26.203  -3.639  29.720  0.00  0.00    +0.000 A 
ATOM      3  C   UNL A   1     -25.226  -2.746  29.325  0.00  0.00    +0.000 A 
ATOM      4  C   UNL A   1     -24.023  -3.273  28.777  0.00  0.00    +0.000 A 
ATOM      5  C   UNL A   1     -23.999  -4.610  28.568  0.00  0.00    +0.000 A 
ATOM      6  C   UNL A   1     -24.999  -5.385  28.942  0.00  0.00    +0.000 A 
ENDROOT
TORSDOF 0
ENDMDL
ENDMDL
