MODEL 1386
MODEL 1
REMARK VINA RESULT:    -6.115      0.000      0.000
REMARK INTER + INTRA:          -9.803
REMARK INTER:                  -8.974
REMARK INTRA:                  -0.829
REMARK UNBOUND:                -0.829
REMARK  Name = No_1386-gen_results/8p0m/2024-11-27-11-27-31/
REMARK  8 active torsions:
REMARK  status: ('A' for Active; 'I' for Inactive)
REMARK    1  A    between atoms: C_3  and  C_7
REMARK    2  A    between atoms: N_8  and  C_10
REMARK    3  A    between atoms: C_10  and  C_12
REMARK    4  A    between atoms: C_12  and  C_14
REMARK    5  A    between atoms: C_15  and  C_16
REMARK    6  A    between atoms: C_16  and  C_17
REMARK    7  A    between atoms: C_17  and  N_20
REMARK    8  A    between atoms: N_20  and  C_21
REMARK                            x       y       z     vdW  Elec       q    Type
REMARK                         _______ _______ _______ _____ _____    ______ ____
ROOT
ATOM      1  C   UNL A   1     -24.880   2.648  26.623  0.00  0.00    +0.115 C 
ATOM      2  C   UNL A   1     -24.943   3.662  27.402  0.00  0.00    +0.025 C 
ENDROOT
BRANCH   1   4
ATOM      3  C   UNL A   1     -26.540   1.317  25.841  0.00  0.00    +0.265 C 
ATOM      4  N   UNL A   1     -25.631   2.237  25.717  0.00  0.00    -0.202 NA
ATOM      5  O   UNL A   1     -26.413   0.449  26.703  0.00  0.00    -0.268 OA
BRANCH   3   8
ATOM      6  C   UNL A   1     -28.113   2.426  24.149  0.00  0.00    +0.005 A 
ATOM      7  C   UNL A   1     -28.918   2.308  23.479  0.00  0.00    +0.000 A 
ATOM      8  C   UNL A   1     -27.696   1.294  24.882  0.00  0.00    +0.055 A 
ATOM      9  C   UNL A   1     -28.317   0.067  24.751  0.00  0.00    +0.005 A 
ATOM     10  C   UNL A   1     -29.741   1.127  23.151  0.00  0.00    +0.000 A 
ATOM     11  C   UNL A   1     -29.375   0.020  23.834  0.00  0.00    +0.000 A 
ENDBRANCH   3   8
ENDBRANCH   1   4
BRANCH   1  12
ATOM     12  C   UNL A   1     -23.390   2.300  26.383  0.00  0.00    +0.121 C 
ATOM     13 CL   UNL A   1     -22.603   2.439  24.954  0.00  0.00    -0.108 Cl
BRANCH  12  14
ATOM     14  C   UNL A   1     -22.722   1.494  27.447  0.00  0.00    -0.008 C 
ATOM     15  C   UNL A   1     -23.315   0.394  27.984  0.00  0.00    +0.037 C 
BRANCH  15  16
ATOM     16  C   UNL A   1     -22.597  -0.362  28.999  0.00  0.00    +0.302 C 
ATOM     17  F   UNL A   1     -22.500   0.511  30.097  0.00  0.00    -0.198 F 
ATOM     18  F   UNL A   1     -21.224  -0.388  28.522  0.00  0.00    -0.198 F 
BRANCH  16  19
ATOM     19  C   UNL A   1     -22.971  -1.609  29.390  0.00  0.00    +0.183 C 
BRANCH  19  20
ATOM     20  N   UNL A   1     -23.721  -2.443  28.807  0.00  0.00    -0.230 NA
BRANCH  20  21
ATOM     21  C   UNL A   1     -24.058  -3.620  29.170  0.00  0.00    +0.080 C 
ATOM     22  C   UNL A   1     -24.178  -4.692  28.551  0.00  0.00    +0.019 C 
ENDBRANCH  20  21
ENDBRANCH  19  20
ENDBRANCH  16  19
ENDBRANCH  15  16
ENDBRANCH  12  14
ENDBRANCH   1  12
TORSDOF 8
ENDMDL
ENDMDL
