REMARK  Name = outputs/IAG933/test6/raw/output_1387_IAG933_linker_design_.xyz
REMARK  17 active torsions:
REMARK  status: ('A' for Active; 'I' for Inactive)
REMARK    1  A    between atoms: C_1  and  C_2
REMARK    2  A    between atoms: C_1  and  C_8
REMARK    3  A    between atoms: C_1  and  N_37
REMARK    4  A    between atoms: C_13  and  C_41
REMARK    5  A    between atoms: C_14  and  C_15
REMARK    6  A    between atoms: C_21  and  O_22
REMARK    7  A    between atoms: O_22  and  C_23
REMARK    8  A    between atoms: C_23  and  C_24
REMARK    9  A    between atoms: C_29  and  N_43
REMARK   10  A    between atoms: C_31  and  N_37
REMARK   11  A    between atoms: C_31  and  C_41
REMARK   12  A    between atoms: C_31  and  C_45
REMARK   13  A    between atoms: C_32  and  C_45
REMARK   14  A    between atoms: C_35  and  O_44
REMARK   15  A    between atoms: C_36  and  C_38
REMARK   16  A    between atoms: C_36  and  N_43
REMARK   17  A    between atoms: N_37  and  C_38
REMARK                            x       y       z     vdW  Elec       q    Type
REMARK                         _______ _______ _______ _____ _____    ______ ____
ROOT
ATOM      1  N   UNL A   1     -24.875   0.032  29.171  0.00  0.00    -0.263 NA
ENDROOT
BRANCH   1   2
ATOM      2  C   UNL A   1     -24.855  -1.012  30.143  0.00  0.00    +0.097 C 
BRANCH   2   3
ATOM      3  C   UNL A   1     -24.973  -2.505  29.788  0.00  0.00    -0.006 C 
ATOM      4  C   UNL A   1     -23.906  -3.173  29.146  0.00  0.00    -0.003 C 
ATOM      5  C   UNL A   1     -23.989  -4.549  28.853  0.00  0.00    -0.000 C 
ATOM      6  C   UNL A   1     -25.137  -5.280  29.205  0.00  0.00    -0.000 C 
ATOM      7  C   UNL A   1     -26.232  -4.611  29.784  0.00  0.00    -0.000 C 
ATOM      8  C   UNL A   1     -26.155  -3.232  30.065  0.00  0.00    -0.003 C 
ENDBRANCH   2   3
BRANCH   2   9
ATOM      9  C   UNL A   1     -25.387  -0.679  31.571  0.00  0.00    +0.092 C 
ATOM     10  C   UNL A   1     -25.189   0.773  32.028  0.00  0.00    +0.021 C 
ATOM     11  C   UNL A   1     -25.336   0.684  33.544  0.00  0.00    +0.020 C 
ATOM     12  C   UNL A   1     -24.829  -0.715  33.905  0.00  0.00    +0.089 C 
ATOM     13  N   UNL A   1     -24.758  -1.481  32.646  0.00  0.00    -0.218 NA
ENDBRANCH   2   9
ENDBRANCH   1   2
BRANCH   1  14
ATOM     14  C   UNL A   1     -24.061   1.055  28.489  0.00  0.00    +0.120 C 
BRANCH  14  16
ATOM     15  O   UNL A   1     -22.384  -0.495  29.292  0.00  0.00    -0.295 OA
ATOM     16  C   UNL A   1     -22.656   0.543  28.662  0.00  0.00    +0.165 C 
BRANCH  16  18
ATOM     17  C   UNL A   1     -21.549   1.797  26.615  0.00  0.00    +0.008 C 
ATOM     18  C   UNL A   1     -21.567   1.429  28.117  0.00  0.00    +0.066 C 
ENDBRANCH  16  18
ENDBRANCH  14  16
BRANCH  14  19
ATOM     19  C   UNL A   1     -24.496   1.330  27.020  0.00  0.00    +0.052 C 
BRANCH  19  20
ATOM     20  C   UNL A   1     -25.688   1.614  26.461  0.00  0.00    +0.018 C 
ATOM     21  C   UNL A   1     -26.250   2.920  26.395  0.00  0.00    +0.073 C 
ATOM     22  C   UNL A   1     -27.438   3.091  25.645  0.00  0.00    +0.106 C 
ATOM     23  N   UNL A   1     -28.075   2.089  25.003  0.00  0.00    -0.208 NA
ATOM     24  C   UNL A   1     -27.543   0.849  25.079  0.00  0.00    +0.253 C 
ATOM     25  C   UNL A   1     -26.354   0.576  25.777  0.00  0.00    +0.189 C 
ATOM     26  F   UNL A   1     -25.860  -0.681  25.795  0.00  0.00    -0.200 F 
BRANCH  21  27
ATOM     27  C   UNL A   1     -25.642   4.093  27.123  0.00  0.00    +0.266 C 
ATOM     28  N   UNL A   1     -25.614   5.252  26.449  0.00  0.00    -0.200 NA
ATOM     29  C   UNL A   1     -25.026   6.479  26.963  0.00  0.00    +0.139 C 
ATOM     30  O   UNL A   1     -25.143   3.966  28.243  0.00  0.00    -0.268 OA
ENDBRANCH  21  27
BRANCH  24  31
ATOM     31  O   UNL A   1     -28.193  -0.208  24.477  0.00  0.00    -0.456 OA
BRANCH  31  32
ATOM     32  C   UNL A   1     -29.460   0.005  23.866  0.00  0.00    +0.243 C 
BRANCH  32  33
ATOM     33  C   UNL A   1     -30.065  -1.377  23.573  0.00  0.00    +0.229 C 
ATOM     34  O   UNL A   1     -30.729  -1.878  24.721  0.00  0.00    -0.216 OA
ENDBRANCH  32  33
ENDBRANCH  31  32
ENDBRANCH  24  31
ENDBRANCH  19  20
ENDBRANCH  14  19
ENDBRANCH   1  14
BRANCH   1  35
ATOM     35  C   UNL A   1     -26.021   0.539  28.856  0.00  0.00    +0.092 C 
BRANCH  35  36
ATOM     36  C   UNL A   1     -27.348   0.052  28.965  0.00  0.00    +0.106 C 
BRANCH  36  37
ATOM     37  N   UNL A   1     -28.470   1.002  28.969  0.00  0.00    -0.215 NA
BRANCH  37  39
ATOM     38  C   UNL A   1     -28.672   4.598  29.269  0.00  0.00    +0.064 C 
ATOM     39  C   UNL A   1     -28.337   2.313  29.730  0.00  0.00    +0.102 C 
ATOM     40  C   UNL A   1     -27.133   3.186  30.198  0.00  0.00    +0.053 C 
ATOM     41  C   UNL A   1     -29.286   3.341  29.519  0.00  0.00    +0.134 C 
ATOM     42  C   UNL A   1     -27.428   4.465  29.775  0.00  0.00    +0.156 C 
ATOM     43  O   UNL A   1     -26.776   5.455  30.521  0.00  0.00    -0.223 OA
BRANCH  41  45
ATOM     44  C   UNL A   1     -31.446   4.161  29.452  0.00  0.00    +0.174 C 
ATOM     45  O   UNL A   1     -30.529   3.045  29.358  0.00  0.00    -0.352 OA
ENDBRANCH  41  45
ENDBRANCH  37  39
ENDBRANCH  36  37
ENDBRANCH  35  36
ENDBRANCH   1  35
TORSDOF 17
