MODEL 1387
MODEL 1
REMARK VINA RESULT:    -6.560      0.000      0.000
REMARK INTER + INTRA:          -7.294
REMARK INTER:                  -6.944
REMARK INTRA:                  -0.350
REMARK UNBOUND:                -0.350
REMARK  Name = No_1387-gen_results/8p0m/2024-11-27-11-27-31/
REMARK  1 active torsions:
REMARK  status: ('A' for Active; 'I' for Inactive)
REMARK    1  A    between atoms: C_3  and  C_7
REMARK                            x       y       z     vdW  Elec       q    Type
REMARK                         _______ _______ _______ _____ _____    ______ ____
ROOT
ATOM      1  C   UNL A   1     -26.479  -3.518  29.939  0.00  0.00    +0.000 A 
ATOM      2  C   UNL A   1     -25.735  -2.609  29.650  0.00  0.00    +0.000 A 
ATOM      3  C   UNL A   1     -24.563  -2.684  29.088  0.00  0.00    +0.000 A 
ATOM      4  C   UNL A   1     -24.052  -3.979  28.770  0.00  0.00    +0.000 A 
ATOM      5  C   UNL A   1     -24.891  -5.015  29.004  0.00  0.00    +0.000 A 
ATOM      6  C   UNL A   1     -26.132  -4.827  29.556  0.00  0.00    +0.000 A 
ENDROOT
BRANCH   3   7
ATOM      7  C   UNL A   1     -23.665  -1.511  28.827  0.00  0.00    +0.000 A 
ATOM      8  C   UNL A   1     -22.661  -1.322  29.171  0.00  0.00    +0.000 A 
ATOM      9  C   UNL A   1     -21.839  -0.075  28.976  0.00  0.00    +0.000 A 
ATOM     10  C   UNL A   1     -24.289  -0.412  27.945  0.00  0.00    +0.000 A 
ATOM     11  C   UNL A   1     -23.545   0.715  27.581  0.00  0.00    +0.000 A 
ATOM     12  C   UNL A   1     -22.296   0.877  28.185  0.00  0.00    +0.000 A 
ENDBRANCH   3   7
TORSDOF 1
ENDMDL
ENDMDL
