MODEL 1388
MODEL 1
REMARK VINA RESULT:    -6.926      0.000      0.000
REMARK INTER + INTRA:          -9.159
REMARK INTER:                  -8.140
REMARK INTRA:                  -1.019
REMARK UNBOUND:                -1.019
REMARK  Name = No_1388-gen_results/8p0m/2024-11-27-11-27-31/
REMARK  3 active torsions:
REMARK  status: ('A' for Active; 'I' for Inactive)
REMARK    1  A    between atoms: C_3  and  C_7
REMARK    2  A    between atoms: C_7  and  C_8
REMARK    3  A    between atoms: C_7  and  C_14
REMARK                            x       y       z     vdW  Elec       q    Type
REMARK                         _______ _______ _______ _____ _____    ______ ____
ROOT
ATOM      1  C   UNL A   1     -23.547  -1.172  29.725  0.00  0.00    +0.111 C 
ENDROOT
BRANCH   1   4
ATOM      2  C   UNL A   1     -23.857  -3.558  28.904  0.00  0.00    -0.004 A 
ATOM      3  C   UNL A   1     -24.473  -4.413  28.917  0.00  0.00    -0.000 A 
ATOM      4  C   UNL A   1     -24.435  -2.409  29.612  0.00  0.00    -0.013 A 
ATOM      5  C   UNL A   1     -25.691  -2.402  30.059  0.00  0.00    -0.004 A 
ATOM      6  C   UNL A   1     -25.843  -4.636  29.310  0.00  0.00    -0.000 A 
ATOM      7  C   UNL A   1     -26.371  -3.549  29.943  0.00  0.00    -0.000 A 
ENDBRANCH   1   4
BRANCH   1   8
ATOM      8  C   UNL A   1     -23.357  -0.361  28.554  0.00  0.00    -0.013 A 
ATOM      9  C   UNL A   1     -24.387  -0.027  27.762  0.00  0.00    -0.004 A 
ATOM     10  C   UNL A   1     -24.206   0.844  26.688  0.00  0.00    -0.000 A 
ATOM     11  C   UNL A   1     -23.103   1.703  26.661  0.00  0.00    -0.000 A 
ATOM     12  C   UNL A   1     -22.069   1.481  27.602  0.00  0.00    -0.000 A 
ATOM     13  C   UNL A   1     -22.190   0.513  28.563  0.00  0.00    -0.004 A 
ENDBRANCH   1   8
BRANCH   1  14
ATOM     14  C   UNL A   1     -23.101  -0.763  30.968  0.00  0.00    +0.326 C 
ATOM     15  F   UNL A   1     -23.132  -1.588  31.712  0.00  0.00    -0.198 F 
ATOM     16  F   UNL A   1     -23.997   0.220  31.373  0.00  0.00    -0.198 F 
ENDBRANCH   1  14
TORSDOF 3
ENDMDL
ENDMDL
