MODEL 1389
MODEL 1
REMARK VINA RESULT:    -6.296      0.000      0.000
REMARK INTER + INTRA:          -9.254
REMARK INTER:                  -8.504
REMARK INTRA:                  -0.750
REMARK UNBOUND:                -0.750
REMARK  Name = No_1389-gen_results/8p0m/2024-11-27-11-27-31/
REMARK  6 active torsions:
REMARK  status: ('A' for Active; 'I' for Inactive)
REMARK    1  A    between atoms: C_5  and  C_8
REMARK    2  A    between atoms: C_8  and  O_10
REMARK    3  A    between atoms: O_10  and  C_12
REMARK    4  A    between atoms: C_12  and  C_13
REMARK    5  A    between atoms: C_12  and  C_16
REMARK    6  A    between atoms: C_16  and  C_17
REMARK                            x       y       z     vdW  Elec       q    Type
REMARK                         _______ _______ _______ _____ _____    ______ ____
ROOT
ATOM      1  C   UNL A   1     -23.383  -1.110  29.908  0.00  0.00    +0.342 C 
ATOM      2  O   UNL A   1     -22.793  -0.785  30.780  0.00  0.00    -0.245 OA
ENDROOT
BRANCH   1   7
ATOM      3  C   UNL A   1     -26.187  -4.194  29.696  0.00  0.00    +0.023 A 
ATOM      4  C   UNL A   1     -25.213  -4.286  29.303  0.00  0.00    +0.059 A 
ATOM      5  C   UNL A   1     -26.551  -2.895  30.187  0.00  0.00    +0.059 A 
ATOM      6  C   UNL A   1     -25.678  -1.890  30.308  0.00  0.00    +0.018 A 
ATOM      7  C   UNL A   1     -24.414  -2.124  29.841  0.00  0.00    +0.077 A 
ATOM      8  C   UNL A   1     -24.110  -3.349  29.311  0.00  0.00    +0.018 A 
ATOM      9 CL   UNL A   1     -28.209  -2.683  30.736  0.00  0.00    -0.082 Cl
ATOM     10 CL   UNL A   1     -24.731  -5.940  28.587  0.00  0.00    -0.082 Cl
ENDBRANCH   1   7
BRANCH   1  11
ATOM     11  O   UNL A   1     -23.197  -0.493  28.665  0.00  0.00    -0.437 OA
BRANCH  11  12
ATOM     12  C   UNL A   1     -22.730   0.758  28.593  0.00  0.00    +0.275 C 
BRANCH  12  13
ATOM     13  C   UNL A   1     -21.612   0.934  28.047  0.00  0.00    +0.405 C 
ATOM     14  O   UNL A   1     -20.761   0.165  28.142  0.00  0.00    -0.242 OA
ATOM     15  O   UNL A   1     -21.485   1.868  27.055  0.00  0.00    -0.242 OA
ENDBRANCH  12  13
BRANCH  12  16
ATOM     16  C   UNL A   1     -23.910   1.428  27.707  0.00  0.00    +0.081 C 
BRANCH  16  17
ATOM     17  C   UNL A   1     -24.605   0.546  26.976  0.00  0.00    -0.026 C 
ATOM     18  C   UNL A   1     -24.725   0.539  25.679  0.00  0.00    -0.030 C 
ATOM     19  C   UNL A   1     -25.535  -0.411  24.970  0.00  0.00    +0.030 C 
ENDBRANCH  16  17
ENDBRANCH  12  16
ENDBRANCH  11  12
ENDBRANCH   1  11
TORSDOF 6
ENDMDL
ENDMDL
