MODEL 1390
MODEL 1
REMARK VINA RESULT:    -4.464      0.000      0.000
REMARK INTER + INTRA:          -4.464
REMARK INTER:                  -4.464
REMARK INTRA:                   0.000
REMARK UNBOUND:                 0.000
REMARK  Name = No_1390-gen_results/8p0m/2024-11-27-11-27-31/
REMARK  0 active torsions:
REMARK  status: ('A' for Active; 'I' for Inactive)
REMARK                            x       y       z     vdW  Elec       q    Type
REMARK                         _______ _______ _______ _____ _____    ______ ____
ROOT
ATOM      1  F   UNL A   1     -10.769 -10.233  17.216  0.00  0.00    -0.204 F 
ATOM      2  C   UNL A   1      -9.977 -10.117  18.035  0.00  0.00    +0.140 A 
ATOM      3  C   UNL A   1      -8.836 -10.644  18.019  0.00  0.00    +0.030 A 
ATOM      4  C   UNL A   1     -10.411  -9.241  19.217  0.00  0.00    +0.030 A 
ATOM      5  C   UNL A   1      -9.487  -9.087  20.322  0.00  0.00    +0.002 A 
ATOM      6  C   UNL A   1      -7.893 -10.492  19.186  0.00  0.00    +0.002 A 
ATOM      7  C   UNL A   1      -8.264  -9.719  20.284  0.00  0.00    +0.000 A 
ENDROOT
TORSDOF 0
ENDMDL
ENDMDL
