MODEL 1392
MODEL 1
REMARK VINA RESULT:    -7.563      0.000      0.000
REMARK INTER + INTRA:         -14.884
REMARK INTER:                 -12.868
REMARK INTRA:                  -2.016
REMARK UNBOUND:                -2.016
REMARK  Name = No_1392-gen_results/8p0m/2024-11-27-11-27-31/
REMARK  12 active torsions:
REMARK  status: ('A' for Active; 'I' for Inactive)
REMARK    1  A    between atoms: C_2  and  C_11
REMARK    2  A    between atoms: C_3  and  C_4
REMARK    3  A    between atoms: C_11  and  O_12
REMARK    4  A    between atoms: O_12  and  C_14
REMARK    5  A    between atoms: C_14  and  C_15
REMARK    6  A    between atoms: C_14  and  C_21
REMARK    7  A    between atoms: C_23  and  C_24
REMARK    8  A    between atoms: C_24  and  C_25
REMARK    9  A    between atoms: C_26  and  C_27
REMARK   10  A    between atoms: C_27  and  N_28
REMARK   11  A    between atoms: N_28  and  C_30
REMARK   12  A    between atoms: N_28  and  C_31
REMARK                            x       y       z     vdW  Elec       q    Type
REMARK                         _______ _______ _______ _____ _____    ______ ____
ROOT
ATOM      1  C   UNL A   1     -23.663  -1.186  30.093  0.00  0.00    +0.208 C 
ATOM      2  C   UNL A   1     -22.327  -1.133  29.334  0.00  0.00    +0.062 C 
ENDROOT
BRANCH   1   3
ATOM      3  C   UNL A   1     -24.291  -2.369  29.878  0.00  0.00    +0.025 A 
ATOM      4  C   UNL A   1     -23.820  -3.277  29.278  0.00  0.00    +0.000 A 
ATOM      5  C   UNL A   1     -24.584  -4.469  28.922  0.00  0.00    -0.000 A 
ATOM      6  C   UNL A   1     -25.948  -4.530  29.330  0.00  0.00    -0.000 A 
ATOM      7  C   UNL A   1     -26.523  -3.440  29.969  0.00  0.00    -0.000 A 
ATOM      8  C   UNL A   1     -25.750  -2.358  30.231  0.00  0.00    +0.000 A 
ENDBRANCH   1   3
BRANCH   1   9
ATOM      9  C   UNL A   1     -23.192  -1.095  31.622  0.00  0.00    -0.046 C 
ATOM     10  C   UNL A   1     -23.801  -1.137  32.510  0.00  0.00    -0.049 C 
BRANCH  10  11
ATOM     11  C   UNL A   1     -24.097  -1.105  33.690  0.00  0.00    +0.246 C 
ATOM     12  F   UNL A   1     -23.173  -1.846  33.731  0.00  0.00    -0.218 F 
BRANCH  11  13
ATOM     13  C   UNL A   1     -24.484  -0.929  34.905  0.00  0.00    +0.019 C 
ATOM     14  C   UNL A   1     -25.811  -0.561  35.011  0.00  0.00    -0.006 C 
BRANCH  14  15
ATOM     15  C   UNL A   1     -26.684  -0.233  34.055  0.00  0.00    +0.117 C 
BRANCH  15  16
ATOM     16  N   UNL A   1     -26.786   0.827  33.513  0.00  0.00    -0.302 N 
BRANCH  16  17
ATOM     17  C   UNL A   1     -26.352   1.852  32.995  0.00  0.00    +0.108 C 
ATOM     18  C   UNL A   1     -25.373   2.391  32.738  0.00  0.00    +0.250 C 
ATOM     19  O   UNL A   1     -26.249   2.804  33.868  0.00  0.00    -0.282 OA
ENDBRANCH  16  17
BRANCH  16  20
ATOM     20  C   UNL A   1     -27.292   1.051  32.521  0.00  0.00    +0.073 C 
ATOM     21  C   UNL A   1     -28.757   1.176  32.669  0.00  0.00    +0.021 C 
ATOM     22  C   UNL A   1     -27.263   1.300  30.946  0.00  0.00    +0.021 C 
ENDBRANCH  16  20
ENDBRANCH  15  16
ENDBRANCH  14  15
ENDBRANCH  11  13
ENDBRANCH  10  11
ENDBRANCH   1   9
BRANCH   1  23
ATOM     23  O   UNL A   1     -24.309  -0.074  29.952  0.00  0.00    -0.437 OA
BRANCH  23  24
ATOM     24  C   UNL A   1     -23.834   0.954  29.307  0.00  0.00    +0.342 C 
ATOM     25  O   UNL A   1     -23.413   1.927  29.923  0.00  0.00    -0.245 OA
BRANCH  24  27
ATOM     26  C   UNL A   1     -24.798   0.423  27.322  0.00  0.00    +0.010 A 
ATOM     27  C   UNL A   1     -24.072   1.059  27.746  0.00  0.00    +0.076 A 
ATOM     28  C   UNL A   1     -24.999   0.568  25.830  0.00  0.00    +0.072 A 
ATOM     29  C   UNL A   1     -23.048   1.918  27.138  0.00  0.00    +0.006 A 
ATOM     30  C   UNL A   1     -23.148   2.079  25.773  0.00  0.00    +0.000 A 
ATOM     31  C   UNL A   1     -24.099   1.392  25.062  0.00  0.00    +0.004 A 
BRANCH  28  32
ATOM     32  C   UNL A   1     -26.020  -0.072  25.040  0.00  0.00    +0.419 C 
ATOM     33  F   UNL A   1     -25.735  -1.124  24.624  0.00  0.00    -0.166 F 
ATOM     34  F   UNL A   1     -26.431   0.761  23.962  0.00  0.00    -0.166 F 
ATOM     35  F   UNL A   1     -27.247  -0.149  25.783  0.00  0.00    -0.166 F 
ENDBRANCH  28  32
ENDBRANCH  24  27
ENDBRANCH  23  24
ENDBRANCH   1  23
TORSDOF 12
ENDMDL
ENDMDL
