MODEL 1393
MODEL 1
REMARK VINA RESULT:    -5.483      0.000      0.000
REMARK INTER + INTRA:          -6.367
REMARK INTER:                  -6.124
REMARK INTRA:                  -0.243
REMARK UNBOUND:                -0.243
REMARK  Name = No_1393-gen_results/8p0m/2024-11-27-11-27-31/
REMARK  2 active torsions:
REMARK  status: ('A' for Active; 'I' for Inactive)
REMARK    1  A    between atoms: C_3  and  C_4
REMARK    2  A    between atoms: C_4  and  C_8
REMARK                            x       y       z     vdW  Elec       q    Type
REMARK                         _______ _______ _______ _____ _____    ______ ____
ROOT
ATOM      1  C   UNL A   1     -26.425  -3.546  29.903  0.00  0.00    -0.000 A 
ATOM      2  C   UNL A   1     -25.592  -2.677  29.793  0.00  0.00    -0.004 A 
ATOM      3  C   UNL A   1     -24.363  -2.931  29.193  0.00  0.00    -0.018 A 
ATOM      4  C   UNL A   1     -26.072  -4.940  29.624  0.00  0.00    -0.000 A 
ATOM      5  C   UNL A   1     -24.925  -5.271  28.945  0.00  0.00    -0.000 A 
ATOM      6  C   UNL A   1     -24.002  -4.247  28.716  0.00  0.00    -0.004 A 
ENDROOT
BRANCH   3   7
ATOM      7  C   UNL A   1     -23.382  -1.930  28.973  0.00  0.00    +0.052 C 
BRANCH   7   8
ATOM      8  C   UNL A   1     -23.635  -0.611  28.630  0.00  0.00    -0.026 C 
ATOM      9  C   UNL A   1     -22.600   0.282  28.372  0.00  0.00    -0.030 C 
ATOM     10  C   UNL A   1     -21.227  -0.123  28.710  0.00  0.00    +0.030 C 
ENDBRANCH   7   8
ENDBRANCH   3   7
TORSDOF 2
ENDMDL
ENDMDL
