MODEL 1395
MODEL 1
REMARK VINA RESULT:    -3.510      0.000      0.000
REMARK INTER + INTRA:          -3.776
REMARK INTER:                  -3.715
REMARK INTRA:                  -0.061
REMARK UNBOUND:                -0.061
REMARK  Name = No_1395-gen_results/8p0m/2024-11-27-11-27-31/
REMARK  1 active torsions:
REMARK  status: ('A' for Active; 'I' for Inactive)
REMARK    1  A    between atoms: C_3  and  C_4
REMARK                            x       y       z     vdW  Elec       q    Type
REMARK                         _______ _______ _______ _____ _____    ______ ____
ROOT
ATOM      1 CL   UNL A   1      -9.305 -10.486  17.676  0.00  0.00    -0.081 Cl
ATOM      2  C   UNL A   1     -10.031  -9.800  18.380  0.00  0.00    +0.068 C 
ATOM      3  C   UNL A   1      -9.491  -9.295  19.524  0.00  0.00    +0.012 C 
ENDROOT
BRANCH   3   4
ATOM      4  C   UNL A   1      -8.132  -9.510  19.947  0.00  0.00    +0.001 C 
ATOM      5  C   UNL A   1      -7.301  -8.330  19.750  0.00  0.00    +0.000 C 
ENDBRANCH   3   4
TORSDOF 1
ENDMDL
ENDMDL
