MODEL 1396
MODEL 1
REMARK VINA RESULT:    -7.579      0.000      0.000
REMARK INTER + INTRA:          -8.992
REMARK INTER:                  -8.466
REMARK INTRA:                  -0.527
REMARK UNBOUND:                -0.527
REMARK  Name = No_1396-gen_results/8p0m/2024-11-27-11-27-31/
REMARK  2 active torsions:
REMARK  status: ('A' for Active; 'I' for Inactive)
REMARK    1  A    between atoms: C_2  and  C_7
REMARK    2  A    between atoms: C_11  and  C_14
REMARK                            x       y       z     vdW  Elec       q    Type
REMARK                         _______ _______ _______ _____ _____    ______ ____
ROOT
ATOM      1  C   UNL A   1     -23.587  -1.498  28.883  0.00  0.00    -0.000 A 
ATOM      2  C   UNL A   1     -22.723  -1.213  29.349  0.00  0.00    -0.000 A 
ATOM      3  C   UNL A   1     -21.809  -0.039  29.090  0.00  0.00    -0.000 A 
ATOM      4  C   UNL A   1     -22.195   0.856  28.111  0.00  0.00    +0.004 A 
ATOM      5  C   UNL A   1     -23.401   0.638  27.441  0.00  0.00    +0.071 A 
ATOM      6  C   UNL A   1     -24.132  -0.475  27.735  0.00  0.00    +0.004 A 
ENDROOT
BRANCH   1   8
ATOM      7  C   UNL A   1     -25.673  -2.434  29.608  0.00  0.00    +0.011 A 
ATOM      8  C   UNL A   1     -24.557  -2.589  29.169  0.00  0.00    +0.001 A 
ATOM      9  C   UNL A   1     -24.076  -3.858  28.863  0.00  0.00    +0.000 A 
ATOM     10  C   UNL A   1     -24.875  -5.031  29.105  0.00  0.00    +0.001 A 
ATOM     11  C   UNL A   1     -26.143  -4.762  29.636  0.00  0.00    +0.011 A 
ATOM     12  C   UNL A   1     -26.544  -3.544  29.923  0.00  0.00    +0.058 A 
ATOM     13 CL   UNL A   1     -28.071  -3.355  30.662  0.00  0.00    -0.082 Cl
ENDBRANCH   1   8
BRANCH   5  14
ATOM     14  C   UNL A   1     -23.810   1.556  26.387  0.00  0.00    +0.419 C 
ATOM     15  F   UNL A   1     -24.711   2.385  26.731  0.00  0.00    -0.166 F 
ATOM     16  F   UNL A   1     -24.389   0.865  25.308  0.00  0.00    -0.166 F 
ATOM     17  F   UNL A   1     -22.784   2.271  25.832  0.00  0.00    -0.166 F 
ENDBRANCH   5  14
TORSDOF 2
ENDMDL
ENDMDL
