REMARK  Name = outputs/IAG933/test6/raw/output_1397_IAG933_linker_design_.xyz
REMARK  7 active torsions:
REMARK  status: ('A' for Active; 'I' for Inactive)
REMARK    1  A    between atoms: C_1  and  C_2
REMARK    2  A    between atoms: C_1  and  C_8
REMARK    3  A    between atoms: C_13  and  C_30
REMARK    4  A    between atoms: C_14  and  C_15
REMARK    5  A    between atoms: C_21  and  O_22
REMARK    6  A    between atoms: O_22  and  C_23
REMARK    7  A    between atoms: C_23  and  C_24
REMARK                            x       y       z     vdW  Elec       q    Type
REMARK                         _______ _______ _______ _____ _____    ______ ____
ROOT
ATOM      1  C   UNL A   1     -24.855  -1.012  30.143  0.00  0.00    +0.110 C 
ATOM      2  C   UNL A   1     -22.195   1.455  27.002  0.00  0.00    +0.282 C 
ATOM      3  O   UNL A   1     -23.411   1.974  25.303  0.00  0.00    -0.291 OA
ATOM      4  C   UNL A   1     -24.170   1.579  26.417  0.00  0.00    +0.179 C 
ATOM      5  C   UNL A   1     -23.795   1.393  28.546  0.00  0.00    +0.055 C 
ATOM      6  O   UNL A   1     -22.037   2.027  25.739  0.00  0.00    -0.279 OA
ATOM      7  C   UNL A   1     -23.866   0.276  29.502  0.00  0.00    +0.129 C 
ATOM      8  N   UNL A   1     -21.410   0.265  29.119  0.00  0.00    -0.025 NA
ATOM      9  C   UNL A   1     -22.444  -0.267  30.032  0.00  0.00    +0.269 C 
ATOM     10  N   UNL A   1     -19.953   1.143  27.521  0.00  0.00    +0.217 NA
ATOM     11  C   UNL A   1     -21.273   0.923  27.967  0.00  0.00    +0.440 C 
ATOM     12  C   UNL A   1     -23.455   1.467  27.294  0.00  0.00    +0.061 C 
ATOM     13  N   UNL A   1     -25.403  -0.124  29.225  0.00  0.00    -0.210 NA
ENDROOT
BRANCH   4  14
ATOM     14  C   UNL A   1     -25.688   1.614  26.461  0.00  0.00    +0.132 C 
ATOM     15  C   UNL A   1     -26.250   2.920  26.395  0.00  0.00    +0.062 C 
ATOM     16  C   UNL A   1     -27.438   3.091  25.645  0.00  0.00    +0.103 C 
ATOM     17  N   UNL A   1     -28.075   2.089  25.003  0.00  0.00    -0.212 NA
ATOM     18  C   UNL A   1     -27.543   0.849  25.079  0.00  0.00    +0.234 C 
ATOM     19  C   UNL A   1     -26.354   0.576  25.777  0.00  0.00    +0.247 C 
ATOM     20  F   UNL A   1     -25.860  -0.681  25.795  0.00  0.00    -0.226 F 
BRANCH  15  21
ATOM     21  C   UNL A   1     -25.642   4.093  27.123  0.00  0.00    +0.263 C 
ATOM     22  N   UNL A   1     -25.614   5.252  26.449  0.00  0.00    -0.200 NA
ATOM     23  C   UNL A   1     -25.026   6.479  26.963  0.00  0.00    +0.139 C 
ATOM     24  O   UNL A   1     -25.143   3.966  28.243  0.00  0.00    -0.269 OA
ENDBRANCH  15  21
BRANCH  18  25
ATOM     25  O   UNL A   1     -28.193  -0.208  24.477  0.00  0.00    -0.459 OA
BRANCH  25  26
ATOM     26  C   UNL A   1     -29.460   0.005  23.866  0.00  0.00    +0.242 C 
BRANCH  26  27
ATOM     27  C   UNL A   1     -30.065  -1.377  23.573  0.00  0.00    +0.229 C 
ATOM     28  O   UNL A   1     -30.729  -1.878  24.721  0.00  0.00    -0.216 OA
ENDBRANCH  26  27
ENDBRANCH  25  26
ENDBRANCH  18  25
ENDBRANCH   4  14
BRANCH   1  29
ATOM     29  C   UNL A   1     -24.973  -2.505  29.788  0.00  0.00    -0.005 C 
ATOM     30  C   UNL A   1     -23.906  -3.173  29.146  0.00  0.00    -0.003 C 
ATOM     31  C   UNL A   1     -23.989  -4.549  28.853  0.00  0.00    -0.000 C 
ATOM     32  C   UNL A   1     -25.137  -5.280  29.205  0.00  0.00    -0.000 C 
ATOM     33  C   UNL A   1     -26.232  -4.611  29.784  0.00  0.00    -0.000 C 
ATOM     34  C   UNL A   1     -26.155  -3.232  30.065  0.00  0.00    -0.003 C 
ENDBRANCH   1  29
BRANCH   1  35
ATOM     35  C   UNL A   1     -25.387  -0.679  31.571  0.00  0.00    +0.093 C 
ATOM     36  C   UNL A   1     -25.189   0.773  32.028  0.00  0.00    +0.021 C 
ATOM     37  C   UNL A   1     -25.336   0.684  33.544  0.00  0.00    +0.020 C 
ATOM     38  C   UNL A   1     -24.829  -0.715  33.905  0.00  0.00    +0.089 C 
ATOM     39  N   UNL A   1     -24.758  -1.481  32.646  0.00  0.00    -0.218 NA
ENDBRANCH   1  35
TORSDOF 7
