MODEL 1397
MODEL 1
REMARK VINA RESULT:    -6.092      0.000      0.000
REMARK INTER + INTRA:          -8.134
REMARK INTER:                  -7.517
REMARK INTRA:                  -0.618
REMARK UNBOUND:                -0.618
REMARK  Name = No_1397-gen_results/8p0m/2024-11-27-11-27-31/
REMARK  4 active torsions:
REMARK  status: ('A' for Active; 'I' for Inactive)
REMARK    1  A    between atoms: C_2  and  O_13
REMARK    2  A    between atoms: C_4  and  C_6
REMARK    3  A    between atoms: O_13  and  C_14
REMARK    4  A    between atoms: C_15  and  C_16
REMARK                            x       y       z     vdW  Elec       q    Type
REMARK                         _______ _______ _______ _____ _____    ______ ____
ROOT
ATOM      1  C   UNL A   1     -29.335 -10.160  32.735  0.00  0.00    +0.037 A 
ATOM      2  C   UNL A   1     -28.555 -10.807  33.025  0.00  0.00    +0.145 A 
ATOM      3  C   UNL A   1     -29.715 -10.216  31.273  0.00  0.00    +0.003 A 
ATOM      4  C   UNL A   1     -29.130 -11.195  30.443  0.00  0.00    +0.000 A 
ATOM      5  C   UNL A   1     -27.819 -11.921  32.385  0.00  0.00    +0.037 A 
ATOM      6  C   UNL A   1     -28.170 -12.025  31.017  0.00  0.00    +0.003 A 
ENDROOT
BRANCH   4   7
ATOM      7  C   UNL A   1     -29.447 -11.313  29.070  0.00  0.00    +0.000 A 
ATOM      8  C   UNL A   1     -29.018 -12.039  28.340  0.00  0.00    +0.000 A 
ATOM      9  C   UNL A   1     -30.482 -10.379  28.534  0.00  0.00    +0.000 A 
ATOM     10  C   UNL A   1     -30.732 -10.394  27.144  0.00  0.00    +0.000 A 
ATOM     11  C   UNL A   1     -29.164 -12.156  26.851  0.00  0.00    +0.000 A 
ATOM     12  C   UNL A   1     -30.091 -11.234  26.338  0.00  0.00    +0.000 A 
ENDBRANCH   4   7
BRANCH   2  13
ATOM     13  O   UNL A   1     -28.139 -10.721  34.427  0.00  0.00    -0.450 OA
BRANCH  13  14
ATOM     14  C   UNL A   1     -27.953  -9.484  34.968  0.00  0.00    +0.179 C 
ATOM     15  C   UNL A   1     -26.912  -9.103  35.310  0.00  0.00    +0.041 C 
BRANCH  15  16
ATOM     16  C   UNL A   1     -26.704  -7.808  35.944  0.00  0.00    +0.003 C 
ATOM     17  C   UNL A   1     -27.482  -7.244  36.959  0.00  0.00    +0.000 C 
ENDBRANCH  15  16
ENDBRANCH  13  14
ENDBRANCH   2  13
TORSDOF 4
ENDMDL
ENDMDL
