MODEL 1398
MODEL 1
REMARK VINA RESULT:    -6.975      0.000      0.000
REMARK INTER + INTRA:         -12.978
REMARK INTER:                 -11.461
REMARK INTRA:                  -1.517
REMARK UNBOUND:                -1.517
REMARK  Name = No_1398-gen_results/8p0m/2024-11-27-11-27-31/
REMARK  11 active torsions:
REMARK  status: ('A' for Active; 'I' for Inactive)
REMARK    1  A    between atoms: C_1  and  C_2
REMARK    2  A    between atoms: C_1  and  N_8
REMARK    3  A    between atoms: C_4  and  C_18
REMARK    4  A    between atoms: C_5  and  O_10
REMARK    5  A    between atoms: C_9  and  C_11
REMARK    6  A    between atoms: N_14  and  C_15
REMARK    7  A    between atoms: N_14  and  C_17
REMARK    8  A    between atoms: C_15  and  C_31
REMARK    9  A    between atoms: N_20  and  C_22
REMARK   10  A    between atoms: C_22  and  C_23
REMARK   11  A    between atoms: C_32  and  C_33
REMARK                            x       y       z     vdW  Elec       q    Type
REMARK                         _______ _______ _______ _____ _____    ______ ____
ROOT
ATOM      1  C   UNL A   1     -26.007 -12.049   5.907  0.00  0.00    +0.142 C 
ENDROOT
BRANCH   1   2
ATOM      2  C   UNL A   1     -25.104 -12.830   5.717  0.00  0.00    -0.000 A 
ATOM      3  C   UNL A   1     -24.236 -12.748   4.676  0.00  0.00    +0.005 A 
ATOM      4  C   UNL A   1     -23.125 -13.695   4.431  0.00  0.00    +0.087 A 
ATOM      5  C   UNL A   1     -22.954 -14.755   5.381  0.00  0.00    +0.143 A 
ATOM      6  C   UNL A   1     -23.831 -14.763   6.488  0.00  0.00    +0.037 A 
ATOM      7  C   UNL A   1     -24.841 -13.850   6.651  0.00  0.00    +0.001 A 
BRANCH   4   8
ATOM      8  C   UNL A   1     -22.182 -13.613   3.305  0.00  0.00    +0.252 C 
ATOM      9  O   UNL A   1     -22.313 -14.274   2.384  0.00  0.00    -0.270 OA
ATOM     10  N   UNL A   1     -21.256 -12.652   3.386  0.00  0.00    -0.264 N 
ATOM     11  C   UNL A   1     -20.928 -11.730   4.430  0.00  0.00    +0.116 C 
BRANCH  10  12
ATOM     12  C   UNL A   1     -20.697 -12.261   2.068  0.00  0.00    +0.209 C 
BRANCH  12  13
ATOM     13  C   UNL A   1     -19.152 -12.133   2.119  0.00  0.00    +0.385 C 
ATOM     14  O   UNL A   1     -18.676 -12.892   2.912  0.00  0.00    -0.244 OA
ATOM     15  O   UNL A   1     -18.634 -11.573   1.191  0.00  0.00    -0.244 OA
ENDBRANCH  12  13
ENDBRANCH  10  12
ENDBRANCH   4   8
BRANCH   5  16
ATOM     16  O   UNL A   1     -21.963 -15.635   5.296  0.00  0.00    -0.471 OA
ATOM     17  C   UNL A   1     -21.746 -16.560   5.696  0.00  0.00    +0.253 C 
ENDBRANCH   5  16
ENDBRANCH   1   2
BRANCH   1  18
ATOM     18  N   UNL A   1     -26.733 -12.169   6.937  0.00  0.00    -0.193 NA
ATOM     19  C   UNL A   1     -27.991 -11.561   7.010  0.00  0.00    +0.319 C 
ATOM     20  O   UNL A   1     -28.613 -11.176   5.967  0.00  0.00    -0.263 OA
BRANCH  19  21
ATOM     21  C   UNL A   1     -28.617 -11.358   8.245  0.00  0.00    +0.308 C 
ATOM     22  O   UNL A   1     -28.611 -10.357   8.792  0.00  0.00    -0.265 OA
ATOM     23  N   UNL A   1     -29.366 -12.404   8.798  0.00  0.00    -0.247 N 
BRANCH  23  24
ATOM     24  C   UNL A   1     -30.082 -12.131  10.085  0.00  0.00    +0.055 A 
ATOM     25  C   UNL A   1     -31.277 -11.937  10.297  0.00  0.00    +0.015 A 
ATOM     26  C   UNL A   1     -31.837 -11.721  11.520  0.00  0.00    +0.001 A 
ATOM     27  C   UNL A   1     -30.942 -11.710  12.612  0.00  0.00    +0.000 A 
ATOM     28  C   UNL A   1     -29.125 -12.188  11.201  0.00  0.00    +0.015 A 
ATOM     29  C   UNL A   1     -29.615 -11.968  12.432  0.00  0.00    +0.001 A 
ENDBRANCH  23  24
BRANCH  23  30
ATOM     30  C   UNL A   1     -29.509 -13.637   8.314  0.00  0.00    +0.125 C 
BRANCH  30  31
ATOM     31  C   UNL A   1     -28.627 -14.724   8.596  0.00  0.00    -0.004 C 
ATOM     32  C   UNL A   1     -29.105 -15.643   9.461  0.00  0.00    -0.003 C 
BRANCH  32  33
ATOM     33  C   UNL A   1     -30.401 -15.682   9.959  0.00  0.00    -0.000 C 
ATOM     34  C   UNL A   1     -30.641 -15.518  11.317  0.00  0.00    -0.000 C 
ENDBRANCH  32  33
ENDBRANCH  30  31
ENDBRANCH  23  30
ENDBRANCH  19  21
ENDBRANCH   1  18
TORSDOF 11
ENDMDL
ENDMDL
