MODEL 139
MODEL 1
REMARK VINA RESULT:    -6.543      0.000      0.000
REMARK INTER + INTRA:          -7.588
REMARK INTER:                  -7.308
REMARK INTRA:                  -0.280
REMARK UNBOUND:                -0.280
REMARK  Name = No_139-gen_results/8p0m/2024-11-27-11-27-31/
REMARK  2 active torsions:
REMARK  status: ('A' for Active; 'I' for Inactive)
REMARK    1  A    between atoms: C_3  and  C_12
REMARK    2  A    between atoms: C_5  and  C_9
REMARK                            x       y       z     vdW  Elec       q    Type
REMARK                         _______ _______ _______ _____ _____    ______ ____
ROOT
ATOM      1  C   UNL A   1     -23.225  -1.395  31.154  0.00  0.00    +0.226 C 
ATOM      2  C   UNL A   1     -23.367  -0.770  30.128  0.00  0.00    +0.003 C 
ATOM      3  C   UNL A   1     -24.025  -1.230  29.000  0.00  0.00    +0.062 C 
ATOM      4  C   UNL A   1     -24.139  -0.540  27.737  0.00  0.00    +0.021 C 
ATOM      5  C   UNL A   1     -23.538   0.735  27.606  0.00  0.00    +0.104 C 
ATOM      6  C   UNL A   1     -22.850   1.265  28.728  0.00  0.00    +0.016 C 
ATOM      7  C   UNL A   1     -22.772   0.525  29.867  0.00  0.00    +0.026 C 
ATOM      8  O   UNL A   1     -23.745  -0.887  32.213  0.00  0.00    -0.284 OA
ENDROOT
BRANCH   3   9
ATOM      9  C   UNL A   1     -24.581  -2.578  29.011  0.00  0.00    +0.062 A 
ATOM     10  N   UNL A   1     -23.842  -3.597  28.468  0.00  0.00    -0.248 NA
ATOM     11  C   UNL A   1     -24.119  -4.877  28.740  0.00  0.00    +0.099 A 
ATOM     12  C   UNL A   1     -25.767  -2.907  29.531  0.00  0.00    +0.015 A 
ATOM     13  C   UNL A   1     -26.189  -4.188  29.673  0.00  0.00    +0.003 A 
ATOM     14  C   UNL A   1     -25.330  -5.233  29.224  0.00  0.00    +0.021 A 
ENDBRANCH   3   9
BRANCH   5  15
ATOM     15  C   UNL A   1     -23.853   1.416  26.392  0.00  0.00    +0.364 C 
ATOM     16  O   UNL A   1     -23.155   2.411  26.124  0.00  0.00    -0.246 OA
ATOM     17  O   UNL A   1     -24.589   0.919  25.484  0.00  0.00    -0.246 OA
ENDBRANCH   5  15
TORSDOF 2
ENDMDL
ENDMDL
