REMARK  Name = outputs/IAG933/test6/raw/output_140_IAG933_linker_design_.xyz
REMARK  12 active torsions:
REMARK  status: ('A' for Active; 'I' for Inactive)
REMARK    1  A    between atoms: C_1  and  C_2
REMARK    2  A    between atoms: C_1  and  C_8
REMARK    3  A    between atoms: C_1  and  C_29
REMARK    4  A    between atoms: C_13  and  C_39
REMARK    5  A    between atoms: C_14  and  C_15
REMARK    6  A    between atoms: C_21  and  O_22
REMARK    7  A    between atoms: O_22  and  C_23
REMARK    8  A    between atoms: C_23  and  C_24
REMARK    9  A    between atoms: O_28  and  C_41
REMARK   10  A    between atoms: C_36  and  C_37
REMARK   11  A    between atoms: C_36  and  C_42
REMARK   12  A    between atoms: C_37  and  P_38
REMARK                            x       y       z     vdW  Elec       q    Type
REMARK                         _______ _______ _______ _____ _____    ______ ____
ROOT
ATOM      1  C   UNL A   1     -23.977  -0.266  29.150  0.00  0.00    +0.123 C 
ATOM      2  O   UNL A   1     -21.348   0.657  28.441  0.00  0.00    -0.220 OA
ATOM      3  C   UNL A   1     -22.466   1.491  28.425  0.00  0.00    +0.187 C 
ATOM      4  C   UNL A   1     -24.482   0.973  27.117  0.00  0.00    +0.173 C 
ATOM      5  O   UNL A   1     -24.661  -0.201  27.877  0.00  0.00    -0.351 OA
ATOM      6  C   UNL A   1     -23.187   1.508  27.121  0.00  0.00    +0.216 C 
ATOM      7  C   UNL A   1     -23.465   1.086  29.596  0.00  0.00    +0.061 C 
ENDROOT
BRANCH   4   8
ATOM      8  C   UNL A   1     -25.688   1.614  26.461  0.00  0.00    +0.045 C 
ATOM      9  C   UNL A   1     -26.250   2.920  26.395  0.00  0.00    +0.075 C 
ATOM     10  C   UNL A   1     -27.438   3.091  25.645  0.00  0.00    +0.106 C 
ATOM     11  N   UNL A   1     -28.075   2.089  25.003  0.00  0.00    -0.208 NA
ATOM     12  C   UNL A   1     -27.543   0.849  25.079  0.00  0.00    +0.253 C 
ATOM     13  C   UNL A   1     -26.354   0.576  25.777  0.00  0.00    +0.192 C 
ATOM     14  F   UNL A   1     -25.860  -0.681  25.795  0.00  0.00    -0.200 F 
BRANCH   9  15
ATOM     15  C   UNL A   1     -25.642   4.093  27.123  0.00  0.00    +0.266 C 
ATOM     16  N   UNL A   1     -25.614   5.252  26.449  0.00  0.00    -0.200 NA
ATOM     17  C   UNL A   1     -25.026   6.479  26.963  0.00  0.00    +0.139 C 
ATOM     18  O   UNL A   1     -25.143   3.966  28.243  0.00  0.00    -0.268 OA
ENDBRANCH   9  15
BRANCH  12  19
ATOM     19  O   UNL A   1     -28.193  -0.208  24.477  0.00  0.00    -0.456 OA
BRANCH  19  20
ATOM     20  C   UNL A   1     -29.460   0.005  23.866  0.00  0.00    +0.243 C 
BRANCH  20  21
ATOM     21  C   UNL A   1     -30.065  -1.377  23.573  0.00  0.00    +0.229 C 
ATOM     22  O   UNL A   1     -30.729  -1.878  24.721  0.00  0.00    -0.216 OA
ENDBRANCH  20  21
ENDBRANCH  19  20
ENDBRANCH  12  19
ENDBRANCH   4   8
BRANCH   6  23
ATOM     23  O   UNL A   1     -22.299   1.870  26.039  0.00  0.00    -0.186 OA
ATOM     24  O   UNL A   1     -22.899   2.754  25.276  0.00  0.00    -0.035 OA
ENDBRANCH   6  23
BRANCH   1  25
ATOM     25  C   UNL A   1     -24.855  -1.012  30.143  0.00  0.00    +0.066 C 
BRANCH  25  26
ATOM     26  C   UNL A   1     -24.973  -2.505  29.788  0.00  0.00    -0.019 C 
ATOM     27  C   UNL A   1     -23.906  -3.173  29.146  0.00  0.00    -0.004 C 
ATOM     28  C   UNL A   1     -23.989  -4.549  28.853  0.00  0.00    -0.000 C 
ATOM     29  C   UNL A   1     -25.137  -5.280  29.205  0.00  0.00    -0.000 C 
ATOM     30  C   UNL A   1     -26.232  -4.611  29.784  0.00  0.00    -0.000 C 
ATOM     31  C   UNL A   1     -26.155  -3.232  30.065  0.00  0.00    -0.004 C 
ENDBRANCH  25  26
BRANCH  25  32
ATOM     32  C   UNL A   1     -25.387  -0.679  31.571  0.00  0.00    +0.079 C 
ATOM     33  C   UNL A   1     -25.189   0.773  32.028  0.00  0.00    +0.019 C 
ATOM     34  C   UNL A   1     -25.336   0.684  33.544  0.00  0.00    +0.020 C 
ATOM     35  C   UNL A   1     -24.829  -0.715  33.905  0.00  0.00    +0.089 C 
ATOM     36  N   UNL A   1     -24.758  -1.481  32.646  0.00  0.00    -0.219 NA
ENDBRANCH  25  32
ENDBRANCH   1  25
BRANCH   7  37
ATOM     37  C   UNL A   1     -24.429   2.157  29.886  0.00  0.00    +0.017 C 
BRANCH  37  38
ATOM     38  C   UNL A   1     -24.078   2.830  31.254  0.00  0.00    +0.105 C 
BRANCH  38  42
ATOM     39  O   UNL A   1     -25.183   5.250  31.074  0.00  0.00    -0.270 OA
ATOM     40  O   UNL A   1     -24.811   4.208  33.565  0.00  0.00    -0.151 OA
ATOM     41 CL   UNL A   1     -27.129   3.649  32.245  0.00  0.00    -0.024 Cl
ATOM     42  P   UNL A   1     -25.195   4.186  31.951  0.00  0.00    +0.329 P 
ENDBRANCH  38  42
ENDBRANCH  37  38
ENDBRANCH   7  37
TORSDOF 12
