REMARK  Name = No_1400-gen_results/8p0m/2024-11-27-11-27-31/
REMARK  4 active torsions:
REMARK  status: ('A' for Active; 'I' for Inactive)
REMARK    1  A    between atoms: C_2  and  C_3
REMARK    2  A    between atoms: C_5  and  C_16
REMARK    3  A    between atoms: C_16  and  C_18
REMARK    4  A    between atoms: C_18  and  C_19
REMARK                            x       y       z     vdW  Elec       q    Type
REMARK                         _______ _______ _______ _____ _____    ______ ____
ROOT
ATOM      1  C   UNL A   1     -26.380  -0.087  27.939  0.00  0.00    +0.052 A 
ATOM      2  C   UNL A   1     -26.409   0.857  26.880  0.00  0.00    +0.015 A 
ATOM      3  C   UNL A   1     -25.082  -0.697  28.170  0.00  0.00    +0.004 A 
ATOM      4  C   UNL A   1     -25.284   1.049  26.047  0.00  0.00    -0.002 A 
ATOM      5  C   UNL A   1     -23.916  -0.344  27.444  0.00  0.00    +0.000 A 
ATOM      6  C   UNL A   1     -24.062   0.529  26.371  0.00  0.00    -0.000 A 
ENDROOT
BRANCH   1   8
ATOM      7  O   UNL A   1     -28.123  -1.335  28.487  0.00  0.00    -0.270 OA
ATOM      8  C   UNL A   1     -27.481  -0.404  28.709  0.00  0.00    +0.253 C 
ATOM      9  N   UNL A   1     -27.666   0.447  29.899  0.00  0.00    -0.254 N 
ATOM     10  C   UNL A   1     -28.778   0.103  30.787  0.00  0.00    +0.099 C 
ATOM     11  C   UNL A   1     -26.845   1.525  30.221  0.00  0.00    +0.063 C 
ATOM     12  C   UNL A   1     -27.247   2.621  30.257  0.00  0.00    -0.010 C 
ATOM     13  C   UNL A   1     -28.179   3.207  30.455  0.00  0.00    +0.027 C 
ATOM     14  C   UNL A   1     -29.399   2.498  30.694  0.00  0.00    +0.006 C 
ATOM     15  C   UNL A   1     -29.668   1.226  30.878  0.00  0.00    +0.022 C 
ENDBRANCH   1   8
BRANCH   2  16
ATOM     16  C   UNL A   1     -27.697   1.510  26.539  0.00  0.00    +0.188 C 
ATOM     17  F   UNL A   1     -28.587   1.743  27.010  0.00  0.00    -0.232 F 
BRANCH  16  18
ATOM     18  C   UNL A   1     -27.690   1.920  25.107  0.00  0.00    +0.066 C 
BRANCH  18  19
ATOM     19  C   UNL A   1     -28.784   2.755  24.882  0.00  0.00    -0.019 A 
ATOM     20  C   UNL A   1     -29.056   3.891  25.538  0.00  0.00    -0.004 A 
ATOM     21  C   UNL A   1     -30.135   4.042  26.271  0.00  0.00    -0.000 A 
ATOM     22  C   UNL A   1     -31.229   3.267  26.123  0.00  0.00    -0.000 A 
ATOM     23  C   UNL A   1     -31.258   2.390  25.036  0.00  0.00    -0.000 A 
ATOM     24  C   UNL A   1     -29.934   2.163  24.233  0.00  0.00    -0.004 A 
ENDBRANCH  18  19
ENDBRANCH  16  18
ENDBRANCH   2  16
TORSDOF 4
