MODEL 1400
MODEL 1
REMARK VINA RESULT:    -8.951      0.000      0.000
REMARK INTER + INTRA:         -12.348
REMARK INTER:                 -11.044
REMARK INTRA:                  -1.304
REMARK UNBOUND:                -1.304
REMARK  Name = No_1400-gen_results/8p0m/2024-11-27-11-27-31/
REMARK  4 active torsions:
REMARK  status: ('A' for Active; 'I' for Inactive)
REMARK    1  A    between atoms: C_2  and  C_3
REMARK    2  A    between atoms: C_5  and  C_16
REMARK    3  A    between atoms: C_16  and  C_18
REMARK    4  A    between atoms: C_18  and  C_19
REMARK                            x       y       z     vdW  Elec       q    Type
REMARK                         _______ _______ _______ _____ _____    ______ ____
ROOT
ATOM      1  C   UNL A   1     -23.233   1.471  27.887  0.00  0.00    +0.052 A 
ATOM      2  C   UNL A   1     -23.317   0.249  28.605  0.00  0.00    +0.015 A 
ATOM      3  C   UNL A   1     -21.887   1.848  27.491  0.00  0.00    +0.004 A 
ATOM      4  C   UNL A   1     -22.150  -0.436  29.010  0.00  0.00    -0.002 A 
ATOM      5  C   UNL A   1     -20.747   1.043  27.742  0.00  0.00    +0.000 A 
ATOM      6  C   UNL A   1     -20.919  -0.095  28.525  0.00  0.00    -0.000 A 
ENDROOT
BRANCH   1   8
ATOM      7  O   UNL A   1     -24.689   3.094  28.259  0.00  0.00    -0.270 OA
ATOM      8  C   UNL A   1     -24.330   2.245  27.567  0.00  0.00    +0.253 C 
ATOM      9  N   UNL A   1     -24.892   1.994  26.227  0.00  0.00    -0.254 N 
ATOM     10  C   UNL A   1     -26.011   2.843  25.814  0.00  0.00    +0.099 C 
ATOM     11  C   UNL A   1     -24.411   1.025  25.350  0.00  0.00    +0.063 C 
ATOM     12  C   UNL A   1     -25.064   0.118  25.010  0.00  0.00    -0.010 C 
ATOM     13  C   UNL A   1     -26.128  -0.179  24.835  0.00  0.00    +0.027 C 
ATOM     14  C   UNL A   1     -27.165   0.750  25.165  0.00  0.00    +0.006 C 
ATOM     15  C   UNL A   1     -27.147   2.012  25.529  0.00  0.00    +0.022 C 
ENDBRANCH   1   8
BRANCH   2  16
ATOM     16  C   UNL A   1     -24.644  -0.207  29.087  0.00  0.00    +0.188 C 
ATOM     17  F   UNL A   1     -25.339   0.074  29.798  0.00  0.00    -0.232 F 
BRANCH  16  18
ATOM     18  C   UNL A   1     -25.062  -1.422  28.333  0.00  0.00    +0.066 C 
BRANCH  18  19
ATOM     19  C   UNL A   1     -24.846  -2.538  29.141  0.00  0.00    -0.019 A 
ATOM     20  C   UNL A   1     -23.889  -3.460  28.971  0.00  0.00    -0.004 A 
ATOM     21  C   UNL A   1     -24.159  -4.719  28.716  0.00  0.00    -0.000 A 
ATOM     22  C   UNL A   1     -25.357  -5.276  28.989  0.00  0.00    -0.000 A 
ATOM     23  C   UNL A   1     -26.272  -4.515  29.721  0.00  0.00    -0.000 A 
ATOM     24  C   UNL A   1     -25.966  -2.995  29.935  0.00  0.00    -0.004 A 
ENDBRANCH  18  19
ENDBRANCH  16  18
ENDBRANCH   2  16
TORSDOF 4
ENDMDL
ENDMDL
