MODEL 1402
MODEL 1
REMARK VINA RESULT:    -6.187      0.000      0.000
REMARK INTER + INTRA:          -8.582
REMARK INTER:                  -7.634
REMARK INTRA:                  -0.948
REMARK UNBOUND:                -0.948
REMARK  Name = No_1402-gen_results/8p0m/2024-11-27-11-27-31/
REMARK  4 active torsions:
REMARK  status: ('A' for Active; 'I' for Inactive)
REMARK    1  A    between atoms: C_2  and  O_7
REMARK    2  A    between atoms: C_3  and  C_17
REMARK    3  A    between atoms: O_7  and  C_8
REMARK    4  A    between atoms: C_12  and  C_14
REMARK                            x       y       z     vdW  Elec       q    Type
REMARK                         _______ _______ _______ _____ _____    ______ ____
ROOT
ATOM      1  O   UNL A   1     -11.427   2.304  38.278  0.00  0.00    -0.454 OA
ENDROOT
BRANCH   1   3
ATOM      2  C   UNL A   1     -11.751   0.418  39.364  0.00  0.00    +0.037 A 
ATOM      3  C   UNL A   1     -11.094   1.052  38.837  0.00  0.00    +0.145 A 
ATOM      4  C   UNL A   1     -11.186  -0.900  39.655  0.00  0.00    +0.003 A 
ATOM      5  C   UNL A   1     -10.262  -1.025  40.457  0.00  0.00    +0.000 A 
ATOM      6  C   UNL A   1      -9.634   1.235  39.400  0.00  0.00    +0.037 A 
ATOM      7  C   UNL A   1      -9.151   0.046  40.038  0.00  0.00    +0.003 A 
BRANCH   4   8
ATOM      8  C   UNL A   1     -12.199  -2.084  39.727  0.00  0.00    -0.004 C 
ATOM      9  C   UNL A   1     -12.353  -2.949  38.841  0.00  0.00    -0.026 C 
ATOM     10  C   UNL A   1     -11.719  -2.697  37.478  0.00  0.00    +0.031 C 
ENDBRANCH   4   8
ENDBRANCH   1   3
BRANCH   1  11
ATOM     11  C   UNL A   1     -11.847   2.277  37.023  0.00  0.00    +0.145 A 
ATOM     12  C   UNL A   1     -13.125   2.696  36.841  0.00  0.00    +0.037 A 
ATOM     13  C   UNL A   1     -13.564   2.767  35.540  0.00  0.00    +0.003 A 
ATOM     14  C   UNL A   1     -12.726   2.245  34.548  0.00  0.00    +0.007 A 
ATOM     15  C   UNL A   1     -11.479   1.763  34.781  0.00  0.00    +0.083 A 
ATOM     16  C   UNL A   1     -11.010   1.784  36.052  0.00  0.00    +0.044 A 
BRANCH  15  17
ATOM     17  C   UNL A   1     -10.603   1.278  33.696  0.00  0.00    +0.388 C 
ATOM     18  O   UNL A   1     -11.070   1.062  32.580  0.00  0.00    -0.241 OA
ATOM     19  O   UNL A   1      -9.383   0.988  33.923  0.00  0.00    -0.241 OA
ENDBRANCH  15  17
ENDBRANCH   1  11
TORSDOF 4
ENDMDL
ENDMDL
