REMARK  Name = No_1402-gen_results/8p0m/2024-11-27-11-27-31/
REMARK  4 active torsions:
REMARK  status: ('A' for Active; 'I' for Inactive)
REMARK    1  A    between atoms: C_2  and  O_7
REMARK    2  A    between atoms: C_3  and  C_17
REMARK    3  A    between atoms: O_7  and  C_8
REMARK    4  A    between atoms: C_12  and  C_14
REMARK                            x       y       z     vdW  Elec       q    Type
REMARK                         _______ _______ _______ _____ _____    ______ ____
ROOT
ATOM      1  O   UNL A   1     -29.524  -1.615  30.266  0.00  0.00    -0.454 OA
ENDROOT
BRANCH   1   3
ATOM      2  C   UNL A   1     -28.016  -0.814  28.878  0.00  0.00    +0.037 A 
ATOM      3  C   UNL A   1     -28.469  -0.785  29.829  0.00  0.00    +0.145 A 
ATOM      4  C   UNL A   1     -27.087   0.290  28.638  0.00  0.00    +0.003 A 
ATOM      5  C   UNL A   1     -26.024   0.364  29.253  0.00  0.00    +0.000 A 
ATOM      6  C   UNL A   1     -27.537  -0.619  31.088  0.00  0.00    +0.037 A 
ATOM      7  C   UNL A   1     -26.384   0.183  30.801  0.00  0.00    +0.003 A 
BRANCH   4   8
ATOM      8  C   UNL A   1     -26.951   0.768  27.159  0.00  0.00    -0.004 C 
ATOM      9  C   UNL A   1     -25.873   0.897  26.545  0.00  0.00    -0.026 C 
ATOM     10  C   UNL A   1     -24.581   0.854  27.352  0.00  0.00    +0.031 C 
ENDBRANCH   4   8
ENDBRANCH   1   3
BRANCH   1  11
ATOM     11  C   UNL A   1     -30.733  -1.268  29.854  0.00  0.00    +0.145 A 
ATOM     12  C   UNL A   1     -31.677  -1.228  30.828  0.00  0.00    +0.037 A 
ATOM     13  C   UNL A   1     -32.923  -0.783  30.452  0.00  0.00    +0.003 A 
ATOM     14  C   UNL A   1     -33.149  -0.580  29.086  0.00  0.00    +0.007 A 
ATOM     15  C   UNL A   1     -32.194  -0.703  28.129  0.00  0.00    +0.083 A 
ATOM     16  C   UNL A   1     -30.941  -1.047  28.514  0.00  0.00    +0.044 A 
BRANCH  15  17
ATOM     17  C   UNL A   1     -32.459  -0.419  26.705  0.00  0.00    +0.388 C 
ATOM     18  O   UNL A   1     -32.721  -1.340  25.934  0.00  0.00    -0.241 OA
ATOM     19  O   UNL A   1     -32.329   0.759  26.239  0.00  0.00    -0.241 OA
ENDBRANCH  15  17
ENDBRANCH   1  11
TORSDOF 4
