MODEL 1403
MODEL 1
REMARK VINA RESULT:    -8.084      0.000      0.000
REMARK INTER + INTRA:         -11.490
REMARK INTER:                 -10.447
REMARK INTRA:                  -1.043
REMARK UNBOUND:                -1.043
REMARK  Name = No_1403-gen_results/8p0m/2024-11-27-11-27-31/
REMARK  5 active torsions:
REMARK  status: ('A' for Active; 'I' for Inactive)
REMARK    1  A    between atoms: C_3  and  C_8
REMARK    2  A    between atoms: C_6  and  O_7
REMARK    3  A    between atoms: O_7  and  C_14
REMARK    4  A    between atoms: C_14  and  C_15
REMARK    5  A    between atoms: N_17  and  C_18
REMARK                            x       y       z     vdW  Elec       q    Type
REMARK                         _______ _______ _______ _____ _____    ______ ____
ROOT
ATOM      1  C   UNL A   1     -24.649   2.580  27.634  0.00  0.00    +0.291 C 
ENDROOT
BRANCH   1   2
ATOM      2  C   UNL A   1     -24.847   1.832  28.824  0.00  0.00    +0.290 C 
ATOM      3  O   UNL A   1     -24.178   2.262  29.782  0.00  0.00    -0.269 OA
ATOM      4  N   UNL A   1     -25.026   0.482  28.740  0.00  0.00    -0.176 NA
BRANCH   4   5
ATOM      5  C   UNL A   1     -24.906  -0.419  29.812  0.00  0.00    +0.070 A 
ATOM      6  C   UNL A   1     -26.097  -0.699  30.382  0.00  0.00    +0.016 A 
ATOM      7  C   UNL A   1     -26.634  -1.910  30.363  0.00  0.00    +0.001 A 
ATOM      8  C   UNL A   1     -26.003  -2.878  29.595  0.00  0.00    -0.000 A 
ATOM      9  C   UNL A   1     -26.432  -4.219  29.771  0.00  0.00    -0.000 A 
ATOM     10  C   UNL A   1     -25.686  -5.244  29.200  0.00  0.00    -0.000 A 
ATOM     11  C   UNL A   1     -24.303  -4.905  28.818  0.00  0.00    -0.000 A 
ATOM     12  C   UNL A   1     -23.835  -3.571  28.950  0.00  0.00    -0.000 A 
ATOM     13  C   UNL A   1     -24.600  -2.634  29.386  0.00  0.00    -0.003 A 
ATOM     14  C   UNL A   1     -24.147  -1.288  29.365  0.00  0.00    -0.006 A 
ATOM     15  C   UNL A   1     -22.835  -1.167  28.861  0.00  0.00    +0.032 C 
ENDBRANCH   4   5
ENDBRANCH   1   2
BRANCH   1  16
ATOM     16  O   UNL A   1     -24.777   1.867  26.476  0.00  0.00    -0.466 OA
BRANCH  16  22
ATOM     17  C   UNL A   1     -26.849   2.916  25.659  0.00  0.00    +0.037 A 
ATOM     18  C   UNL A   1     -27.866   2.861  25.008  0.00  0.00    +0.003 A 
ATOM     19  C   UNL A   1     -28.273   1.674  24.409  0.00  0.00    +0.000 A 
ATOM     20  C   UNL A   1     -27.471   0.482  24.509  0.00  0.00    +0.003 A 
ATOM     21  C   UNL A   1     -26.300   0.640  25.261  0.00  0.00    +0.037 A 
ATOM     22  C   UNL A   1     -25.952   1.789  25.792  0.00  0.00    +0.139 A 
BRANCH  19  23
ATOM     23  C   UNL A   1     -29.522   1.477  23.585  0.00  0.00    +0.000 A 
ATOM     24  C   UNL A   1     -30.045   2.487  22.913  0.00  0.00    +0.000 A 
ATOM     25  C   UNL A   1     -31.290   2.372  22.280  0.00  0.00    +0.000 A 
ATOM     26  C   UNL A   1     -32.040   1.146  22.338  0.00  0.00    +0.000 A 
ATOM     27  C   UNL A   1     -30.302   0.282  23.723  0.00  0.00    +0.000 A 
ATOM     28  C   UNL A   1     -31.539   0.132  23.022  0.00  0.00    +0.000 A 
ENDBRANCH  19  23
ENDBRANCH  16  22
ENDBRANCH   1  16
TORSDOF 5
ENDMDL
ENDMDL
