MODEL 1404
MODEL 1
REMARK VINA RESULT:    -4.351      0.000      0.000
REMARK INTER + INTRA:          -4.351
REMARK INTER:                  -4.351
REMARK INTRA:                   0.000
REMARK UNBOUND:                 0.000
REMARK  Name = No_1404-gen_results/8p0m/2024-11-27-11-27-31/
REMARK  0 active torsions:
REMARK  status: ('A' for Active; 'I' for Inactive)
REMARK                            x       y       z     vdW  Elec       q    Type
REMARK                         _______ _______ _______ _____ _____    ______ ____
ROOT
ATOM      1  C   UNL A   1     -24.132  -4.851  28.587  0.00  0.00    +0.000 A 
ATOM      2  C   UNL A   1     -24.976  -5.290  29.041  0.00  0.00    +0.000 A 
ATOM      3  C   UNL A   1     -24.060  -3.396  28.769  0.00  0.00    +0.000 A 
ATOM      4  C   UNL A   1     -25.062  -2.690  29.296  0.00  0.00    +0.000 A 
ATOM      5  C   UNL A   1     -26.173  -4.746  29.633  0.00  0.00    +0.000 A 
ATOM      6  C   UNL A   1     -26.099  -3.391  29.771  0.00  0.00    +0.000 A 
ENDROOT
TORSDOF 0
ENDMDL
ENDMDL
