MODEL 1406
MODEL 1
REMARK VINA RESULT:    -8.154      0.000      0.000
REMARK INTER + INTRA:         -10.754
REMARK INTER:                 -10.060
REMARK INTRA:                  -0.694
REMARK UNBOUND:                -0.694
REMARK  Name = No_1406-gen_results/8p0m/2024-11-27-11-27-31/
REMARK  4 active torsions:
REMARK  status: ('A' for Active; 'I' for Inactive)
REMARK    1  A    between atoms: C_1  and  C_2
REMARK    2  A    between atoms: C_4  and  C_11
REMARK    3  A    between atoms: C_12  and  C_15
REMARK    4  A    between atoms: C_18  and  C_23
REMARK                            x       y       z     vdW  Elec       q    Type
REMARK                         _______ _______ _______ _____ _____    ______ ____
ROOT
ATOM      1  C   UNL A   1     -23.010  -0.245  28.539  0.00  0.00    +0.004 A 
ATOM      2  C   UNL A   1     -23.484   0.534  27.611  0.00  0.00    +0.019 A 
ATOM      3  C   UNL A   1     -21.639  -0.176  28.906  0.00  0.00    +0.021 A 
ATOM      4  C   UNL A   1     -20.858   0.771  28.222  0.00  0.00    +0.099 A 
ATOM      5  N   UNL A   1     -21.480   1.643  27.417  0.00  0.00    -0.242 NA
ATOM      6  C   UNL A   1     -22.674   1.546  27.063  0.00  0.00    +0.099 A 
ENDROOT
BRANCH   1   9
ATOM      7  C   UNL A   1     -24.872  -3.588  29.242  0.00  0.00    +0.044 A 
ATOM      8  C   UNL A   1     -24.070  -2.599  28.683  0.00  0.00    +0.002 A 
ATOM      9  C   UNL A   1     -23.909  -1.206  29.188  0.00  0.00    +0.011 A 
ATOM     10  C   UNL A   1     -24.781  -0.822  30.249  0.00  0.00    +0.058 A 
ATOM     11  C   UNL A   1     -25.630  -1.823  30.762  0.00  0.00    +0.011 A 
ATOM     12  C   UNL A   1     -25.691  -3.079  30.298  0.00  0.00    +0.002 A 
ATOM     13 CL   UNL A   1     -24.655   0.754  30.803  0.00  0.00    -0.082 Cl
BRANCH   7  14
ATOM     14  C   UNL A   1     -24.927  -4.695  28.759  0.00  0.00    +0.341 C 
ATOM     15  F   UNL A   1     -25.073  -5.586  29.587  0.00  0.00    -0.193 F 
ATOM     16  F   UNL A   1     -23.731  -4.980  28.019  0.00  0.00    -0.193 F 
ENDBRANCH   7  14
ENDBRANCH   1   9
BRANCH   2  17
ATOM     17  C   UNL A   1     -24.930   0.475  27.229  0.00  0.00    +0.002 A 
ATOM     18  C   UNL A   1     -25.897   0.391  27.557  0.00  0.00    +0.000 A 
ATOM     19  C   UNL A   1     -27.154   0.471  26.760  0.00  0.00    +0.007 A 
ATOM     20  C   UNL A   1     -26.985   0.313  25.381  0.00  0.00    +0.080 A 
ATOM     21  C   UNL A   1     -25.736   0.233  24.810  0.00  0.00    +0.007 A 
ATOM     22  C   UNL A   1     -24.644   0.373  25.591  0.00  0.00    +0.000 A 
BRANCH  20  23
ATOM     23  C   UNL A   1     -28.252   0.265  24.548  0.00  0.00    +0.388 C 
ATOM     24  O   UNL A   1     -28.316   0.384  23.450  0.00  0.00    -0.241 OA
ATOM     25  O   UNL A   1     -29.199  -0.396  25.199  0.00  0.00    -0.241 OA
ENDBRANCH  20  23
ENDBRANCH   2  17
TORSDOF 4
ENDMDL
ENDMDL
