MODEL 1407
MODEL 1
REMARK VINA RESULT:    -6.212      0.000      0.000
REMARK INTER + INTRA:          -8.257
REMARK INTER:                  -7.665
REMARK INTRA:                  -0.592
REMARK UNBOUND:                -0.592
REMARK  Name = No_1407-gen_results/8p0m/2024-11-27-11-27-31/
REMARK  4 active torsions:
REMARK  status: ('A' for Active; 'I' for Inactive)
REMARK    1  A    between atoms: C_1  and  C_2
REMARK    2  A    between atoms: C_1  and  N_8
REMARK    3  A    between atoms: C_5  and  C_9
REMARK    4  A    between atoms: N_8  and  C_12
REMARK                            x       y       z     vdW  Elec       q    Type
REMARK                         _______ _______ _______ _____ _____    ______ ____
ROOT
ATOM      1  C   UNL A   1     -24.684  -2.955  29.268  0.00  0.00    -0.001 A 
ATOM      2  C   UNL A   1     -25.032  -4.208  29.207  0.00  0.00    -0.003 A 
ATOM      3  C   UNL A   1     -26.326  -4.783  29.651  0.00  0.00    +0.001 A 
ATOM      4  C   UNL A   1     -27.251  -3.876  30.242  0.00  0.00    +0.015 A 
ATOM      5  C   UNL A   1     -26.839  -2.545  30.372  0.00  0.00    +0.001 A 
ATOM      6  C   UNL A   1     -25.633  -2.087  29.949  0.00  0.00    -0.003 A 
ENDROOT
BRANCH   4   7
ATOM      7  C   UNL A   1     -28.533  -4.300  30.694  0.00  0.00    +0.081 C 
ATOM      8  N   UNL A   1     -29.179  -5.363  30.903  0.00  0.00    -0.153 NA
ATOM      9  C   UNL A   1     -29.441  -3.064  30.998  0.00  0.00    +0.054 C 
ENDBRANCH   4   7
BRANCH   1  10
ATOM     10  C   UNL A   1     -23.639  -2.457  28.920  0.00  0.00    +0.139 C 
BRANCH  10  11
ATOM     11  N   UNL A   1     -23.087  -1.360  29.666  0.00  0.00    -0.233 NA
BRANCH  11  12
ATOM     12  C   UNL A   1     -22.362  -0.305  29.128  0.00  0.00    +0.066 A 
ATOM     13  C   UNL A   1     -21.255  -0.205  28.961  0.00  0.00    +0.016 A 
ATOM     14  C   UNL A   1     -20.794   0.351  28.159  0.00  0.00    +0.001 A 
ATOM     15  C   UNL A   1     -21.389   1.467  27.431  0.00  0.00    +0.000 A 
ATOM     16  C   UNL A   1     -22.743   1.540  27.560  0.00  0.00    +0.001 A 
ATOM     17  C   UNL A   1     -23.354   0.519  28.379  0.00  0.00    +0.016 A 
ENDBRANCH  11  12
ENDBRANCH  10  11
ENDBRANCH   1  10
TORSDOF 4
ENDMDL
ENDMDL
