MODEL 1408
MODEL 1
REMARK VINA RESULT:    -6.453      0.000      0.000
REMARK INTER + INTRA:          -9.656
REMARK INTER:                  -8.339
REMARK INTRA:                  -1.318
REMARK UNBOUND:                -1.318
REMARK  Name = No_1408-gen_results/8p0m/2024-11-27-11-27-31/
REMARK  5 active torsions:
REMARK  status: ('A' for Active; 'I' for Inactive)
REMARK    1  A    between atoms: C_3  and  C_4
REMARK    2  A    between atoms: C_5  and  C_6
REMARK    3  A    between atoms: C_7  and  C_9
REMARK    4  A    between atoms: C_7  and  C_15
REMARK    5  A    between atoms: C_13  and  C_14
REMARK                            x       y       z     vdW  Elec       q    Type
REMARK                         _______ _______ _______ _____ _____    ______ ____
ROOT
ATOM      1  C   UNL A   1     -23.536  -1.577  29.872  0.00  0.00    -0.022 C 
ATOM      2  C   UNL A   1     -23.053  -0.903  29.192  0.00  0.00    -0.004 C 
ATOM      3  C   UNL A   1     -23.496  -1.367  31.384  0.00  0.00    +0.031 C 
ENDROOT
BRANCH   1   6
ATOM      4  C   UNL A   1     -23.925  -3.878  28.819  0.00  0.00    -0.000 A 
ATOM      5  C   UNL A   1     -24.573  -4.709  28.839  0.00  0.00    -0.000 A 
ATOM      6  C   UNL A   1     -24.402  -2.745  29.622  0.00  0.00    -0.004 A 
ATOM      7  C   UNL A   1     -25.937  -4.898  29.245  0.00  0.00    -0.000 A 
ATOM      8  C   UNL A   1     -26.434  -3.844  29.915  0.00  0.00    -0.000 A 
ATOM      9  C   UNL A   1     -25.685  -2.739  30.123  0.00  0.00    -0.000 A 
ENDBRANCH   1   6
BRANCH   2  10
ATOM     10  C   UNL A   1     -23.125  -0.035  28.244  0.00  0.00    -0.002 C 
ATOM     11  C   UNL A   1     -23.769   0.786  27.653  0.00  0.00    +0.013 C 
BRANCH  11  12
ATOM     12  C   UNL A   1     -23.553   1.540  26.500  0.00  0.00    -0.006 C 
ATOM     13  C   UNL A   1     -24.154   1.143  25.285  0.00  0.00    -0.026 C 
BRANCH  13  14
ATOM     14  C   UNL A   1     -25.209   0.413  25.333  0.00  0.00    +0.026 C 
ATOM     15  C   UNL A   1     -25.680  -0.337  24.515  0.00  0.00    +0.005 C 
ENDBRANCH  13  14
ENDBRANCH  11  12
BRANCH  11  16
ATOM     16  C   UNL A   1     -24.382   1.879  28.607  0.00  0.00    +0.220 C 
ATOM     17  F   UNL A   1     -25.674   1.436  29.025  0.00  0.00    -0.229 F 
ENDBRANCH  11  16
ENDBRANCH   2  10
TORSDOF 5
ENDMDL
ENDMDL
