REMARK  Name = outputs/IAG933/test6/raw/output_1408_IAG933_linker_design_.xyz
REMARK  15 active torsions:
REMARK  status: ('A' for Active; 'I' for Inactive)
REMARK    1  A    between atoms: C_1  and  C_2
REMARK    2  A    between atoms: C_1  and  C_8
REMARK    3  A    between atoms: C_1  and  N_33
REMARK    4  A    between atoms: C_13  and  C_43
REMARK    5  A    between atoms: C_14  and  C_15
REMARK    6  A    between atoms: C_21  and  O_22
REMARK    7  A    between atoms: O_22  and  C_23
REMARK    8  A    between atoms: C_23  and  C_24
REMARK    9  A    between atoms: C_31  and  C_38
REMARK   10  A    between atoms: C_31  and  C_40
REMARK   11  A    between atoms: N_33  and  C_45
REMARK   12  A    between atoms: C_35  and  C_42
REMARK   13  A    between atoms: C_35  and  C_43
REMARK   14  A    between atoms: C_38  and  O_46
REMARK   15  A    between atoms: C_39  and  C_42
REMARK                            x       y       z     vdW  Elec       q    Type
REMARK                         _______ _______ _______ _____ _____    ______ ____
ROOT
ATOM      1  O   UNL A   1     -22.487  -0.173  29.907  0.00  0.00    -0.271 OA
ATOM      2  N   UNL A   1     -24.674   0.030  29.165  0.00  0.00    -0.224 N 
ATOM      3  C   UNL A   1     -23.218   0.251  29.041  0.00  0.00    +0.272 C 
ENDROOT
BRANCH   2   9
ATOM      4  C   UNL A   1     -28.950   0.346  29.155  0.00  0.00    +0.017 C 
ATOM      5  C   UNL A   1     -26.953   1.537  29.555  0.00  0.00    +0.049 C 
ATOM      6  C   UNL A   1     -28.178  -0.609  28.400  0.00  0.00    +0.233 C 
ATOM      7  C   UNL A   1     -28.396   1.492  29.614  0.00  0.00    -0.016 C 
ATOM      8  O   UNL A   1     -26.881  -0.472  28.252  0.00  0.00    -0.458 OA
ATOM      9  C   UNL A   1     -26.205   0.446  28.950  0.00  0.00    +0.200 C 
BRANCH   7  10
ATOM     10  C   UNL A   1     -29.353   2.712  29.898  0.00  0.00    +0.056 C 
BRANCH  10  12
ATOM     11  C   UNL A   1     -31.551   3.645  29.456  0.00  0.00    +0.032 C 
ATOM     12  C   UNL A   1     -30.506   2.647  28.886  0.00  0.00    +0.120 C 
BRANCH  12  14
ATOM     13  C   UNL A   1     -30.658   3.751  26.989  0.00  0.00    +0.174 C 
ATOM     14  O   UNL A   1     -30.110   2.627  27.694  0.00  0.00    -0.353 OA
ENDBRANCH  12  14
ENDBRANCH  10  12
ENDBRANCH   7  10
ENDBRANCH   2   9
BRANCH   3  15
ATOM     15  C   UNL A   1     -22.595   0.969  27.880  0.00  0.00    +0.293 C 
ATOM     16  F   UNL A   1     -21.228   1.133  27.751  0.00  0.00    -0.219 F 
BRANCH  15  18
ATOM     17  O   UNL A   1     -22.895   2.377  25.923  0.00  0.00    -0.292 OA
ATOM     18  C   UNL A   1     -23.262   1.650  26.879  0.00  0.00    +0.197 C 
BRANCH  18  19
ATOM     19  C   UNL A   1     -24.357   1.418  27.068  0.00  0.00    +0.097 C 
BRANCH  19  20
ATOM     20  C   UNL A   1     -25.688   1.614  26.461  0.00  0.00    +0.023 C 
ATOM     21  C   UNL A   1     -26.250   2.920  26.395  0.00  0.00    +0.073 C 
ATOM     22  C   UNL A   1     -27.438   3.091  25.645  0.00  0.00    +0.106 C 
ATOM     23  N   UNL A   1     -28.075   2.089  25.003  0.00  0.00    -0.208 NA
ATOM     24  C   UNL A   1     -27.543   0.849  25.079  0.00  0.00    +0.253 C 
ATOM     25  C   UNL A   1     -26.354   0.576  25.777  0.00  0.00    +0.190 C 
ATOM     26  F   UNL A   1     -25.860  -0.681  25.795  0.00  0.00    -0.200 F 
BRANCH  21  27
ATOM     27  C   UNL A   1     -25.642   4.093  27.123  0.00  0.00    +0.266 C 
ATOM     28  N   UNL A   1     -25.614   5.252  26.449  0.00  0.00    -0.200 NA
ATOM     29  C   UNL A   1     -25.026   6.479  26.963  0.00  0.00    +0.139 C 
ATOM     30  O   UNL A   1     -25.143   3.966  28.243  0.00  0.00    -0.268 OA
ENDBRANCH  21  27
BRANCH  24  31
ATOM     31  O   UNL A   1     -28.193  -0.208  24.477  0.00  0.00    -0.456 OA
BRANCH  31  32
ATOM     32  C   UNL A   1     -29.460   0.005  23.866  0.00  0.00    +0.243 C 
BRANCH  32  33
ATOM     33  C   UNL A   1     -30.065  -1.377  23.573  0.00  0.00    +0.229 C 
ATOM     34  O   UNL A   1     -30.729  -1.878  24.721  0.00  0.00    -0.216 OA
ENDBRANCH  32  33
ENDBRANCH  31  32
ENDBRANCH  24  31
ENDBRANCH  19  20
ENDBRANCH  18  19
ENDBRANCH  15  18
ENDBRANCH   3  15
BRANCH   2  35
ATOM     35  C   UNL A   1     -24.855  -1.012  30.143  0.00  0.00    +0.121 C 
BRANCH  35  36
ATOM     36  C   UNL A   1     -24.973  -2.505  29.788  0.00  0.00    -0.003 C 
ATOM     37  C   UNL A   1     -23.906  -3.173  29.146  0.00  0.00    -0.003 C 
ATOM     38  C   UNL A   1     -23.989  -4.549  28.853  0.00  0.00    -0.000 C 
ATOM     39  C   UNL A   1     -25.137  -5.280  29.205  0.00  0.00    -0.000 C 
ATOM     40  C   UNL A   1     -26.232  -4.611  29.784  0.00  0.00    -0.000 C 
ATOM     41  C   UNL A   1     -26.155  -3.232  30.065  0.00  0.00    -0.003 C 
ENDBRANCH  35  36
BRANCH  35  42
ATOM     42  C   UNL A   1     -25.387  -0.679  31.571  0.00  0.00    +0.096 C 
ATOM     43  C   UNL A   1     -25.189   0.773  32.028  0.00  0.00    +0.021 C 
ATOM     44  C   UNL A   1     -25.336   0.684  33.544  0.00  0.00    +0.020 C 
ATOM     45  C   UNL A   1     -24.829  -0.715  33.905  0.00  0.00    +0.089 C 
ATOM     46  N   UNL A   1     -24.758  -1.481  32.646  0.00  0.00    -0.217 NA
ENDBRANCH  35  42
ENDBRANCH   2  35
TORSDOF 15
