MODEL 1409
MODEL 1
REMARK VINA RESULT:    -4.540      0.000      0.000
REMARK INTER + INTRA:          -4.540
REMARK INTER:                  -4.540
REMARK INTRA:                   0.000
REMARK UNBOUND:                 0.000
REMARK  Name = No_1409-gen_results/8p0m/2024-11-27-11-27-31/
REMARK  0 active torsions:
REMARK  status: ('A' for Active; 'I' for Inactive)
REMARK                            x       y       z     vdW  Elec       q    Type
REMARK                         _______ _______ _______ _____ _____    ______ ____
ROOT
ATOM      1  C   UNL A   1     -23.988  -4.403  28.668  0.00  0.00    +0.030 A 
ATOM      2  C   UNL A   1     -24.887  -4.915  28.871  0.00  0.00    +0.140 A 
ATOM      3  C   UNL A   1     -23.984  -2.933  29.023  0.00  0.00    +0.002 A 
ATOM      4  C   UNL A   1     -25.085  -2.385  29.713  0.00  0.00    +0.000 A 
ATOM      5  C   UNL A   1     -26.138  -4.598  29.596  0.00  0.00    +0.030 A 
ATOM      6  C   UNL A   1     -26.167  -3.255  29.944  0.00  0.00    +0.002 A 
ATOM      7  F   UNL A   1     -24.881  -6.328  28.540  0.00  0.00    -0.204 F 
ENDROOT
TORSDOF 0
ENDMDL
ENDMDL
