REMARK  Name = outputs/IAG933/test6/raw/output_1409_IAG933_linker_design_.xyz
REMARK  11 active torsions:
REMARK  status: ('A' for Active; 'I' for Inactive)
REMARK    1  A    between atoms: C_1  and  C_2
REMARK    2  A    between atoms: C_1  and  C_8
REMARK    3  A    between atoms: C_1  and  N_35
REMARK    4  A    between atoms: C_13  and  C_34
REMARK    5  A    between atoms: C_14  and  C_15
REMARK    6  A    between atoms: C_21  and  O_22
REMARK    7  A    between atoms: O_22  and  C_23
REMARK    8  A    between atoms: C_23  and  C_24
REMARK    9  A    between atoms: C_33  and  C_36
REMARK   10  A    between atoms: N_35  and  C_37
REMARK   11  A    between atoms: C_36  and  C_41
REMARK                            x       y       z     vdW  Elec       q    Type
REMARK                         _______ _______ _______ _____ _____    ______ ____
ROOT
ATOM      1  O   UNL A   1     -23.558   1.928  26.362  0.00  0.00    -0.449 OA
ATOM      2  C   UNL A   1     -22.944   0.482  28.775  0.00  0.00    +0.106 C 
ATOM      3  C   UNL A   1     -21.753   1.049  28.273  0.00  0.00    +0.023 C 
ATOM      4  C   UNL A   1     -24.460   1.373  27.105  0.00  0.00    +0.163 C 
ATOM      5  C   UNL A   1     -24.389   0.714  28.346  0.00  0.00    +0.106 C 
ATOM      6  C   UNL A   1     -22.221   2.111  26.007  0.00  0.00    +0.180 C 
ATOM      7  N   UNL A   1     -22.566  -0.112  29.858  0.00  0.00    -0.127 NA
ATOM      8  C   UNL A   1     -21.205   1.730  27.006  0.00  0.00    +0.042 C 
ENDROOT
BRANCH   4   9
ATOM      9  C   UNL A   1     -25.688   1.614  26.461  0.00  0.00    +0.074 C 
ATOM     10  C   UNL A   1     -26.250   2.920  26.395  0.00  0.00    +0.080 C 
ATOM     11  C   UNL A   1     -27.438   3.091  25.645  0.00  0.00    +0.107 C 
ATOM     12  N   UNL A   1     -28.075   2.089  25.003  0.00  0.00    -0.208 NA
ATOM     13  C   UNL A   1     -27.543   0.849  25.079  0.00  0.00    +0.253 C 
ATOM     14  C   UNL A   1     -26.354   0.576  25.777  0.00  0.00    +0.196 C 
ATOM     15  F   UNL A   1     -25.860  -0.681  25.795  0.00  0.00    -0.199 F 
BRANCH  10  16
ATOM     16  C   UNL A   1     -25.642   4.093  27.123  0.00  0.00    +0.267 C 
ATOM     17  N   UNL A   1     -25.614   5.252  26.449  0.00  0.00    -0.200 NA
ATOM     18  C   UNL A   1     -25.026   6.479  26.963  0.00  0.00    +0.139 C 
ATOM     19  O   UNL A   1     -25.143   3.966  28.243  0.00  0.00    -0.268 OA
ENDBRANCH  10  16
BRANCH  13  20
ATOM     20  O   UNL A   1     -28.193  -0.208  24.477  0.00  0.00    -0.456 OA
BRANCH  20  21
ATOM     21  C   UNL A   1     -29.460   0.005  23.866  0.00  0.00    +0.243 C 
BRANCH  21  22
ATOM     22  C   UNL A   1     -30.065  -1.377  23.573  0.00  0.00    +0.229 C 
ATOM     23  O   UNL A   1     -30.729  -1.878  24.721  0.00  0.00    -0.216 OA
ENDBRANCH  21  22
ENDBRANCH  20  21
ENDBRANCH  13  20
ENDBRANCH   4   9
BRANCH   5  26
ATOM     24  O   UNL A   1     -27.541  -0.290  28.534  0.00  0.00    -0.275 OA
ATOM     25  C   UNL A   1     -26.657   0.412  29.018  0.00  0.00    +0.230 C 
ATOM     26  N   UNL A   1     -25.320  -0.004  29.172  0.00  0.00    -0.251 N 
BRANCH  26  27
ATOM     27  C   UNL A   1     -24.855  -1.012  30.143  0.00  0.00    +0.118 C 
BRANCH  27  28
ATOM     28  C   UNL A   1     -24.973  -2.505  29.788  0.00  0.00    -0.003 C 
ATOM     29  C   UNL A   1     -23.906  -3.173  29.146  0.00  0.00    -0.003 C 
ATOM     30  C   UNL A   1     -23.989  -4.549  28.853  0.00  0.00    -0.000 C 
ATOM     31  C   UNL A   1     -25.137  -5.280  29.205  0.00  0.00    -0.000 C 
ATOM     32  C   UNL A   1     -26.232  -4.611  29.784  0.00  0.00    -0.000 C 
ATOM     33  C   UNL A   1     -26.155  -3.232  30.065  0.00  0.00    -0.003 C 
ENDBRANCH  27  28
BRANCH  27  34
ATOM     34  C   UNL A   1     -25.387  -0.679  31.571  0.00  0.00    +0.096 C 
ATOM     35  C   UNL A   1     -25.189   0.773  32.028  0.00  0.00    +0.021 C 
ATOM     36  C   UNL A   1     -25.336   0.684  33.544  0.00  0.00    +0.020 C 
ATOM     37  C   UNL A   1     -24.829  -0.715  33.905  0.00  0.00    +0.089 C 
ATOM     38  N   UNL A   1     -24.758  -1.481  32.646  0.00  0.00    -0.217 NA
ENDBRANCH  27  34
ENDBRANCH  26  27
BRANCH  25  39
ATOM     39  C   UNL A   1     -26.980   1.787  29.415  0.00  0.00    +0.086 C 
BRANCH  39  41
ATOM     40  C   UNL A   1     -29.004   2.935  29.378  0.00  0.00    +0.001 C 
ATOM     41  C   UNL A   1     -27.971   2.364  30.392  0.00  0.00    +0.010 C 
ENDBRANCH  39  41
ENDBRANCH  25  39
ENDBRANCH   5  26
TORSDOF 11
