MODEL 140
MODEL 1
REMARK VINA RESULT:    -7.750      0.000      0.000
REMARK INTER + INTRA:         -11.062
REMARK INTER:                  -9.563
REMARK INTRA:                  -1.499
REMARK UNBOUND:                -1.499
REMARK  Name = No_140-gen_results/8p0m/2024-11-27-11-27-31/
REMARK  4 active torsions:
REMARK  status: ('A' for Active; 'I' for Inactive)
REMARK    1  A    between atoms: C_3  and  C_4
REMARK    2  A    between atoms: C_6  and  C_20
REMARK    3  A    between atoms: C_9  and  C_10
REMARK    4  A    between atoms: C_14  and  C_15
REMARK                            x       y       z     vdW  Elec       q    Type
REMARK                         _______ _______ _______ _____ _____    ______ ____
ROOT
ATOM      1  C   UNL A   1     -10.315   0.876  35.895  0.00  0.00    +0.051 C 
ATOM      2  C   UNL A   1     -10.903   0.571  37.052  0.00  0.00    -0.040 C 
ATOM      3  C   UNL A   1     -11.257  -0.559  37.462  0.00  0.00    -0.012 C 
ATOM      4  C   UNL A   1     -11.832   1.666  37.578  0.00  0.00    +0.022 C 
ATOM      5  C   UNL A   1     -10.877   1.590  34.901  0.00  0.00    +0.111 C 
ATOM      6  C   UNL A   1     -12.241   2.068  35.021  0.00  0.00    +0.012 C 
ATOM      7  C   UNL A   1     -12.632   2.364  36.009  0.00  0.00    +0.005 C 
ENDROOT
BRANCH   1  10
ATOM      8  C   UNL A   1      -8.029   1.533  36.572  0.00  0.00    -0.004 A 
ATOM      9  C   UNL A   1      -7.086   1.536  36.102  0.00  0.00    -0.000 A 
ATOM     10  C   UNL A   1      -8.989   0.619  35.953  0.00  0.00    -0.018 A 
ATOM     11  C   UNL A   1      -6.311   0.440  35.634  0.00  0.00    +0.004 A 
ATOM     12  C   UNL A   1      -7.103  -0.619  35.086  0.00  0.00    +0.071 A 
ATOM     13  C   UNL A   1      -8.469  -0.508  35.237  0.00  0.00    -0.000 A 
BRANCH  12  14
ATOM     14  C   UNL A   1      -6.482  -1.751  34.410  0.00  0.00    +0.419 C 
ATOM     15  F   UNL A   1      -7.069  -2.011  33.385  0.00  0.00    -0.166 F 
ATOM     16  F   UNL A   1      -5.203  -1.435  34.099  0.00  0.00    -0.166 F 
ATOM     17  F   UNL A   1      -6.420  -2.802  35.221  0.00  0.00    -0.166 F 
ENDBRANCH  12  14
ENDBRANCH   1  10
BRANCH   3  18
ATOM     18  C   UNL A   1     -11.284  -1.377  38.220  0.00  0.00    -0.022 C 
ATOM     19  C   UNL A   1     -11.979  -2.616  38.563  0.00  0.00    -0.005 C 
ATOM     20  C   UNL A   1     -10.346  -1.199  39.561  0.00  0.00    +0.031 C 
ENDBRANCH   3  18
BRANCH   5  21
ATOM     21  C   UNL A   1     -10.306   1.689  33.650  0.00  0.00    +0.365 C 
ATOM     22  O   UNL A   1      -9.478   2.449  33.245  0.00  0.00    -0.246 OA
ATOM     23  O   UNL A   1     -10.923   0.947  32.644  0.00  0.00    -0.246 OA
ENDBRANCH   5  21
TORSDOF 4
ENDMDL
ENDMDL
