REMARK  Name = outputs/IAG933/test6/raw/output_141_IAG933_linker_design_.xyz
REMARK  10 active torsions:
REMARK  status: ('A' for Active; 'I' for Inactive)
REMARK    1  A    between atoms: C_1  and  C_2
REMARK    2  A    between atoms: C_1  and  C_8
REMARK    3  A    between atoms: C_1  and  C_31
REMARK    4  A    between atoms: C_13  and  C_32
REMARK    5  A    between atoms: C_14  and  C_15
REMARK    6  A    between atoms: C_21  and  O_22
REMARK    7  A    between atoms: O_22  and  C_23
REMARK    8  A    between atoms: C_23  and  C_24
REMARK    9  A    between atoms: C_28  and  N_38
REMARK   10  A    between atoms: N_38  and  C_46
REMARK                            x       y       z     vdW  Elec       q    Type
REMARK                         _______ _______ _______ _____ _____    ______ ____
ROOT
ATOM      1  C   UNL A   1     -25.341   0.484  28.309  0.00  0.00    +0.060 C 
ATOM      2 CL   UNL A   1     -23.135   2.077  25.453  0.00  0.00    -0.066 Cl
ATOM      3  N   UNL A   1     -22.589   1.023  27.814  0.00  0.00    -0.268 N 
ATOM      4  C   UNL A   1     -24.374  -0.044  29.098  0.00  0.00    +0.027 C 
ATOM      5  C   UNL A   1     -24.867   1.133  27.259  0.00  0.00    +0.024 C 
ATOM      6  C   UNL A   1     -23.077   0.342  28.925  0.00  0.00    +0.259 C 
ATOM      7  C   UNL A   1     -23.605   1.350  26.901  0.00  0.00    +0.107 C 
ATOM      8  F   UNL A   1     -22.156  -0.016  29.894  0.00  0.00    -0.210 F 
ATOM      9  C   UNL A   1     -21.188   1.347  27.578  0.00  0.00    +0.116 C 
ENDROOT
BRANCH   5  10
ATOM     10  C   UNL A   1     -25.688   1.614  26.461  0.00  0.00    +0.096 C 
ATOM     11  C   UNL A   1     -26.250   2.920  26.395  0.00  0.00    +0.059 C 
ATOM     12  C   UNL A   1     -27.438   3.091  25.645  0.00  0.00    +0.102 C 
ATOM     13  N   UNL A   1     -28.075   2.089  25.003  0.00  0.00    -0.212 NA
ATOM     14  C   UNL A   1     -27.543   0.849  25.079  0.00  0.00    +0.234 C 
ATOM     15  C   UNL A   1     -26.354   0.576  25.777  0.00  0.00    +0.244 C 
ATOM     16  F   UNL A   1     -25.860  -0.681  25.795  0.00  0.00    -0.227 F 
BRANCH  11  17
ATOM     17  C   UNL A   1     -25.642   4.093  27.123  0.00  0.00    +0.263 C 
ATOM     18  N   UNL A   1     -25.614   5.252  26.449  0.00  0.00    -0.200 NA
ATOM     19  C   UNL A   1     -25.026   6.479  26.963  0.00  0.00    +0.139 C 
ATOM     20  O   UNL A   1     -25.143   3.966  28.243  0.00  0.00    -0.269 OA
ENDBRANCH  11  17
BRANCH  14  21
ATOM     21  O   UNL A   1     -28.193  -0.208  24.477  0.00  0.00    -0.459 OA
BRANCH  21  22
ATOM     22  C   UNL A   1     -29.460   0.005  23.866  0.00  0.00    +0.242 C 
BRANCH  22  23
ATOM     23  C   UNL A   1     -30.065  -1.377  23.573  0.00  0.00    +0.229 C 
ATOM     24  O   UNL A   1     -30.729  -1.878  24.721  0.00  0.00    -0.216 OA
ENDBRANCH  22  23
ENDBRANCH  21  22
ENDBRANCH  14  21
ENDBRANCH   5  10
BRANCH   4  25
ATOM     25  C   UNL A   1     -24.855  -1.012  30.143  0.00  0.00    +0.062 C 
BRANCH  25  26
ATOM     26  C   UNL A   1     -24.973  -2.505  29.788  0.00  0.00    -0.017 C 
ATOM     27  C   UNL A   1     -23.906  -3.173  29.146  0.00  0.00    -0.004 C 
ATOM     28  C   UNL A   1     -23.989  -4.549  28.853  0.00  0.00    -0.000 C 
ATOM     29  C   UNL A   1     -25.137  -5.280  29.205  0.00  0.00    -0.000 C 
ATOM     30  C   UNL A   1     -26.232  -4.611  29.784  0.00  0.00    -0.000 C 
ATOM     31  C   UNL A   1     -26.155  -3.232  30.065  0.00  0.00    -0.004 C 
ENDBRANCH  25  26
BRANCH  25  32
ATOM     32  C   UNL A   1     -25.387  -0.679  31.571  0.00  0.00    +0.081 C 
ATOM     33  C   UNL A   1     -25.189   0.773  32.028  0.00  0.00    +0.019 C 
ATOM     34  C   UNL A   1     -25.336   0.684  33.544  0.00  0.00    +0.020 C 
ATOM     35  C   UNL A   1     -24.829  -0.715  33.905  0.00  0.00    +0.089 C 
ATOM     36  N   UNL A   1     -24.758  -1.481  32.646  0.00  0.00    -0.219 NA
ENDBRANCH  25  32
ENDBRANCH   4  25
BRANCH   1  37
ATOM     37  N   UNL A   1     -26.556   0.368  28.843  0.00  0.00    -0.240 NA
BRANCH  37  46
ATOM     38  N   UNL A   1     -29.560  -2.894  29.864  0.00  0.00    -0.130 NA
ATOM     39  O   UNL A   1     -29.847  -1.588  32.188  0.00  0.00    -0.290 OA
ATOM     40  C   UNL A   1     -28.227   1.136  30.393  0.00  0.00    +0.030 C 
ATOM     41  C   UNL A   1     -29.299  -0.050  27.591  0.00  0.00    +0.008 C 
ATOM     42  C   UNL A   1     -28.555  -0.927  28.770  0.00  0.00    +0.062 C 
ATOM     43  C   UNL A   1     -29.157   0.527  31.260  0.00  0.00    +0.072 C 
ATOM     44  C   UNL A   1     -29.216  -1.562  29.942  0.00  0.00    +0.102 C 
ATOM     45  C   UNL A   1     -29.436  -0.865  31.136  0.00  0.00    +0.186 C 
ATOM     46  C   UNL A   1     -27.707   0.197  29.352  0.00  0.00    +0.098 C 
ENDBRANCH  37  46
ENDBRANCH   1  37
TORSDOF 10
