REMARK  Name = outputs/IAG933/test6/raw/output_1410_IAG933_linker_design_.xyz
REMARK  18 active torsions:
REMARK  status: ('A' for Active; 'I' for Inactive)
REMARK    1  A    between atoms: C_1  and  C_2
REMARK    2  A    between atoms: C_1  and  C_8
REMARK    3  A    between atoms: C_9  and  C_36
REMARK    4  A    between atoms: C_13  and  O_44
REMARK    5  A    between atoms: C_14  and  C_15
REMARK    6  A    between atoms: C_21  and  O_22
REMARK    7  A    between atoms: O_22  and  C_23
REMARK    8  A    between atoms: C_23  and  C_24
REMARK    9  A    between atoms: N_29  and  C_36
REMARK   10  A    between atoms: N_29  and  C_47
REMARK   11  A    between atoms: C_30  and  O_41
REMARK   12  A    between atoms: C_33  and  C_35
REMARK   13  A    between atoms: C_33  and  S_38
REMARK   14  A    between atoms: C_35  and  O_44
REMARK   15  A    between atoms: C_36  and  C_45
REMARK   16  A    between atoms: C_37  and  C_49
REMARK   17  A    between atoms: O_41  and  C_42
REMARK   18  A    between atoms: C_47  and  C_48
REMARK                            x       y       z     vdW  Elec       q    Type
REMARK                         _______ _______ _______ _____ _____    ______ ____
ROOT
ATOM      1  C   UNL A   1     -25.188   2.033  31.110  0.00  0.00    +0.136 C 
ENDROOT
BRANCH   1   3
ATOM      2  C   UNL A   1     -25.387  -0.679  31.571  0.00  0.00    +0.079 C 
ATOM      3  C   UNL A   1     -25.189   0.773  32.028  0.00  0.00    +0.046 C 
ATOM      4  C   UNL A   1     -25.336   0.684  33.544  0.00  0.00    +0.023 C 
ATOM      5  C   UNL A   1     -24.829  -0.715  33.905  0.00  0.00    +0.089 C 
ATOM      6  N   UNL A   1     -24.758  -1.481  32.646  0.00  0.00    -0.219 NA
BRANCH   2   7
ATOM      7  C   UNL A   1     -24.855  -1.012  30.143  0.00  0.00    +0.044 C 
BRANCH   7   8
ATOM      8  C   UNL A   1     -24.973  -2.505  29.788  0.00  0.00    -0.021 C 
ATOM      9  C   UNL A   1     -23.906  -3.173  29.146  0.00  0.00    -0.004 C 
ATOM     10  C   UNL A   1     -23.989  -4.549  28.853  0.00  0.00    -0.000 C 
ATOM     11  C   UNL A   1     -25.137  -5.280  29.205  0.00  0.00    -0.000 C 
ATOM     12  C   UNL A   1     -26.232  -4.611  29.784  0.00  0.00    -0.000 C 
ATOM     13  C   UNL A   1     -26.155  -3.232  30.065  0.00  0.00    -0.004 C 
ENDBRANCH   7   8
ENDBRANCH   2   7
ENDBRANCH   1   3
BRANCH   1  15
ATOM     14  S   UNL A   1     -23.087   1.643  29.158  0.00  0.00    -0.072 S 
ATOM     15  C   UNL A   1     -24.151   2.108  30.299  0.00  0.00    -0.080 C 
BRANCH  14  17
ATOM     16  C   UNL A   1     -21.002   1.470  27.505  0.00  0.00    +0.017 C 
ATOM     17  C   UNL A   1     -22.413   0.853  27.586  0.00  0.00    +0.103 C 
BRANCH  17  18
ATOM     18  C   UNL A   1     -23.266   1.351  26.330  0.00  0.00    +0.217 C 
BRANCH  18  19
ATOM     19  O   UNL A   1     -24.540   1.269  26.975  0.00  0.00    -0.472 OA
BRANCH  19  20
ATOM     20  C   UNL A   1     -25.688   1.614  26.461  0.00  0.00    +0.176 C 
ATOM     21  C   UNL A   1     -26.250   2.920  26.395  0.00  0.00    +0.111 C 
ATOM     22  C   UNL A   1     -27.438   3.091  25.645  0.00  0.00    +0.110 C 
ATOM     23  N   UNL A   1     -28.075   2.089  25.003  0.00  0.00    -0.208 NA
ATOM     24  C   UNL A   1     -27.543   0.849  25.079  0.00  0.00    +0.256 C 
ATOM     25  C   UNL A   1     -26.354   0.576  25.777  0.00  0.00    +0.227 C 
ATOM     26  F   UNL A   1     -25.860  -0.681  25.795  0.00  0.00    -0.196 F 
BRANCH  21  27
ATOM     27  C   UNL A   1     -25.642   4.093  27.123  0.00  0.00    +0.269 C 
ATOM     28  N   UNL A   1     -25.614   5.252  26.449  0.00  0.00    -0.200 NA
ATOM     29  C   UNL A   1     -25.026   6.479  26.963  0.00  0.00    +0.139 C 
ATOM     30  O   UNL A   1     -25.143   3.966  28.243  0.00  0.00    -0.268 OA
ENDBRANCH  21  27
BRANCH  24  31
ATOM     31  O   UNL A   1     -28.193  -0.208  24.477  0.00  0.00    -0.456 OA
BRANCH  31  32
ATOM     32  C   UNL A   1     -29.460   0.005  23.866  0.00  0.00    +0.243 C 
BRANCH  32  33
ATOM     33  C   UNL A   1     -30.065  -1.377  23.573  0.00  0.00    +0.229 C 
ATOM     34  O   UNL A   1     -30.729  -1.878  24.721  0.00  0.00    -0.216 OA
ENDBRANCH  32  33
ENDBRANCH  31  32
ENDBRANCH  24  31
ENDBRANCH  19  20
ENDBRANCH  18  19
ENDBRANCH  17  18
ENDBRANCH  14  17
ENDBRANCH   1  15
BRANCH   1  35
ATOM     35  N   UNL A   1     -26.467   2.893  31.225  0.00  0.00    -0.205 NA
BRANCH  35  36
ATOM     36  C   UNL A   1     -27.155   4.319  30.873  0.00  0.00    +0.106 C 
BRANCH  36  42
ATOM     37  C   UNL A   1     -27.430   7.349  29.854  0.00  0.00    +0.090 C 
ATOM     38  C   UNL A   1     -26.038   5.644  32.757  0.00  0.00    +0.072 C 
ATOM     39  N   UNL A   1     -26.553   6.830  30.868  0.00  0.00    -0.269 NA
ATOM     40  C   UNL A   1     -24.885   6.487  32.328  0.00  0.00    +0.135 C 
ATOM     41  C   UNL A   1     -25.338   7.341  31.316  0.00  0.00    +0.102 C 
ATOM     42  C   UNL A   1     -26.701   5.579  31.429  0.00  0.00    +0.080 C 
BRANCH  38  46
ATOM     43  O   UNL A   1     -27.039   4.326  33.493  0.00  0.00    -0.356 OA
ATOM     44  C   UNL A   1     -28.343   4.501  34.378  0.00  0.00    +0.142 C 
ATOM     45  C   UNL A   1     -27.754   4.805  35.787  0.00  0.00    +0.035 C 
ATOM     46  C   UNL A   1     -25.985   5.118  33.867  0.00  0.00    +0.119 C 
ATOM     47  C   UNL A   1     -26.381   5.286  35.383  0.00  0.00    +0.032 C 
ENDBRANCH  38  46
BRANCH  40  48
ATOM     48  O   UNL A   1     -23.672   6.126  32.810  0.00  0.00    -0.355 OA
BRANCH  48  49
ATOM     49  C   UNL A   1     -22.701   7.124  32.773  0.00  0.00    +0.142 C 
ATOM     50  C   UNL A   1     -21.504   6.709  33.620  0.00  0.00    +0.035 C 
ENDBRANCH  48  49
ENDBRANCH  40  48
ENDBRANCH  36  42
ENDBRANCH  35  36
ENDBRANCH   1  35
TORSDOF 18
