MODEL 1411
MODEL 1
REMARK VINA RESULT:    -5.008      0.000      0.000
REMARK INTER + INTRA:          -5.008
REMARK INTER:                  -5.008
REMARK INTRA:                   0.000
REMARK UNBOUND:                 0.000
REMARK  Name = No_1411-gen_results/8p0m/2024-11-27-11-27-31/
REMARK  0 active torsions:
REMARK  status: ('A' for Active; 'I' for Inactive)
REMARK                            x       y       z     vdW  Elec       q    Type
REMARK                         _______ _______ _______ _____ _____    ______ ____
ROOT
ATOM      1  C   UNL A   1     -10.475  -9.312  19.128  0.00  0.00    +0.042 A 
ATOM      2  C   UNL A   1      -9.698  -9.138  20.038  0.00  0.00    +0.003 A 
ATOM      3  C   UNL A   1      -8.423  -9.691  20.009  0.00  0.00    +0.000 A 
ATOM      4  C   UNL A   1      -8.003 -10.527  18.914  0.00  0.00    +0.003 A 
ATOM      5  C   UNL A   1      -8.972 -10.695  17.917  0.00  0.00    +0.042 A 
ATOM      6  C   UNL A   1     -10.170 -10.164  18.000  0.00  0.00    +0.196 A 
ATOM      7  O   UNL A   1     -11.067 -10.408  17.005  0.00  0.00    -0.287 OA
ENDROOT
TORSDOF 0
ENDMDL
ENDMDL
