REMARK  Name = outputs/IAG933/test6/raw/output_1412_IAG933_linker_design_.xyz
REMARK  10 active torsions:
REMARK  status: ('A' for Active; 'I' for Inactive)
REMARK    1  A    between atoms: C_1  and  C_2
REMARK    2  A    between atoms: C_1  and  C_8
REMARK    3  A    between atoms: C_1  and  C_29
REMARK    4  A    between atoms: C_13  and  C_28
REMARK    5  A    between atoms: C_14  and  C_15
REMARK    6  A    between atoms: C_21  and  O_22
REMARK    7  A    between atoms: O_22  and  C_23
REMARK    8  A    between atoms: C_23  and  C_24
REMARK    9  A    between atoms: C_30  and  C_40
REMARK   10  A    between atoms: C_32  and  N_42
REMARK                            x       y       z     vdW  Elec       q    Type
REMARK                         _______ _______ _______ _____ _____    ______ ____
ROOT
ATOM      1  C   UNL A   1     -24.739   1.218  27.392  0.00  0.00    +0.030 C 
ATOM      2  C   UNL A   1     -24.635  -0.115  29.155  0.00  0.00    +0.056 C 
ATOM      3  C   UNL A   1     -25.478   0.637  28.636  0.00  0.00    +0.099 C 
ATOM      4  O   UNL A   1     -22.206   0.480  29.409  0.00  0.00    -0.223 OA
ATOM      5  C   UNL A   1     -22.021   1.655  26.882  0.00  0.00    +0.003 C 
ATOM      6  C   UNL A   1     -23.420   1.619  27.579  0.00  0.00    +0.033 C 
ATOM      7  C   UNL A   1     -23.228   0.265  28.530  0.00  0.00    +0.154 C 
ENDROOT
BRANCH   1   8
ATOM      8  C   UNL A   1     -25.688   1.614  26.461  0.00  0.00    +0.072 C 
ATOM      9  C   UNL A   1     -26.250   2.920  26.395  0.00  0.00    +0.055 C 
ATOM     10  C   UNL A   1     -27.438   3.091  25.645  0.00  0.00    +0.102 C 
ATOM     11  N   UNL A   1     -28.075   2.089  25.003  0.00  0.00    -0.212 NA
ATOM     12  C   UNL A   1     -27.543   0.849  25.079  0.00  0.00    +0.234 C 
ATOM     13  C   UNL A   1     -26.354   0.576  25.777  0.00  0.00    +0.240 C 
ATOM     14  F   UNL A   1     -25.860  -0.681  25.795  0.00  0.00    -0.227 F 
BRANCH   9  15
ATOM     15  C   UNL A   1     -25.642   4.093  27.123  0.00  0.00    +0.262 C 
ATOM     16  N   UNL A   1     -25.614   5.252  26.449  0.00  0.00    -0.200 NA
ATOM     17  C   UNL A   1     -25.026   6.479  26.963  0.00  0.00    +0.139 C 
ATOM     18  O   UNL A   1     -25.143   3.966  28.243  0.00  0.00    -0.269 OA
ENDBRANCH   9  15
BRANCH  12  19
ATOM     19  O   UNL A   1     -28.193  -0.208  24.477  0.00  0.00    -0.459 OA
BRANCH  19  20
ATOM     20  C   UNL A   1     -29.460   0.005  23.866  0.00  0.00    +0.242 C 
BRANCH  20  21
ATOM     21  C   UNL A   1     -30.065  -1.377  23.573  0.00  0.00    +0.229 C 
ATOM     22  O   UNL A   1     -30.729  -1.878  24.721  0.00  0.00    -0.216 OA
ENDBRANCH  20  21
ENDBRANCH  19  20
ENDBRANCH  12  19
ENDBRANCH   1   8
BRANCH   3  25
ATOM     23  C   UNL A   1     -27.939   0.324  29.201  0.00  0.00    +0.243 C 
ATOM     24  O   UNL A   1     -28.122  -0.715  28.607  0.00  0.00    -0.273 OA
ATOM     25  N   UNL A   1     -26.722   0.992  29.202  0.00  0.00    -0.207 NA
BRANCH  23  30
ATOM     26  C   UNL A   1     -28.758   2.581  29.896  0.00  0.00    +0.014 C 
ATOM     27  C   UNL A   1     -30.593   2.794  28.219  0.00  0.00    +0.142 C 
ATOM     28  C   UNL A   1     -30.452   0.817  29.397  0.00  0.00    +0.151 C 
ATOM     29  C   UNL A   1     -29.156   3.073  28.501  0.00  0.00    +0.033 C 
ATOM     30  C   UNL A   1     -29.054   1.073  30.033  0.00  0.00    +0.108 C 
ATOM     31  O   UNL A   1     -30.560   1.353  28.095  0.00  0.00    -0.353 OA
ENDBRANCH  23  30
ENDBRANCH   3  25
BRANCH   2  32
ATOM     32  C   UNL A   1     -24.855  -1.012  30.143  0.00  0.00    +0.042 C 
BRANCH  32  33
ATOM     33  C   UNL A   1     -24.973  -2.505  29.788  0.00  0.00    -0.021 C 
ATOM     34  C   UNL A   1     -23.906  -3.173  29.146  0.00  0.00    -0.004 C 
ATOM     35  C   UNL A   1     -23.989  -4.549  28.853  0.00  0.00    -0.000 C 
ATOM     36  C   UNL A   1     -25.137  -5.280  29.205  0.00  0.00    -0.000 C 
ATOM     37  C   UNL A   1     -26.232  -4.611  29.784  0.00  0.00    -0.000 C 
ATOM     38  C   UNL A   1     -26.155  -3.232  30.065  0.00  0.00    -0.004 C 
ENDBRANCH  32  33
BRANCH  32  39
ATOM     39  C   UNL A   1     -25.387  -0.679  31.571  0.00  0.00    +0.077 C 
ATOM     40  C   UNL A   1     -25.189   0.773  32.028  0.00  0.00    +0.019 C 
ATOM     41  C   UNL A   1     -25.336   0.684  33.544  0.00  0.00    +0.020 C 
ATOM     42  C   UNL A   1     -24.829  -0.715  33.905  0.00  0.00    +0.089 C 
ATOM     43  N   UNL A   1     -24.758  -1.481  32.646  0.00  0.00    -0.219 NA
ENDBRANCH  32  39
ENDBRANCH   2  32
TORSDOF 10
