MODEL 1412
MODEL 1
REMARK VINA RESULT:    -5.135      0.000      0.000
REMARK INTER + INTRA:          -5.619
REMARK INTER:                  -5.435
REMARK INTRA:                  -0.184
REMARK UNBOUND:                -0.184
REMARK  Name = No_1412-gen_results/8p0m/2024-11-27-11-27-31/
REMARK  1 active torsions:
REMARK  status: ('A' for Active; 'I' for Inactive)
REMARK    1  A    between atoms: C_3  and  C_4
REMARK                            x       y       z     vdW  Elec       q    Type
REMARK                         _______ _______ _______ _____ _____    ______ ____
ROOT
ATOM      1  C   UNL A   1     -25.947  -3.091  29.810  0.00  0.00    -0.000 A 
ATOM      2  C   UNL A   1     -26.276  -4.088  29.717  0.00  0.00    -0.000 A 
ATOM      3  C   UNL A   1     -24.713  -2.811  29.065  0.00  0.00    -0.000 A 
ATOM      4  C   UNL A   1     -25.558  -5.294  29.353  0.00  0.00    -0.000 A 
ATOM      5  C   UNL A   1     -24.383  -5.087  28.757  0.00  0.00    -0.000 A 
ATOM      6  C   UNL A   1     -23.920  -3.819  28.580  0.00  0.00    -0.000 A 
ENDROOT
BRANCH   3   7
ATOM      7  C   UNL A   1     -24.216  -1.429  28.916  0.00  0.00    -0.005 C 
ATOM      8  C   UNL A   1     -22.827  -1.213  29.055  0.00  0.00    -0.026 C 
ATOM      9  C   UNL A   1     -22.297   0.083  29.072  0.00  0.00    +0.031 C 
ENDBRANCH   3   7
TORSDOF 1
ENDMDL
ENDMDL
