MODEL 1413
MODEL 1
REMARK VINA RESULT:    -4.281      0.000      0.000
REMARK INTER + INTRA:          -4.281
REMARK INTER:                  -4.281
REMARK INTRA:                   0.000
REMARK UNBOUND:                 0.000
REMARK  Name = No_1413-gen_results/8p0m/2024-11-27-11-27-31/
REMARK  0 active torsions:
REMARK  status: ('A' for Active; 'I' for Inactive)
REMARK                            x       y       z     vdW  Elec       q    Type
REMARK                         _______ _______ _______ _____ _____    ______ ____
ROOT
ATOM      1  C   UNL A   1     -23.948  -3.331  28.738  0.00  0.00    +0.000 A 
ATOM      2  C   UNL A   1     -23.967  -4.526  28.554  0.00  0.00    +0.000 A 
ATOM      3  C   UNL A   1     -24.985  -5.351  28.993  0.00  0.00    +0.000 A 
ATOM      4  C   UNL A   1     -26.087  -4.751  29.664  0.00  0.00    +0.000 A 
ATOM      5  C   UNL A   1     -26.101  -3.398  29.693  0.00  0.00    +0.000 A 
ATOM      6  C   UNL A   1     -25.101  -2.686  29.211  0.00  0.00    +0.000 A 
ENDROOT
TORSDOF 0
ENDMDL
ENDMDL
