MODEL 1414
MODEL 1
REMARK VINA RESULT:    -5.194      0.000      0.000
REMARK INTER + INTRA:          -6.080
REMARK INTER:                  -5.801
REMARK INTRA:                  -0.279
REMARK UNBOUND:                -0.279
REMARK  Name = No_1414-gen_results/8p0m/2024-11-27-11-27-31/
REMARK  2 active torsions:
REMARK  status: ('A' for Active; 'I' for Inactive)
REMARK    1  A    between atoms: C_2  and  C_3
REMARK    2  A    between atoms: C_3  and  C_5
REMARK                            x       y       z     vdW  Elec       q    Type
REMARK                         _______ _______ _______ _____ _____    ______ ____
ROOT
ATOM      1  C   UNL A   1     -24.655  -2.713  28.793  0.00  0.00    -0.012 A 
ATOM      2  C   UNL A   1     -25.830  -2.579  29.350  0.00  0.00    -0.004 A 
ATOM      3  C   UNL A   1     -26.460  -3.536  29.940  0.00  0.00    -0.000 A 
ATOM      4  C   UNL A   1     -26.013  -4.920  29.601  0.00  0.00    -0.000 A 
ATOM      5  C   UNL A   1     -24.788  -5.133  28.968  0.00  0.00    -0.000 A 
ATOM      6  C   UNL A   1     -24.060  -4.065  28.633  0.00  0.00    -0.004 A 
ENDROOT
BRANCH   1   7
ATOM      7  C   UNL A   1     -23.841  -1.563  28.733  0.00  0.00    +0.127 C 
BRANCH   7   9
ATOM      8  O   UNL A   1     -21.795  -1.126  29.008  0.00  0.00    -0.259 OA
ATOM      9  C   UNL A   1     -22.895  -1.385  29.233  0.00  0.00    +0.315 C 
ATOM     10  F   UNL A   1     -23.042  -1.324  30.740  0.00  0.00    -0.163 F 
ENDBRANCH   7   9
ENDBRANCH   1   7
TORSDOF 2
ENDMDL
ENDMDL
