REMARK  Name = No_1415-gen_results/8p0m/2024-11-27-11-27-31/
REMARK  2 active torsions:
REMARK  status: ('A' for Active; 'I' for Inactive)
REMARK    1  A    between atoms: C_3  and  C_8
REMARK    2  A    between atoms: C_5  and  C_14
REMARK                            x       y       z     vdW  Elec       q    Type
REMARK                         _______ _______ _______ _____ _____    ______ ____
ROOT
ATOM      1  O   UNL A   1     -28.123  -1.335  28.487  0.00  0.00    -0.273 OA
ATOM      2  C   UNL A   1     -27.481  -0.404  28.709  0.00  0.00    +0.245 C 
ATOM      3  C   UNL A   1     -27.190   0.246  29.527  0.00  0.00    +0.101 C 
ATOM      4  N   UNL A   1     -26.602  -0.158  27.552  0.00  0.00    -0.202 NA
ATOM      5  C   UNL A   1     -25.682   0.836  27.585  0.00  0.00    +0.117 C 
ATOM      6  C   UNL A   1     -25.503   1.591  28.720  0.00  0.00    +0.027 C 
ATOM      7  C   UNL A   1     -26.263   1.280  29.800  0.00  0.00    +0.016 C 
ENDROOT
BRANCH   3   8
ATOM      8  C   UNL A   1     -28.015  -0.026  30.934  0.00  0.00    -0.014 A 
ATOM      9  C   UNL A   1     -27.467  -0.353  31.925  0.00  0.00    -0.004 A 
ATOM     10  C   UNL A   1     -28.186  -0.526  33.222  0.00  0.00    -0.000 A 
ATOM     11  C   UNL A   1     -29.559  -0.566  33.163  0.00  0.00    -0.000 A 
ATOM     12  C   UNL A   1     -30.165  -0.303  31.945  0.00  0.00    -0.000 A 
ATOM     13  C   UNL A   1     -29.420  -0.015  30.802  0.00  0.00    -0.004 A 
ENDBRANCH   3   8
BRANCH   5  14
ATOM     14  C   UNL A   1     -24.824   1.156  26.403  0.00  0.00    -0.009 C 
ATOM     15  C   UNL A   1     -23.709   2.050  26.553  0.00  0.00    -0.029 C 
ATOM     16  C   UNL A   1     -23.570   2.712  27.789  0.00  0.00    +0.030 C 
ENDBRANCH   5  14
TORSDOF 2
