MODEL 1416
MODEL 1
REMARK VINA RESULT:    -5.395      0.000      0.000
REMARK INTER + INTRA:          -6.253
REMARK INTER:                  -6.026
REMARK INTRA:                  -0.227
REMARK UNBOUND:                -0.227
REMARK  Name = No_1416-gen_results/8p0m/2024-11-27-11-27-31/
REMARK  2 active torsions:
REMARK  status: ('A' for Active; 'I' for Inactive)
REMARK    1  A    between atoms: C_1  and  C_2
REMARK    2  A    between atoms: C_5  and  C_10
REMARK                            x       y       z     vdW  Elec       q    Type
REMARK                         _______ _______ _______ _____ _____    ______ ____
ROOT
ATOM      1  C   UNL A   1     -22.699   0.873  27.758  0.00  0.00    +0.044 A 
ATOM      2  C   UNL A   1     -23.959   0.359  27.507  0.00  0.00    +0.001 A 
ATOM      3  C   UNL A   1     -24.519  -0.846  28.070  0.00  0.00    -0.004 A 
ATOM      4  C   UNL A   1     -23.728  -1.605  28.966  0.00  0.00    -0.022 A 
ATOM      5  C   UNL A   1     -22.423  -1.134  29.264  0.00  0.00    -0.004 A 
ATOM      6  C   UNL A   1     -21.996   0.030  28.705  0.00  0.00    +0.001 A 
ENDROOT
BRANCH   1   7
ATOM      7  C   UNL A   1     -22.276   1.921  27.329  0.00  0.00    +0.341 C 
ATOM      8  F   UNL A   1     -21.103   2.074  27.498  0.00  0.00    -0.193 F 
ATOM      9  F   UNL A   1     -22.637   2.210  26.020  0.00  0.00    -0.193 F 
ENDBRANCH   1   7
BRANCH   4  10
ATOM     10  C   UNL A   1     -24.198  -2.851  29.542  0.00  0.00    +0.026 C 
ATOM     11  C   UNL A   1     -24.078  -3.937  28.693  0.00  0.00    +0.005 C 
ENDBRANCH   4  10
TORSDOF 2
ENDMDL
ENDMDL
