REMARK  Name = outputs/IAG933/test6/raw/output_1416_IAG933_linker_design_.xyz
REMARK  11 active torsions:
REMARK  status: ('A' for Active; 'I' for Inactive)
REMARK    1  A    between atoms: C_1  and  C_2
REMARK    2  A    between atoms: C_1  and  C_8
REMARK    3  A    between atoms: C_1  and  N_36
REMARK    4  A    between atoms: C_13  and  C_41
REMARK    5  A    between atoms: C_14  and  C_15
REMARK    6  A    between atoms: C_21  and  O_22
REMARK    7  A    between atoms: O_22  and  C_23
REMARK    8  A    between atoms: C_23  and  C_24
REMARK    9  A    between atoms: C_28  and  C_32
REMARK   10  A    between atoms: C_28  and  C_35
REMARK   11  A    between atoms: C_39  and  C_44
REMARK                            x       y       z     vdW  Elec       q    Type
REMARK                         _______ _______ _______ _____ _____    ______ ____
ROOT
ATOM      1  O   UNL A   1     -21.444   1.593  28.315  0.00  0.00    -0.351 OA
ATOM      2  C   UNL A   1     -22.005  -0.605  29.566  0.00  0.00    +0.172 C 
ATOM      3  C   UNL A   1     -25.149   1.173  28.720  0.00  0.00    +0.087 C 
ATOM      4  N   UNL A   1     -24.434   0.028  29.204  0.00  0.00    -0.263 NA
ATOM      5  C   UNL A   1     -23.018  -0.202  28.688  0.00  0.00    +0.120 C 
ATOM      6  C   UNL A   1     -20.799  -0.528  28.777  0.00  0.00    +0.066 C 
ATOM      7  C   UNL A   1     -23.386   1.210  26.927  0.00  0.00    +0.016 C 
ATOM      8  C   UNL A   1     -20.269   0.582  28.243  0.00  0.00    +0.145 C 
ATOM      9  C   UNL A   1     -24.618   1.386  27.330  0.00  0.00    -0.008 C 
ATOM     10  O   UNL A   1     -22.034   0.119  30.806  0.00  0.00    -0.222 OA
ATOM     11  C   UNL A   1     -22.563   1.014  27.850  0.00  0.00    +0.153 C 
ENDROOT
BRANCH   9  12
ATOM     12  C   UNL A   1     -25.688   1.614  26.461  0.00  0.00    +0.035 C 
ATOM     13  C   UNL A   1     -26.250   2.920  26.395  0.00  0.00    +0.076 C 
ATOM     14  C   UNL A   1     -27.438   3.091  25.645  0.00  0.00    +0.107 C 
ATOM     15  N   UNL A   1     -28.075   2.089  25.003  0.00  0.00    -0.208 NA
ATOM     16  C   UNL A   1     -27.543   0.849  25.079  0.00  0.00    +0.253 C 
ATOM     17  C   UNL A   1     -26.354   0.576  25.777  0.00  0.00    +0.193 C 
ATOM     18  F   UNL A   1     -25.860  -0.681  25.795  0.00  0.00    -0.199 F 
BRANCH  13  19
ATOM     19  C   UNL A   1     -25.642   4.093  27.123  0.00  0.00    +0.266 C 
ATOM     20  N   UNL A   1     -25.614   5.252  26.449  0.00  0.00    -0.200 NA
ATOM     21  C   UNL A   1     -25.026   6.479  26.963  0.00  0.00    +0.139 C 
ATOM     22  O   UNL A   1     -25.143   3.966  28.243  0.00  0.00    -0.268 OA
ENDBRANCH  13  19
BRANCH  16  23
ATOM     23  O   UNL A   1     -28.193  -0.208  24.477  0.00  0.00    -0.456 OA
BRANCH  23  24
ATOM     24  C   UNL A   1     -29.460   0.005  23.866  0.00  0.00    +0.243 C 
BRANCH  24  25
ATOM     25  C   UNL A   1     -30.065  -1.377  23.573  0.00  0.00    +0.229 C 
ATOM     26  O   UNL A   1     -30.729  -1.878  24.721  0.00  0.00    -0.216 OA
ENDBRANCH  24  25
ENDBRANCH  23  24
ENDBRANCH  16  23
ENDBRANCH   9  12
BRANCH   7  28
ATOM     27  F   UNL A   1     -21.677   1.849  25.575  0.00  0.00    -0.229 F 
ATOM     28  C   UNL A   1     -23.006   1.218  25.410  0.00  0.00    +0.218 C 
ENDBRANCH   7  28
BRANCH   4  29
ATOM     29  C   UNL A   1     -24.855  -1.012  30.143  0.00  0.00    +0.097 C 
BRANCH  29  30
ATOM     30  C   UNL A   1     -24.973  -2.505  29.788  0.00  0.00    -0.006 C 
ATOM     31  C   UNL A   1     -23.906  -3.173  29.146  0.00  0.00    -0.003 C 
ATOM     32  C   UNL A   1     -23.989  -4.549  28.853  0.00  0.00    -0.000 C 
ATOM     33  C   UNL A   1     -25.137  -5.280  29.205  0.00  0.00    -0.000 C 
ATOM     34  C   UNL A   1     -26.232  -4.611  29.784  0.00  0.00    -0.000 C 
ATOM     35  C   UNL A   1     -26.155  -3.232  30.065  0.00  0.00    -0.003 C 
ENDBRANCH  29  30
BRANCH  29  36
ATOM     36  C   UNL A   1     -25.387  -0.679  31.571  0.00  0.00    +0.092 C 
ATOM     37  C   UNL A   1     -25.189   0.773  32.028  0.00  0.00    +0.021 C 
ATOM     38  C   UNL A   1     -25.336   0.684  33.544  0.00  0.00    +0.020 C 
ATOM     39  C   UNL A   1     -24.829  -0.715  33.905  0.00  0.00    +0.089 C 
ATOM     40  N   UNL A   1     -24.758  -1.481  32.646  0.00  0.00    -0.218 NA
ENDBRANCH  29  36
ENDBRANCH   4  29
BRANCH   3  41
ATOM     41  C   UNL A   1     -26.666   1.199  29.197  0.00  0.00    +0.085 C 
BRANCH  41  43
ATOM     42  C   UNL A   1     -28.904   0.438  29.878  0.00  0.00    +0.072 C 
ATOM     43  C   UNL A   1     -27.639  -0.020  29.205  0.00  0.00    +0.153 C 
ATOM     44  O   UNL A   1     -27.620  -1.117  28.540  0.00  0.00    -0.296 OA
ENDBRANCH  41  43
ENDBRANCH   3  41
TORSDOF 11
