MODEL 1417
MODEL 1
REMARK VINA RESULT:    -7.133      0.000      0.000
REMARK INTER + INTRA:          -8.392
REMARK INTER:                  -7.967
REMARK INTRA:                  -0.425
REMARK UNBOUND:                -0.425
REMARK  Name = No_1417-gen_results/8p0m/2024-11-27-11-27-31/
REMARK  2 active torsions:
REMARK  status: ('A' for Active; 'I' for Inactive)
REMARK    1  A    between atoms: C_3  and  C_4
REMARK    2  A    between atoms: C_6  and  C_13
REMARK                            x       y       z     vdW  Elec       q    Type
REMARK                         _______ _______ _______ _____ _____    ______ ____
ROOT
ATOM      1  C   UNL A   1     -22.359  -0.103  28.881  0.00  0.00    +0.007 A 
ATOM      2  C   UNL A   1     -22.784  -1.184  29.217  0.00  0.00    +0.000 A 
ATOM      3  C   UNL A   1     -23.987  -1.679  28.830  0.00  0.00    +0.000 A 
ATOM      4  C   UNL A   1     -23.084   0.726  27.920  0.00  0.00    +0.080 A 
ATOM      5  C   UNL A   1     -24.284   0.311  27.524  0.00  0.00    +0.007 A 
ATOM      6  C   UNL A   1     -24.811  -0.962  27.915  0.00  0.00    +0.000 A 
ENDROOT
BRANCH   3   7
ATOM      7  C   UNL A   1     -24.521  -3.000  29.230  0.00  0.00    +0.000 A 
ATOM      8  C   UNL A   1     -24.143  -4.213  28.683  0.00  0.00    +0.000 A 
ATOM      9  C   UNL A   1     -24.779  -5.391  29.055  0.00  0.00    +0.000 A 
ATOM     10  C   UNL A   1     -26.093  -5.159  29.429  0.00  0.00    +0.000 A 
ATOM     11  C   UNL A   1     -25.909  -3.129  29.791  0.00  0.00    +0.000 A 
ATOM     12  C   UNL A   1     -26.615  -4.146  29.929  0.00  0.00    +0.000 A 
ENDBRANCH   3   7
BRANCH   4  13
ATOM     13  C   UNL A   1     -22.477   1.985  27.510  0.00  0.00    +0.388 C 
ATOM     14  O   UNL A   1     -23.315   2.918  27.307  0.00  0.00    -0.241 OA
ATOM     15  O   UNL A   1     -21.299   2.073  27.276  0.00  0.00    -0.241 OA
ENDBRANCH   4  13
TORSDOF 2
ENDMDL
ENDMDL
