REMARK  Name = No_1418-gen_results/8p0m/2024-11-27-11-27-31/
REMARK  5 active torsions:
REMARK  status: ('A' for Active; 'I' for Inactive)
REMARK    1  A    between atoms: C_5  and  S_8
REMARK    2  A    between atoms: S_8  and  N_11
REMARK    3  A    between atoms: N_11  and  C_13
REMARK    4  A    between atoms: C_14  and  C_15
REMARK    5  A    between atoms: C_15  and  C_16
REMARK                            x       y       z     vdW  Elec       q    Type
REMARK                         _______ _______ _______ _____ _____    ______ ____
ROOT
ATOM      1  C   UNL A   1     -30.367  -2.729  32.237  0.00  0.00    +0.079 C 
ATOM      2  C   UNL A   1     -30.303  -3.632  33.020  0.00  0.00    -0.004 C 
ENDROOT
BRANCH   1   3
ATOM      3  N   UNL A   1     -29.636  -1.524  32.509  0.00  0.00    -0.188 N 
ATOM      4  C   UNL A   1     -28.579  -1.623  33.181  0.00  0.00    +0.139 C 
BRANCH   3   5
ATOM      5  S   UNL A   1     -30.136  -0.058  31.983  0.00  0.00    +0.077 S 
ATOM      6  O   UNL A   1     -29.854   0.796  32.748  0.00  0.00    -0.150 OA
ATOM      7  O   UNL A   1     -31.627  -0.195  31.681  0.00  0.00    -0.150 OA
BRANCH   5  12
ATOM      8  C   UNL A   1     -28.016  -0.814  28.878  0.00  0.00    +0.013 A 
ATOM      9  C   UNL A   1     -28.469  -0.785  29.829  0.00  0.00    +0.021 A 
ATOM     10  C   UNL A   1     -28.196   0.348  28.055  0.00  0.00    +0.058 A 
ATOM     11  C   UNL A   1     -29.019   1.350  28.378  0.00  0.00    +0.013 A 
ATOM     12  C   UNL A   1     -29.411   0.180  30.378  0.00  0.00    +0.126 A 
ATOM     13  C   UNL A   1     -29.606   1.250  29.619  0.00  0.00    +0.021 A 
ATOM     14 CL   UNL A   1     -27.336   0.378  26.521  0.00  0.00    -0.082 Cl
ENDBRANCH   5  12
ENDBRANCH   3   5
ENDBRANCH   1   3
BRANCH   2  15
ATOM     15  C   UNL A   1     -30.886  -3.861  33.816  0.00  0.00    +0.054 C 
BRANCH  15  16
ATOM     16  C   UNL A   1     -32.014  -2.976  34.162  0.00  0.00    -0.018 A 
ATOM     17  C   UNL A   1     -33.039  -3.147  33.277  0.00  0.00    -0.004 A 
ATOM     18  C   UNL A   1     -34.108  -2.212  33.459  0.00  0.00    -0.000 A 
ATOM     19  C   UNL A   1     -35.176  -2.144  32.495  0.00  0.00    -0.000 A 
ATOM     20  C   UNL A   1     -36.214  -1.248  32.625  0.00  0.00    -0.000 A 
ATOM     21  C   UNL A   1     -36.211  -0.354  33.713  0.00  0.00    -0.000 A 
ATOM     22  C   UNL A   1     -35.186  -0.371  34.635  0.00  0.00    -0.000 A 
ATOM     23  C   UNL A   1     -34.148  -1.246  34.486  0.00  0.00    -0.000 A 
ATOM     24  C   UNL A   1     -32.079  -2.214  35.349  0.00  0.00    -0.004 A 
ATOM     25  C   UNL A   1     -33.073  -1.308  35.452  0.00  0.00    -0.000 A 
ENDBRANCH  15  16
ENDBRANCH   2  15
TORSDOF 5
