MODEL 1418
MODEL 1
REMARK VINA RESULT:    -7.216      0.000      0.000
REMARK INTER + INTRA:         -10.736
REMARK INTER:                  -9.325
REMARK INTRA:                  -1.411
REMARK UNBOUND:                -1.411
REMARK  Name = No_1418-gen_results/8p0m/2024-11-27-11-27-31/
REMARK  5 active torsions:
REMARK  status: ('A' for Active; 'I' for Inactive)
REMARK    1  A    between atoms: C_5  and  S_8
REMARK    2  A    between atoms: S_8  and  N_11
REMARK    3  A    between atoms: N_11  and  C_13
REMARK    4  A    between atoms: C_14  and  C_15
REMARK    5  A    between atoms: C_15  and  C_16
REMARK                            x       y       z     vdW  Elec       q    Type
REMARK                         _______ _______ _______ _____ _____    ______ ____
ROOT
ATOM      1  C   UNL A   1     -23.058   1.334  28.702  0.00  0.00    +0.079 C 
ATOM      2  C   UNL A   1     -23.298   0.217  29.057  0.00  0.00    -0.004 C 
ENDROOT
BRANCH   1   3
ATOM      3  N   UNL A   1     -24.096   2.098  28.070  0.00  0.00    -0.188 N 
ATOM      4  C   UNL A   1     -25.054   2.484  28.785  0.00  0.00    +0.139 C 
BRANCH   3   5
ATOM      5  S   UNL A   1     -24.067   2.464  26.476  0.00  0.00    +0.077 S 
ATOM      6  O   UNL A   1     -23.021   2.210  25.992  0.00  0.00    -0.150 OA
ATOM      7  O   UNL A   1     -24.499   3.925  26.362  0.00  0.00    -0.150 OA
BRANCH   5  12
ATOM      8  C   UNL A   1     -25.968  -0.468  24.896  0.00  0.00    +0.013 A 
ATOM      9  C   UNL A   1     -25.253   0.199  25.289  0.00  0.00    +0.021 A 
ATOM     10  C   UNL A   1     -27.246   0.096  24.567  0.00  0.00    +0.058 A 
ATOM     11  C   UNL A   1     -27.594   1.347  24.882  0.00  0.00    +0.013 A 
ATOM     12  C   UNL A   1     -25.413   1.578  25.726  0.00  0.00    +0.126 A 
ATOM     13  C   UNL A   1     -26.597   2.108  25.450  0.00  0.00    +0.021 A 
ATOM     14 CL   UNL A   1     -28.408  -0.967  23.784  0.00  0.00    -0.082 Cl
ENDBRANCH   5  12
ENDBRANCH   3   5
ENDBRANCH   1   3
BRANCH   2  15
ATOM     15  C   UNL A   1     -23.188  -0.669  28.576  0.00  0.00    +0.054 C 
BRANCH  15  16
ATOM     16  C   UNL A   1     -24.145  -1.758  28.845  0.00  0.00    -0.018 A 
ATOM     17  C   UNL A   1     -25.353  -1.245  29.221  0.00  0.00    -0.004 A 
ATOM     18  C   UNL A   1     -26.287  -2.245  29.645  0.00  0.00    -0.000 A 
ATOM     19  C   UNL A   1     -27.538  -1.853  30.241  0.00  0.00    -0.000 A 
ATOM     20  C   UNL A   1     -28.456  -2.783  30.677  0.00  0.00    -0.000 A 
ATOM     21  C   UNL A   1     -28.146  -4.152  30.565  0.00  0.00    -0.000 A 
ATOM     22  C   UNL A   1     -26.942  -4.559  30.029  0.00  0.00    -0.000 A 
ATOM     23  C   UNL A   1     -26.027  -3.631  29.622  0.00  0.00    -0.000 A 
ATOM     24  C   UNL A   1     -23.888  -3.117  28.563  0.00  0.00    -0.004 A 
ATOM     25  C   UNL A   1     -24.768  -4.027  29.029  0.00  0.00    -0.000 A 
ENDBRANCH  15  16
ENDBRANCH   2  15
TORSDOF 5
ENDMDL
ENDMDL
