MODEL 1419
MODEL 1
REMARK VINA RESULT:    -6.323      0.000      0.000
REMARK INTER + INTRA:          -6.323
REMARK INTER:                  -6.323
REMARK INTRA:                   0.000
REMARK UNBOUND:                 0.000
REMARK  Name = No_1419-gen_results/8p0m/2024-11-27-11-27-31/
REMARK  0 active torsions:
REMARK  status: ('A' for Active; 'I' for Inactive)
REMARK                            x       y       z     vdW  Elec       q    Type
REMARK                         _______ _______ _______ _____ _____    ______ ____
ROOT
ATOM      1  C   UNL A   1     -21.961   1.705  26.995  0.00  0.00    +0.019 A 
ATOM      2  C   UNL A   1     -22.486   0.944  27.773  0.00  0.00    +0.081 A 
ATOM      3  C   UNL A   1     -23.814   0.561  27.618  0.00  0.00    +0.018 A 
ATOM      4  C   UNL A   1     -24.620   1.096  26.551  0.00  0.00    +0.002 A 
ATOM      5  C   UNL A   1     -23.940   1.988  25.712  0.00  0.00    +0.000 A 
ATOM      6  C   UNL A   1     -22.687   2.331  25.911  0.00  0.00    +0.002 A 
ATOM      7  N   UNL A   1     -21.860   0.363  28.880  0.00  0.00    -0.244 NA
ATOM      8  C   UNL A   1     -21.963  -0.866  29.221  0.00  0.00    +0.099 A 
ATOM      9  C   UNL A   1     -23.358  -1.391  29.140  0.00  0.00    +0.019 A 
ATOM     10  C   UNL A   1     -24.241  -0.753  28.162  0.00  0.00    +0.003 A 
ATOM     11  C   UNL A   1     -23.766  -2.691  29.373  0.00  0.00    +0.002 A 
ATOM     12  C   UNL A   1     -25.089  -2.908  29.855  0.00  0.00    +0.000 A 
ATOM     13  C   UNL A   1     -26.128  -2.112  29.265  0.00  0.00    +0.000 A 
ATOM     14  C   UNL A   1     -25.670  -0.989  28.291  0.00  0.00    +0.000 A 
ENDROOT
TORSDOF 0
ENDMDL
ENDMDL
