REMARK  Name = outputs/IAG933/test6/raw/output_1419_IAG933_linker_design_.xyz
REMARK  12 active torsions:
REMARK  status: ('A' for Active; 'I' for Inactive)
REMARK    1  A    between atoms: C_1  and  C_2
REMARK    2  A    between atoms: C_1  and  C_8
REMARK    3  A    between atoms: C_9  and  C_37
REMARK    4  A    between atoms: C_13  and  C_32
REMARK    5  A    between atoms: C_14  and  C_15
REMARK    6  A    between atoms: C_21  and  O_22
REMARK    7  A    between atoms: O_22  and  C_23
REMARK    8  A    between atoms: C_23  and  C_24
REMARK    9  A    between atoms: C_30  and  O_36
REMARK   10  A    between atoms: C_31  and  C_37
REMARK   11  A    between atoms: O_35  and  P_38
REMARK   12  A    between atoms: C_37  and  P_38
REMARK                            x       y       z     vdW  Elec       q    Type
REMARK                         _______ _______ _______ _____ _____    ______ ____
ROOT
ATOM      1  C   UNL A   1     -21.770   0.587  28.573  0.00  0.00    -0.017 C 
ATOM      2  N   UNL A   1     -24.640   1.789  28.569  0.00  0.00    -0.250 NA
ATOM      3  C   UNL A   1     -23.312   0.993  26.562  0.00  0.00    +0.206 C 
ATOM      4  C   UNL A   1     -24.033   1.478  29.661  0.00  0.00    +0.053 C 
ATOM      5  C   UNL A   1     -24.513   1.393  27.238  0.00  0.00    +0.121 C 
ATOM      6  C   UNL A   1     -22.104   0.710  27.170  0.00  0.00    +0.039 C 
ATOM      7  C   UNL A   1     -22.639   0.978  29.591  0.00  0.00    +0.068 C 
ENDROOT
BRANCH   5   8
ATOM      8  C   UNL A   1     -25.688   1.614  26.461  0.00  0.00    +0.059 C 
ATOM      9  C   UNL A   1     -26.250   2.920  26.395  0.00  0.00    +0.078 C 
ATOM     10  C   UNL A   1     -27.438   3.091  25.645  0.00  0.00    +0.107 C 
ATOM     11  N   UNL A   1     -28.075   2.089  25.003  0.00  0.00    -0.208 NA
ATOM     12  C   UNL A   1     -27.543   0.849  25.079  0.00  0.00    +0.253 C 
ATOM     13  C   UNL A   1     -26.354   0.576  25.777  0.00  0.00    +0.195 C 
ATOM     14  F   UNL A   1     -25.860  -0.681  25.795  0.00  0.00    -0.199 F 
BRANCH   9  15
ATOM     15  C   UNL A   1     -25.642   4.093  27.123  0.00  0.00    +0.267 C 
ATOM     16  N   UNL A   1     -25.614   5.252  26.449  0.00  0.00    -0.200 NA
ATOM     17  C   UNL A   1     -25.026   6.479  26.963  0.00  0.00    +0.139 C 
ATOM     18  O   UNL A   1     -25.143   3.966  28.243  0.00  0.00    -0.268 OA
ENDBRANCH   9  15
BRANCH  12  19
ATOM     19  O   UNL A   1     -28.193  -0.208  24.477  0.00  0.00    -0.456 OA
BRANCH  19  20
ATOM     20  C   UNL A   1     -29.460   0.005  23.866  0.00  0.00    +0.243 C 
BRANCH  20  21
ATOM     21  C   UNL A   1     -30.065  -1.377  23.573  0.00  0.00    +0.229 C 
ATOM     22  O   UNL A   1     -30.729  -1.878  24.721  0.00  0.00    -0.216 OA
ENDBRANCH  20  21
ENDBRANCH  19  20
ENDBRANCH  12  19
ENDBRANCH   5   8
BRANCH   3  23
ATOM     23  O   UNL A   1     -23.201   1.211  25.354  0.00  0.00    -0.290 OA
ATOM     24  F   UNL A   1     -21.995   2.016  25.279  0.00  0.00    +0.014 F 
ENDBRANCH   3  23
BRANCH   4  25
ATOM     25  C   UNL A   1     -24.862   1.764  30.908  0.00  0.00    +0.144 C 
BRANCH  25  27
ATOM     26  C   UNL A   1     -25.387  -0.679  31.571  0.00  0.00    +0.078 C 
ATOM     27  C   UNL A   1     -25.189   0.773  32.028  0.00  0.00    +0.035 C 
ATOM     28  C   UNL A   1     -25.336   0.684  33.544  0.00  0.00    +0.021 C 
ATOM     29  C   UNL A   1     -24.829  -0.715  33.905  0.00  0.00    +0.089 C 
ATOM     30  N   UNL A   1     -24.758  -1.481  32.646  0.00  0.00    -0.219 NA
BRANCH  26  31
ATOM     31  C   UNL A   1     -24.855  -1.012  30.143  0.00  0.00    +0.044 C 
BRANCH  31  32
ATOM     32  C   UNL A   1     -24.973  -2.505  29.788  0.00  0.00    -0.021 C 
ATOM     33  C   UNL A   1     -23.906  -3.173  29.146  0.00  0.00    -0.004 C 
ATOM     34  C   UNL A   1     -23.989  -4.549  28.853  0.00  0.00    -0.000 C 
ATOM     35  C   UNL A   1     -25.137  -5.280  29.205  0.00  0.00    -0.000 C 
ATOM     36  C   UNL A   1     -26.232  -4.611  29.784  0.00  0.00    -0.000 C 
ATOM     37  C   UNL A   1     -26.155  -3.232  30.065  0.00  0.00    -0.004 C 
ENDBRANCH  31  32
ENDBRANCH  26  31
ENDBRANCH  25  27
BRANCH  25  38
ATOM     38  P   UNL A   1     -25.409   3.360  31.388  0.00  0.00    +0.374 P 
ATOM     39  O   UNL A   1     -23.984   4.049  31.671  0.00  0.00    -0.140 OA
ATOM     40  O   UNL A   1     -26.286   3.689  30.204  0.00  0.00    -0.255 OA
BRANCH  38  42
ATOM     41  C   UNL A   1     -26.218   5.121  32.984  0.00  0.00    +0.184 C 
ATOM     42  O   UNL A   1     -26.160   3.764  32.713  0.00  0.00    -0.290 OA
ENDBRANCH  38  42
ENDBRANCH  25  38
ENDBRANCH   4  25
TORSDOF 12
