MODEL 141
MODEL 1
REMARK VINA RESULT:    -5.728      0.000      0.000
REMARK INTER + INTRA:          -6.697
REMARK INTER:                  -6.398
REMARK INTRA:                  -0.300
REMARK UNBOUND:                -0.300
REMARK  Name = No_141-gen_results/8p0m/2024-11-27-11-27-31/
REMARK  2 active torsions:
REMARK  status: ('A' for Active; 'I' for Inactive)
REMARK    1  A    between atoms: C_4  and  C_11
REMARK    2  A    between atoms: C_11  and  C_13
REMARK                            x       y       z     vdW  Elec       q    Type
REMARK                         _______ _______ _______ _____ _____    ______ ____
ROOT
ATOM      1  C   UNL A   1     -25.966   0.343  26.538  0.00  0.00    -0.000 A 
ATOM      2  C   UNL A   1     -25.448  -0.380  27.358  0.00  0.00    -0.000 A 
ATOM      3  C   UNL A   1     -24.143  -0.161  27.785  0.00  0.00    -0.004 A 
ATOM      4  C   UNL A   1     -23.392  -0.982  28.777  0.00  0.00    -0.020 A 
ATOM      5  C   UNL A   1     -22.034  -0.752  29.193  0.00  0.00    -0.004 A 
ATOM      6  C   UNL A   1     -25.163   1.357  25.835  0.00  0.00    -0.000 A 
ATOM      7  C   UNL A   1     -23.894   1.682  26.247  0.00  0.00    -0.000 A 
ATOM      8  C   UNL A   1     -23.277   0.897  27.235  0.00  0.00    -0.000 A 
ATOM      9  C   UNL A   1     -21.475   0.450  28.648  0.00  0.00    -0.000 A 
ATOM     10  C   UNL A   1     -22.003   1.183  27.707  0.00  0.00    -0.000 A 
ENDROOT
BRANCH   4  11
ATOM     11  C   UNL A   1     -24.050  -2.139  29.454  0.00  0.00    +0.055 C 
ATOM     12  C   UNL A   1     -23.977  -3.339  28.914  0.00  0.00    +0.007 C 
BRANCH  11  13
ATOM     13  C   UNL A   1     -24.689  -1.894  30.715  0.00  0.00    +0.186 C 
ATOM     14  O   UNL A   1     -25.780  -2.038  30.687  0.00  0.00    -0.220 OA
ENDBRANCH  11  13
ENDBRANCH   4  11
TORSDOF 2
ENDMDL
ENDMDL
