REMARK  Name = outputs/IAG933/test6/raw/output_142_IAG933_linker_design_.xyz
REMARK  13 active torsions:
REMARK  status: ('A' for Active; 'I' for Inactive)
REMARK    1  A    between atoms: C_1  and  C_2
REMARK    2  A    between atoms: C_1  and  C_8
REMARK    3  A    between atoms: C_1  and  O_37
REMARK    4  A    between atoms: C_13  and  N_33
REMARK    5  A    between atoms: C_14  and  C_15
REMARK    6  A    between atoms: C_21  and  O_22
REMARK    7  A    between atoms: O_22  and  C_23
REMARK    8  A    between atoms: C_23  and  C_24
REMARK    9  A    between atoms: C_28  and  C_35
REMARK   10  A    between atoms: C_29  and  C_31
REMARK   11  A    between atoms: C_32  and  N_41
REMARK   12  A    between atoms: C_35  and  N_41
REMARK   13  A    between atoms: O_37  and  C_40
REMARK                            x       y       z     vdW  Elec       q    Type
REMARK                         _______ _______ _______ _____ _____    ______ ____
ROOT
ATOM      1  C   UNL A   1     -21.519   0.435  28.669  0.00  0.00    +0.514 C 
ATOM      2  C   UNL A   1     -23.166   1.833  27.072  0.00  0.00    +0.253 C 
ATOM      3  C   UNL A   1     -23.551   1.277  29.464  0.00  0.00    +0.294 C 
ATOM      4  N   UNL A   1     -24.517   1.162  27.212  0.00  0.00    -0.247 N 
ATOM      5  O   UNL A   1     -21.960   1.046  27.465  0.00  0.00    -0.402 OA
ATOM      6  O   UNL A   1     -20.173   0.006  28.144  0.00  0.00    -0.203 OA
ATOM      7  C   UNL A   1     -24.281   0.429  28.492  0.00  0.00    +0.255 C 
ATOM      8  O   UNL A   1     -22.444   0.277  29.720  0.00  0.00    -0.400 OA
ENDROOT
BRANCH   4   9
ATOM      9  C   UNL A   1     -25.688   1.614  26.461  0.00  0.00    +0.090 C 
ATOM     10  C   UNL A   1     -26.250   2.920  26.395  0.00  0.00    +0.090 C 
ATOM     11  C   UNL A   1     -27.438   3.091  25.645  0.00  0.00    +0.108 C 
ATOM     12  N   UNL A   1     -28.075   2.089  25.003  0.00  0.00    -0.208 NA
ATOM     13  C   UNL A   1     -27.543   0.849  25.079  0.00  0.00    +0.255 C 
ATOM     14  C   UNL A   1     -26.354   0.576  25.777  0.00  0.00    +0.206 C 
ATOM     15  F   UNL A   1     -25.860  -0.681  25.795  0.00  0.00    -0.198 F 
BRANCH  10  16
ATOM     16  C   UNL A   1     -25.642   4.093  27.123  0.00  0.00    +0.268 C 
ATOM     17  N   UNL A   1     -25.614   5.252  26.449  0.00  0.00    -0.200 NA
ATOM     18  C   UNL A   1     -25.026   6.479  26.963  0.00  0.00    +0.139 C 
ATOM     19  O   UNL A   1     -25.143   3.966  28.243  0.00  0.00    -0.268 OA
ENDBRANCH  10  16
BRANCH  13  20
ATOM     20  O   UNL A   1     -28.193  -0.208  24.477  0.00  0.00    -0.456 OA
BRANCH  20  21
ATOM     21  C   UNL A   1     -29.460   0.005  23.866  0.00  0.00    +0.243 C 
BRANCH  21  22
ATOM     22  C   UNL A   1     -30.065  -1.377  23.573  0.00  0.00    +0.229 C 
ATOM     23  O   UNL A   1     -30.729  -1.878  24.721  0.00  0.00    -0.216 OA
ENDBRANCH  21  22
ENDBRANCH  20  21
ENDBRANCH  13  20
ENDBRANCH   4   9
BRANCH   2  24
ATOM     24  C   UNL A   1     -22.912   2.221  25.580  0.00  0.00    +0.066 C 
ATOM     25  C   UNL A   1     -22.639   1.076  24.613  0.00  0.00    +0.006 C 
ENDBRANCH   2  24
BRANCH   7  26
ATOM     26  O   UNL A   1     -25.424  -0.213  29.054  0.00  0.00    -0.330 OA
BRANCH  26  27
ATOM     27  C   UNL A   1     -24.855  -1.012  30.143  0.00  0.00    +0.155 C 
BRANCH  27  28
ATOM     28  C   UNL A   1     -24.973  -2.505  29.788  0.00  0.00    +0.006 C 
ATOM     29  C   UNL A   1     -23.906  -3.173  29.146  0.00  0.00    -0.002 C 
ATOM     30  C   UNL A   1     -23.989  -4.549  28.853  0.00  0.00    -0.000 C 
ATOM     31  C   UNL A   1     -25.137  -5.280  29.205  0.00  0.00    -0.000 C 
ATOM     32  C   UNL A   1     -26.232  -4.611  29.784  0.00  0.00    -0.000 C 
ATOM     33  C   UNL A   1     -26.155  -3.232  30.065  0.00  0.00    -0.002 C 
ENDBRANCH  27  28
BRANCH  27  34
ATOM     34  C   UNL A   1     -25.387  -0.679  31.571  0.00  0.00    +0.104 C 
ATOM     35  C   UNL A   1     -25.189   0.773  32.028  0.00  0.00    +0.022 C 
ATOM     36  C   UNL A   1     -25.336   0.684  33.544  0.00  0.00    +0.020 C 
ATOM     37  C   UNL A   1     -24.829  -0.715  33.905  0.00  0.00    +0.089 C 
ATOM     38  N   UNL A   1     -24.758  -1.481  32.646  0.00  0.00    -0.217 NA
ENDBRANCH  27  34
ENDBRANCH  26  27
ENDBRANCH   7  26
BRANCH   3  39
ATOM     39  N   UNL A   1     -24.740   2.156  29.599  0.00  0.00    -0.176 NA
BRANCH  39  40
ATOM     40  C   UNL A   1     -25.131   3.071  30.544  0.00  0.00    +0.092 C 
BRANCH  40  41
ATOM     41  C   UNL A   1     -25.891   3.948  31.331  0.00  0.00    +0.019 C 
ATOM     42  C   UNL A   1     -25.067   4.697  32.292  0.00  0.00    +0.002 C 
ENDBRANCH  40  41
ENDBRANCH  39  40
ENDBRANCH   3  39
TORSDOF 13
