REMARK  Name = outputs/IAG933/test6/raw/output_1421_IAG933_linker_design_.xyz
REMARK  12 active torsions:
REMARK  status: ('A' for Active; 'I' for Inactive)
REMARK    1  A    between atoms: C_1  and  C_2
REMARK    2  A    between atoms: C_1  and  C_8
REMARK    3  A    between atoms: C_1  and  N_29
REMARK    4  A    between atoms: C_13  and  N_37
REMARK    5  A    between atoms: C_14  and  C_15
REMARK    6  A    between atoms: C_21  and  O_22
REMARK    7  A    between atoms: O_22  and  C_23
REMARK    8  A    between atoms: C_23  and  C_24
REMARK    9  A    between atoms: N_29  and  C_35
REMARK   10  A    between atoms: C_30  and  N_37
REMARK   11  A    between atoms: C_31  and  O_34
REMARK   12  A    between atoms: C_31  and  C_38
REMARK                            x       y       z     vdW  Elec       q    Type
REMARK                         _______ _______ _______ _____ _____    ______ ____
ROOT
ATOM      1  C   UNL A   1     -22.602   0.022  29.380  0.00  0.00    +0.047 C 
ATOM      2  C   UNL A   1     -23.741   1.059  27.612  0.00  0.00    +0.063 C 
ATOM      3  C   UNL A   1     -20.550  -0.646  28.739  0.00  0.00    -0.009 C 
ATOM      4  C   UNL A   1     -23.763   0.354  28.768  0.00  0.00    +0.128 C 
ATOM      5  C   UNL A   1     -21.523   0.844  27.391  0.00  0.00    +0.056 C 
ATOM      6  C   UNL A   1     -22.648   1.290  26.817  0.00  0.00    +0.073 C 
ATOM      7  C   UNL A   1     -21.594   0.131  28.531  0.00  0.00    -0.038 C 
ENDROOT
BRANCH   4   8
ATOM      8  N   UNL A   1     -24.831  -0.175  29.099  0.00  0.00    -0.125 NA
ATOM      9  O   UNL A   1     -25.948  -0.226  28.596  0.00  0.00    -0.117 OA
BRANCH   8  10
ATOM     10  C   UNL A   1     -24.855  -1.012  30.143  0.00  0.00    +0.126 C 
BRANCH  10  11
ATOM     11  C   UNL A   1     -24.973  -2.505  29.788  0.00  0.00    -0.004 C 
ATOM     12  C   UNL A   1     -23.906  -3.173  29.146  0.00  0.00    -0.003 C 
ATOM     13  C   UNL A   1     -23.989  -4.549  28.853  0.00  0.00    -0.000 C 
ATOM     14  C   UNL A   1     -25.137  -5.280  29.205  0.00  0.00    -0.000 C 
ATOM     15  C   UNL A   1     -26.232  -4.611  29.784  0.00  0.00    -0.000 C 
ATOM     16  C   UNL A   1     -26.155  -3.232  30.065  0.00  0.00    -0.003 C 
ENDBRANCH  10  11
BRANCH  10  17
ATOM     17  C   UNL A   1     -25.387  -0.679  31.571  0.00  0.00    +0.094 C 
ATOM     18  C   UNL A   1     -25.189   0.773  32.028  0.00  0.00    +0.021 C 
ATOM     19  C   UNL A   1     -25.336   0.684  33.544  0.00  0.00    +0.020 C 
ATOM     20  C   UNL A   1     -24.829  -0.715  33.905  0.00  0.00    +0.089 C 
ATOM     21  N   UNL A   1     -24.758  -1.481  32.646  0.00  0.00    -0.218 NA
ENDBRANCH  10  17
ENDBRANCH   8  10
ENDBRANCH   4   8
BRANCH   6  22
ATOM     22  C   UNL A   1     -22.634   1.831  25.445  0.00  0.00    +0.375 C 
ATOM     23  O   UNL A   1     -21.766   2.792  25.218  0.00  0.00    -0.242 OA
BRANCH  22  24
ATOM     24  O   UNL A   1     -23.419   1.468  24.406  0.00  0.00    -0.260 OA
ATOM     25  O   UNL A   1     -24.212   0.544  24.387  0.00  0.00    +0.032 OA
ENDBRANCH  22  24
ENDBRANCH   6  22
BRANCH   2  26
ATOM     26  N   UNL A   1     -24.895   1.327  27.349  0.00  0.00    -0.234 NA
BRANCH  26  27
ATOM     27  C   UNL A   1     -25.688   1.614  26.461  0.00  0.00    +0.162 C 
ATOM     28  C   UNL A   1     -26.250   2.920  26.395  0.00  0.00    +0.075 C 
ATOM     29  C   UNL A   1     -27.438   3.091  25.645  0.00  0.00    +0.104 C 
ATOM     30  N   UNL A   1     -28.075   2.089  25.003  0.00  0.00    -0.212 NA
ATOM     31  C   UNL A   1     -27.543   0.849  25.079  0.00  0.00    +0.236 C 
ATOM     32  C   UNL A   1     -26.354   0.576  25.777  0.00  0.00    +0.260 C 
ATOM     33  F   UNL A   1     -25.860  -0.681  25.795  0.00  0.00    -0.225 F 
BRANCH  28  34
ATOM     34  C   UNL A   1     -25.642   4.093  27.123  0.00  0.00    +0.264 C 
ATOM     35  N   UNL A   1     -25.614   5.252  26.449  0.00  0.00    -0.200 NA
ATOM     36  C   UNL A   1     -25.026   6.479  26.963  0.00  0.00    +0.139 C 
ATOM     37  O   UNL A   1     -25.143   3.966  28.243  0.00  0.00    -0.269 OA
ENDBRANCH  28  34
BRANCH  31  38
ATOM     38  O   UNL A   1     -28.193  -0.208  24.477  0.00  0.00    -0.459 OA
BRANCH  38  39
ATOM     39  C   UNL A   1     -29.460   0.005  23.866  0.00  0.00    +0.242 C 
BRANCH  39  40
ATOM     40  C   UNL A   1     -30.065  -1.377  23.573  0.00  0.00    +0.229 C 
ATOM     41  O   UNL A   1     -30.729  -1.878  24.721  0.00  0.00    -0.216 OA
ENDBRANCH  39  40
ENDBRANCH  38  39
ENDBRANCH  31  38
ENDBRANCH  26  27
ENDBRANCH   2  26
TORSDOF 12
