MODEL 1421
MODEL 1
REMARK VINA RESULT:    -6.528      0.000      0.000
REMARK INTER + INTRA:          -7.236
REMARK INTER:                  -6.909
REMARK INTRA:                  -0.326
REMARK UNBOUND:                -0.326
REMARK  Name = No_1421-gen_results/8p0m/2024-11-27-11-27-31/
REMARK  1 active torsions:
REMARK  status: ('A' for Active; 'I' for Inactive)
REMARK    1  A    between atoms: C_3  and  C_7
REMARK                            x       y       z     vdW  Elec       q    Type
REMARK                         _______ _______ _______ _____ _____    ______ ____
ROOT
ATOM      1  C   UNL A   1     -21.668   0.018  28.916  0.00  0.00    +0.000 A 
ATOM      2  C   UNL A   1     -22.272  -0.972  29.257  0.00  0.00    +0.000 A 
ATOM      3  C   UNL A   1     -23.543  -1.301  28.787  0.00  0.00    +0.000 A 
ATOM      4  C   UNL A   1     -24.219  -0.389  27.884  0.00  0.00    +0.000 A 
ATOM      5  C   UNL A   1     -23.495   0.750  27.533  0.00  0.00    +0.000 A 
ATOM      6  C   UNL A   1     -22.299   0.988  28.036  0.00  0.00    +0.000 A 
ENDROOT
BRANCH   3   7
ATOM      7  C   UNL A   1     -24.344  -2.504  29.153  0.00  0.00    +0.000 A 
ATOM      8  C   UNL A   1     -25.589  -2.467  29.568  0.00  0.00    +0.000 A 
ATOM      9  C   UNL A   1     -26.306  -3.645  29.878  0.00  0.00    +0.000 A 
ATOM     10  C   UNL A   1     -25.806  -4.880  29.376  0.00  0.00    +0.000 A 
ATOM     11  C   UNL A   1     -23.891  -3.822  28.787  0.00  0.00    +0.000 A 
ATOM     12  C   UNL A   1     -24.594  -4.936  28.922  0.00  0.00    +0.000 A 
ENDBRANCH   3   7
TORSDOF 1
ENDMDL
ENDMDL
