MODEL 1422
MODEL 1
REMARK VINA RESULT:    -7.031      0.000      0.000
REMARK INTER + INTRA:          -8.345
REMARK INTER:                  -7.853
REMARK INTRA:                  -0.492
REMARK UNBOUND:                -0.492
REMARK  Name = No_1422-gen_results/8p0m/2024-11-27-11-27-31/
REMARK  2 active torsions:
REMARK  status: ('A' for Active; 'I' for Inactive)
REMARK    1  A    between atoms: C_4  and  C_7
REMARK    2  A    between atoms: C_7  and  C_8
REMARK                            x       y       z     vdW  Elec       q    Type
REMARK                         _______ _______ _______ _____ _____    ______ ____
ROOT
ATOM      1  C   UNL A   1     -24.931  -1.212  29.181  0.00  0.00    +0.053 C 
ENDROOT
BRANCH   1   2
ATOM      2  C   UNL A   1     -24.423  -0.700  27.951  0.00  0.00    -0.018 A 
ATOM      3  C   UNL A   1     -25.335  -0.244  26.977  0.00  0.00    -0.004 A 
ATOM      4  C   UNL A   1     -24.900   0.475  25.855  0.00  0.00    -0.001 A 
ATOM      5  C   UNL A   1     -23.817   1.418  26.195  0.00  0.00    -0.004 A 
ATOM      6  C   UNL A   1     -22.943   1.090  27.200  0.00  0.00    -0.022 A 
ATOM      7  C   UNL A   1     -23.429   0.382  28.315  0.00  0.00    -0.008 A 
ATOM      8  C   UNL A   1     -21.729   1.846  27.402  0.00  0.00    +0.031 C 
ENDBRANCH   1   2
BRANCH   1  12
ATOM      9  C   UNL A   1     -24.252  -4.981  28.807  0.00  0.00    -0.000 A 
ATOM     10  C   UNL A   1     -25.201  -5.297  29.141  0.00  0.00    -0.000 A 
ATOM     11  C   UNL A   1     -24.053  -3.484  28.736  0.00  0.00    -0.004 A 
ATOM     12  C   UNL A   1     -25.056  -2.628  29.239  0.00  0.00    -0.018 A 
ATOM     13  C   UNL A   1     -26.379  -4.632  29.742  0.00  0.00    -0.000 A 
ATOM     14  C   UNL A   1     -26.230  -3.253  29.699  0.00  0.00    -0.004 A 
ENDBRANCH   1  12
TORSDOF 2
ENDMDL
ENDMDL
