MODEL 1423
MODEL 1
REMARK VINA RESULT:    -8.406      0.000      0.000
REMARK INTER + INTRA:         -13.215
REMARK INTER:                 -11.846
REMARK INTRA:                  -1.369
REMARK UNBOUND:                -1.369
REMARK  Name = No_1423-gen_results/8p0m/2024-11-27-11-27-31/
REMARK  7 active torsions:
REMARK  status: ('A' for Active; 'I' for Inactive)
REMARK    1  A    between atoms: C_3  and  C_7
REMARK    2  A    between atoms: C_4  and  C_15
REMARK    3  A    between atoms: C_7  and  C_8
REMARK    4  A    between atoms: C_12  and  C_18
REMARK    5  A    between atoms: C_18  and  C_19
REMARK    6  A    between atoms: C_19  and  C_20
REMARK    7  A    between atoms: C_21  and  C_22
REMARK                            x       y       z     vdW  Elec       q    Type
REMARK                         _______ _______ _______ _____ _____    ______ ____
ROOT
ATOM      1  C   UNL A   1     -23.210   0.004  29.002  0.00  0.00    -0.018 A 
ATOM      2  C   UNL A   1     -22.050   0.674  28.729  0.00  0.00    -0.003 A 
ATOM      3  C   UNL A   1     -21.924   1.533  27.636  0.00  0.00    +0.011 A 
ATOM      4  C   UNL A   1     -22.895   1.606  26.632  0.00  0.00    +0.054 A 
ATOM      5  C   UNL A   1     -24.087   0.858  26.858  0.00  0.00    -0.012 A 
ATOM      6  C   UNL A   1     -24.213   0.056  27.958  0.00  0.00    -0.007 A 
ATOM      7 CL   UNL A   1     -22.686   2.411  25.185  0.00  0.00    -0.083 Cl
ENDROOT
BRANCH   1   8
ATOM      8  C   UNL A   1     -23.285  -0.969  30.067  0.00  0.00    +0.053 C 
BRANCH   8  11
ATOM      9  C   UNL A   1     -23.753  -3.224  28.999  0.00  0.00    -0.004 A 
ATOM     10  C   UNL A   1     -24.400  -4.048  28.887  0.00  0.00    -0.000 A 
ATOM     11  C   UNL A   1     -24.247  -2.135  29.792  0.00  0.00    -0.011 A 
ATOM     12  C   UNL A   1     -25.506  -2.067  30.236  0.00  0.00    +0.076 A 
ATOM     13  C   UNL A   1     -26.299  -3.151  29.979  0.00  0.00    +0.006 A 
ATOM     14  C   UNL A   1     -25.762  -4.212  29.251  0.00  0.00    +0.000 A 
BRANCH  12  15
ATOM     15  C   UNL A   1     -26.014  -0.947  30.963  0.00  0.00    +0.388 C 
ATOM     16  O   UNL A   1     -26.742  -0.160  30.559  0.00  0.00    -0.241 OA
ATOM     17  O   UNL A   1     -25.917  -1.147  32.355  0.00  0.00    -0.241 OA
ENDBRANCH  12  15
ENDBRANCH   8  11
ENDBRANCH   1   8
BRANCH   5  18
ATOM     18  C   UNL A   1     -25.040   1.115  25.727  0.00  0.00    +0.032 C 
BRANCH  18  19
ATOM     19  C   UNL A   1     -25.122   0.067  24.798  0.00  0.00    +0.031 C 
BRANCH  19  20
ATOM     20  C   UNL A   1     -26.327  -0.400  24.342  0.00  0.00    -0.026 C 
ATOM     21  C   UNL A   1     -27.349   0.543  23.895  0.00  0.00    -0.005 C 
BRANCH  21  22
ATOM     22  C   UNL A   1     -28.703   0.214  23.764  0.00  0.00    -0.000 A 
ATOM     23  C   UNL A   1     -29.084  -1.122  23.767  0.00  0.00    -0.000 A 
ATOM     24  C   UNL A   1     -30.453  -1.480  23.629  0.00  0.00    -0.000 A 
ATOM     25  C   UNL A   1     -31.375  -0.448  23.332  0.00  0.00    -0.000 A 
ATOM     26  C   UNL A   1     -30.977   0.875  23.248  0.00  0.00    -0.000 A 
ATOM     27  C   UNL A   1     -29.646   1.187  23.445  0.00  0.00    -0.000 A 
ENDBRANCH  21  22
ENDBRANCH  19  20
ENDBRANCH  18  19
ENDBRANCH   5  18
TORSDOF 7
ENDMDL
ENDMDL
