REMARK  Name = outputs/IAG933/test6/raw/output_1423_IAG933_linker_design_.xyz
REMARK  10 active torsions:
REMARK  status: ('A' for Active; 'I' for Inactive)
REMARK    1  A    between atoms: C_1  and  C_2
REMARK    2  A    between atoms: C_1  and  C_8
REMARK    3  A    between atoms: C_1  and  N_39
REMARK    4  A    between atoms: C_13  and  C_38
REMARK    5  A    between atoms: C_14  and  C_15
REMARK    6  A    between atoms: C_21  and  O_22
REMARK    7  A    between atoms: O_22  and  C_23
REMARK    8  A    between atoms: C_23  and  C_24
REMARK    9  A    between atoms: C_31  and  N_36
REMARK   10  A    between atoms: N_36  and  C_41
REMARK                            x       y       z     vdW  Elec       q    Type
REMARK                         _______ _______ _______ _____ _____    ______ ____
ROOT
ATOM      1  C   UNL A   1     -22.753   0.189  28.916  0.00  0.00    +0.090 C 
ATOM      2  C   UNL A   1     -25.279   0.853  28.645  0.00  0.00    +0.152 C 
ATOM      3  C   UNL A   1     -22.602   1.394  27.905  0.00  0.00    +0.096 C 
ATOM      4  C   UNL A   1     -23.374   1.318  26.711  0.00  0.00    +0.021 C 
ATOM      5  C   UNL A   1     -24.807   1.247  27.430  0.00  0.00    +0.044 C 
ATOM      6  N   UNL A   1     -24.396   0.016  29.242  0.00  0.00    -0.252 NA
ATOM      7 CL   UNL A   1     -20.950   1.577  27.602  0.00  0.00    -0.114 Cl
ENDROOT
BRANCH   5   8
ATOM      8  C   UNL A   1     -25.688   1.614  26.461  0.00  0.00    +0.073 C 
ATOM      9  C   UNL A   1     -26.250   2.920  26.395  0.00  0.00    +0.055 C 
ATOM     10  C   UNL A   1     -27.438   3.091  25.645  0.00  0.00    +0.102 C 
ATOM     11  N   UNL A   1     -28.075   2.089  25.003  0.00  0.00    -0.212 NA
ATOM     12  C   UNL A   1     -27.543   0.849  25.079  0.00  0.00    +0.234 C 
ATOM     13  C   UNL A   1     -26.354   0.576  25.777  0.00  0.00    +0.240 C 
ATOM     14  F   UNL A   1     -25.860  -0.681  25.795  0.00  0.00    -0.227 F 
BRANCH   9  15
ATOM     15  C   UNL A   1     -25.642   4.093  27.123  0.00  0.00    +0.262 C 
ATOM     16  N   UNL A   1     -25.614   5.252  26.449  0.00  0.00    -0.200 NA
ATOM     17  C   UNL A   1     -25.026   6.479  26.963  0.00  0.00    +0.139 C 
ATOM     18  O   UNL A   1     -25.143   3.966  28.243  0.00  0.00    -0.269 OA
ENDBRANCH   9  15
BRANCH  12  19
ATOM     19  O   UNL A   1     -28.193  -0.208  24.477  0.00  0.00    -0.459 OA
BRANCH  19  20
ATOM     20  C   UNL A   1     -29.460   0.005  23.866  0.00  0.00    +0.242 C 
BRANCH  20  21
ATOM     21  C   UNL A   1     -30.065  -1.377  23.573  0.00  0.00    +0.229 C 
ATOM     22  O   UNL A   1     -30.729  -1.878  24.721  0.00  0.00    -0.216 OA
ENDBRANCH  20  21
ENDBRANCH  19  20
ENDBRANCH  12  19
ENDBRANCH   5   8
BRANCH   6  23
ATOM     23  C   UNL A   1     -24.855  -1.012  30.143  0.00  0.00    +0.098 C 
BRANCH  23  24
ATOM     24  C   UNL A   1     -24.973  -2.505  29.788  0.00  0.00    -0.006 C 
ATOM     25  C   UNL A   1     -23.906  -3.173  29.146  0.00  0.00    -0.003 C 
ATOM     26  C   UNL A   1     -23.989  -4.549  28.853  0.00  0.00    -0.000 C 
ATOM     27  C   UNL A   1     -25.137  -5.280  29.205  0.00  0.00    -0.000 C 
ATOM     28  C   UNL A   1     -26.232  -4.611  29.784  0.00  0.00    -0.000 C 
ATOM     29  C   UNL A   1     -26.155  -3.232  30.065  0.00  0.00    -0.003 C 
ENDBRANCH  23  24
BRANCH  23  30
ATOM     30  C   UNL A   1     -25.387  -0.679  31.571  0.00  0.00    +0.092 C 
ATOM     31  C   UNL A   1     -25.189   0.773  32.028  0.00  0.00    +0.021 C 
ATOM     32  C   UNL A   1     -25.336   0.684  33.544  0.00  0.00    +0.020 C 
ATOM     33  C   UNL A   1     -24.829  -0.715  33.905  0.00  0.00    +0.089 C 
ATOM     34  N   UNL A   1     -24.758  -1.481  32.646  0.00  0.00    -0.218 NA
ENDBRANCH  23  30
ENDBRANCH   6  23
BRANCH   2  35
ATOM     35  N   UNL A   1     -26.503   1.432  29.222  0.00  0.00    -0.218 NA
BRANCH  35  42
ATOM     36  C   UNL A   1     -29.729  -0.066  28.030  0.00  0.00    +0.043 C 
ATOM     37  C   UNL A   1     -30.068   2.274  28.718  0.00  0.00    +0.020 C 
ATOM     38  N   UNL A   1     -28.475   3.241  30.359  0.00  0.00    -0.127 NA
ATOM     39  C   UNL A   1     -28.489  -0.126  28.688  0.00  0.00    +0.212 C 
ATOM     40  C   UNL A   1     -28.821   2.252  29.391  0.00  0.00    +0.107 C 
ATOM     41  O   UNL A   1     -27.752  -1.182  28.968  0.00  0.00    -0.285 OA
ATOM     42  C   UNL A   1     -27.910   1.198  29.152  0.00  0.00    +0.122 C 
ATOM     43  C   UNL A   1     -30.498   1.126  28.020  0.00  0.00    +0.005 C 
ENDBRANCH  35  42
ENDBRANCH   2  35
TORSDOF 10
