REMARK  Name = No_1424-gen_results/8p0m/2024-11-27-11-27-31/
REMARK  3 active torsions:
REMARK  status: ('A' for Active; 'I' for Inactive)
REMARK    1  A    between atoms: C_2  and  C_20
REMARK    2  A    between atoms: C_3  and  C_7
REMARK    3  A    between atoms: C_10  and  C_13
REMARK                            x       y       z     vdW  Elec       q    Type
REMARK                         _______ _______ _______ _____ _____    ______ ____
ROOT
ATOM      1  C   UNL A   1     -26.399   0.295  27.228  0.00  0.00    +0.028 A 
ATOM      2  C   UNL A   1     -26.902   0.728  26.213  0.00  0.00    +0.140 A 
ATOM      3  C   UNL A   1     -26.175   0.636  24.926  0.00  0.00    +0.030 A 
ATOM      4  C   UNL A   1     -25.077  -0.207  27.239  0.00  0.00    +0.002 A 
ATOM      5  C   UNL A   1     -24.265  -0.122  26.150  0.00  0.00    +0.000 A 
ATOM      6  C   UNL A   1     -24.875   0.282  24.927  0.00  0.00    +0.002 A 
ATOM      7  F   UNL A   1     -28.203   1.081  26.001  0.00  0.00    -0.204 F 
ENDROOT
BRANCH   1  10
ATOM      8  C   UNL A   1     -28.016  -0.814  28.878  0.00  0.00    +0.007 A 
ATOM      9  C   UNL A   1     -28.469  -0.785  29.829  0.00  0.00    +0.080 A 
ATOM     10  C   UNL A   1     -27.136   0.236  28.535  0.00  0.00    +0.002 A 
ATOM     11  C   UNL A   1     -26.875   1.282  29.398  0.00  0.00    +0.000 A 
ATOM     12  C   UNL A   1     -28.361   0.199  30.924  0.00  0.00    +0.007 A 
ATOM     13  C   UNL A   1     -27.528   1.223  30.636  0.00  0.00    +0.000 A 
BRANCH   9  14
ATOM     14  C   UNL A   1     -29.454  -1.950  30.309  0.00  0.00    +0.388 C 
ATOM     15  O   UNL A   1     -29.092  -2.993  30.362  0.00  0.00    -0.241 OA
ATOM     16  O   UNL A   1     -30.703  -1.703  30.579  0.00  0.00    -0.241 OA
ENDBRANCH   9  14
ENDBRANCH   1  10
BRANCH   4  17
ATOM     17  C   UNL A   1     -24.404  -0.659  28.503  0.00  0.00    +0.000 A 
ATOM     18  C   UNL A   1     -24.275  -1.886  28.914  0.00  0.00    +0.000 A 
ATOM     19  C   UNL A   1     -23.644  -2.201  30.128  0.00  0.00    +0.000 A 
ATOM     20  C   UNL A   1     -23.367  -1.143  31.029  0.00  0.00    +0.000 A 
ATOM     21  C   UNL A   1     -24.041   0.367  29.525  0.00  0.00    +0.000 A 
ATOM     22  C   UNL A   1     -23.512   0.131  30.701  0.00  0.00    +0.000 A 
ENDBRANCH   4  17
TORSDOF 3
