MODEL 1424
MODEL 1
REMARK VINA RESULT:    -7.619      0.000      0.000
REMARK INTER + INTRA:         -10.318
REMARK INTER:                  -8.955
REMARK INTRA:                  -1.363
REMARK UNBOUND:                -1.363
REMARK  Name = No_1424-gen_results/8p0m/2024-11-27-11-27-31/
REMARK  3 active torsions:
REMARK  status: ('A' for Active; 'I' for Inactive)
REMARK    1  A    between atoms: C_2  and  C_20
REMARK    2  A    between atoms: C_3  and  C_7
REMARK    3  A    between atoms: C_10  and  C_13
REMARK                            x       y       z     vdW  Elec       q    Type
REMARK                         _______ _______ _______ _____ _____    ______ ____
ROOT
ATOM      1  C   UNL A   1     -23.415  -0.021  28.162  0.00  0.00    +0.028 A 
ATOM      2  C   UNL A   1     -22.321   0.163  28.652  0.00  0.00    +0.140 A 
ATOM      3  C   UNL A   1     -21.472   1.280  28.176  0.00  0.00    +0.030 A 
ATOM      4  C   UNL A   1     -23.867   0.744  27.062  0.00  0.00    +0.002 A 
ATOM      5  C   UNL A   1     -23.062   1.637  26.425  0.00  0.00    +0.000 A 
ATOM      6  C   UNL A   1     -21.820   1.940  27.055  0.00  0.00    +0.002 A 
ATOM      7  F   UNL A   1     -21.815  -0.362  29.805  0.00  0.00    -0.204 F 
ENDROOT
BRANCH   1  10
ATOM      8  C   UNL A   1     -24.174  -2.438  28.545  0.00  0.00    +0.007 A 
ATOM      9  C   UNL A   1     -24.889  -3.085  28.971  0.00  0.00    +0.080 A 
ATOM     10  C   UNL A   1     -24.376  -1.048  28.689  0.00  0.00    +0.002 A 
ATOM     11  C   UNL A   1     -25.473  -0.533  29.350  0.00  0.00    +0.000 A 
ATOM     12  C   UNL A   1     -26.129  -2.800  29.719  0.00  0.00    +0.007 A 
ATOM     13  C   UNL A   1     -26.361  -1.479  29.878  0.00  0.00    +0.000 A 
BRANCH   9  14
ATOM     14  C   UNL A   1     -24.721  -4.673  28.881  0.00  0.00    +0.388 C 
ATOM     15  O   UNL A   1     -25.345  -5.331  29.513  0.00  0.00    -0.241 OA
ATOM     16  O   UNL A   1     -23.812  -5.209  28.120  0.00  0.00    -0.241 OA
ENDBRANCH   9  14
ENDBRANCH   1  10
BRANCH   4  17
ATOM     17  C   UNL A   1     -25.177   0.468  26.381  0.00  0.00    +0.000 A 
ATOM     18  C   UNL A   1     -25.378  -0.357  25.395  0.00  0.00    +0.000 A 
ATOM     19  C   UNL A   1     -26.644  -0.526  24.814  0.00  0.00    +0.000 A 
ATOM     20  C   UNL A   1     -27.661   0.403  25.149  0.00  0.00    +0.000 A 
ATOM     21  C   UNL A   1     -26.335   1.365  26.669  0.00  0.00    +0.000 A 
ATOM     22  C   UNL A   1     -27.519   1.300  26.111  0.00  0.00    +0.000 A 
ENDBRANCH   4  17
TORSDOF 3
ENDMDL
ENDMDL
