MODEL 1425
MODEL 1
REMARK VINA RESULT:    -4.839      0.000      0.000
REMARK INTER + INTRA:          -5.944
REMARK INTER:                  -5.687
REMARK INTRA:                  -0.257
REMARK UNBOUND:                -0.257
REMARK  Name = No_1425-gen_results/8p0m/2024-11-27-11-27-31/
REMARK  3 active torsions:
REMARK  status: ('A' for Active; 'I' for Inactive)
REMARK    1  A    between atoms: C_3  and  C_7
REMARK    2  A    between atoms: C_7  and  N_8
REMARK    3  A    between atoms: N_8  and  C_9
REMARK                            x       y       z     vdW  Elec       q    Type
REMARK                         _______ _______ _______ _____ _____    ______ ____
ROOT
ATOM      1  C   UNL A   1     -23.875  -3.815  28.533  0.00  0.00    -0.003 A 
ATOM      2  C   UNL A   1     -24.230  -4.793  28.696  0.00  0.00    -0.000 A 
ATOM      3  C   UNL A   1     -24.684  -2.740  28.963  0.00  0.00    -0.001 A 
ATOM      4  C   UNL A   1     -25.909  -2.944  29.567  0.00  0.00    -0.003 A 
ATOM      5  C   UNL A   1     -25.480  -5.280  29.311  0.00  0.00    -0.000 A 
ATOM      6  C   UNL A   1     -26.286  -4.282  29.736  0.00  0.00    -0.000 A 
ENDROOT
BRANCH   3   7
ATOM      7  C   UNL A   1     -24.275  -1.300  28.836  0.00  0.00    +0.139 C 
BRANCH   7   8
ATOM      8  N   UNL A   1     -22.993  -0.992  29.025  0.00  0.00    -0.232 NA
BRANCH   8   9
ATOM      9  C   UNL A   1     -22.520  -0.329  30.005  0.00  0.00    +0.081 C 
ATOM     10  C   UNL A   1     -22.843  -0.722  31.408  0.00  0.00    +0.019 C 
ENDBRANCH   8   9
ENDBRANCH   7   8
ENDBRANCH   3   7
TORSDOF 3
ENDMDL
ENDMDL
