REMARK  Name = No_1426-gen_results/8p0m/2024-11-27-11-27-31/
REMARK  0 active torsions:
REMARK  status: ('A' for Active; 'I' for Inactive)
REMARK                            x       y       z     vdW  Elec       q    Type
REMARK                         _______ _______ _______ _____ _____    ______ ____
ROOT
ATOM      1  C   UNL A   1     -28.016  -0.814  28.878  0.00  0.00    +0.005 A 
ATOM      2  C   UNL A   1     -27.064  -0.119  28.608  0.00  0.00    +0.058 A 
ATOM      3  C   UNL A   1     -25.792  -0.430  29.076  0.00  0.00    +0.006 A 
ATOM      4  C   UNL A   1     -25.576  -1.565  29.936  0.00  0.00    +0.000 A 
ATOM      5  C   UNL A   1     -26.735  -2.300  30.217  0.00  0.00    +0.000 A 
ATOM      6  C   UNL A   1     -27.918  -1.954  29.763  0.00  0.00    +0.000 A 
ATOM      7  C   UNL A   1     -27.106   1.102  27.759  0.00  0.00    +0.279 A 
ATOM      8  N   UNL A   1     -26.235   1.456  27.015  0.00  0.00    -0.208 NA
ATOM      9  O   UNL A   1     -28.218   1.753  27.718  0.00  0.00    -0.265 OA
ATOM     10  C   UNL A   1     -24.860   0.927  27.019  0.00  0.00    +0.085 A 
ATOM     11  C   UNL A   1     -23.832   1.739  26.483  0.00  0.00    +0.019 A 
ATOM     12  C   UNL A   1     -23.015   2.527  27.222  0.00  0.00    +0.002 A 
ATOM     13  C   UNL A   1     -22.651   1.956  28.468  0.00  0.00    +0.000 A 
ATOM     14  C   UNL A   1     -23.300   0.868  29.024  0.00  0.00    +0.002 A 
ATOM     15  C   UNL A   1     -24.511   0.487  28.354  0.00  0.00    +0.018 A 
ENDROOT
TORSDOF 0
