MODEL 1426
MODEL 1
REMARK VINA RESULT:    -6.513      0.000      0.000
REMARK INTER + INTRA:          -6.513
REMARK INTER:                  -6.513
REMARK INTRA:                   0.000
REMARK UNBOUND:                 0.000
REMARK  Name = No_1426-gen_results/8p0m/2024-11-27-11-27-31/
REMARK  0 active torsions:
REMARK  status: ('A' for Active; 'I' for Inactive)
REMARK                            x       y       z     vdW  Elec       q    Type
REMARK                         _______ _______ _______ _____ _____    ______ ____
ROOT
ATOM      1  C   UNL A   1     -26.184  -4.517  29.736  0.00  0.00    +0.005 A 
ATOM      2  C   UNL A   1     -25.520  -3.579  29.360  0.00  0.00    +0.058 A 
ATOM      3  C   UNL A   1     -25.977  -2.273  29.503  0.00  0.00    +0.006 A 
ATOM      4  C   UNL A   1     -27.276  -2.000  30.061  0.00  0.00    +0.000 A 
ATOM      5  C   UNL A   1     -27.986  -3.144  30.448  0.00  0.00    +0.000 A 
ATOM      6  C   UNL A   1     -27.516  -4.358  30.276  0.00  0.00    +0.000 A 
ATOM      7  C   UNL A   1     -24.173  -3.676  28.737  0.00  0.00    +0.279 A 
ATOM      8  N   UNL A   1     -23.285  -2.884  28.886  0.00  0.00    -0.208 NA
ATOM      9  O   UNL A   1     -23.894  -4.762  28.101  0.00  0.00    -0.265 OA
ATOM     10  C   UNL A   1     -23.448  -1.537  29.459  0.00  0.00    +0.085 A 
ATOM     11  C   UNL A   1     -22.491  -0.549  29.124  0.00  0.00    +0.019 A 
ATOM     12  C   UNL A   1     -22.654   0.374  28.146  0.00  0.00    +0.002 A 
ATOM     13  C   UNL A   1     -23.982   0.858  28.039  0.00  0.00    +0.000 A 
ATOM     14  C   UNL A   1     -25.067   0.240  28.635  0.00  0.00    +0.002 A 
ATOM     15  C   UNL A   1     -24.787  -1.052  29.193  0.00  0.00    +0.018 A 
ENDROOT
TORSDOF 0
ENDMDL
ENDMDL
