MODEL 1427
MODEL 1
REMARK VINA RESULT:    -4.350      0.000      0.000
REMARK INTER + INTRA:          -4.350
REMARK INTER:                  -4.350
REMARK INTRA:                   0.000
REMARK UNBOUND:                 0.000
REMARK  Name = No_1427-gen_results/8p0m/2024-11-27-11-27-31/
REMARK  0 active torsions:
REMARK  status: ('A' for Active; 'I' for Inactive)
REMARK                            x       y       z     vdW  Elec       q    Type
REMARK                         _______ _______ _______ _____ _____    ______ ____
ROOT
ATOM      1  C   UNL A   1     -25.386  -2.504  29.826  0.00  0.00    +0.011 A 
ATOM      2  C   UNL A   1     -24.349  -2.833  29.298  0.00  0.00    +0.058 A 
ATOM      3  C   UNL A   1     -24.078  -4.095  28.879  0.00  0.00    +0.011 A 
ATOM      4  C   UNL A   1     -25.059  -5.087  29.069  0.00  0.00    +0.001 A 
ATOM      5  C   UNL A   1     -26.469  -3.444  29.964  0.00  0.00    +0.001 A 
ATOM      6  C   UNL A   1     -26.237  -4.733  29.586  0.00  0.00    +0.000 A 
ATOM      7 CL   UNL A   1     -23.075  -1.681  29.007  0.00  0.00    -0.082 Cl
ENDROOT
TORSDOF 0
ENDMDL
ENDMDL
