MODEL 1428
MODEL 1
REMARK VINA RESULT:    -5.653      0.000      0.000
REMARK INTER + INTRA:          -6.635
REMARK INTER:                  -6.314
REMARK INTRA:                  -0.321
REMARK UNBOUND:                -0.321
REMARK  Name = No_1428-gen_results/8p0m/2024-11-27-11-27-31/
REMARK  2 active torsions:
REMARK  status: ('A' for Active; 'I' for Inactive)
REMARK    1  A    between atoms: C_3  and  C_7
REMARK    2  A    between atoms: C_8  and  C_9
REMARK                            x       y       z     vdW  Elec       q    Type
REMARK                         _______ _______ _______ _____ _____    ______ ____
ROOT
ATOM      1  C   UNL A   1     -21.931  -0.706  29.424  0.00  0.00    -0.000 A 
ATOM      2  C   UNL A   1     -21.378  -0.030  28.836  0.00  0.00    +0.000 A 
ATOM      3  C   UNL A   1     -23.334  -0.724  29.265  0.00  0.00    -0.000 A 
ATOM      4  C   UNL A   1     -23.980   0.119  28.382  0.00  0.00    -0.000 A 
ATOM      5  C   UNL A   1     -21.758   0.825  27.909  0.00  0.00    +0.000 A 
ATOM      6  C   UNL A   1     -23.106   0.938  27.641  0.00  0.00    +0.000 A 
ENDROOT
BRANCH   3   7
ATOM      7  C   UNL A   1     -24.259  -1.651  30.020  0.00  0.00    -0.000 C 
ATOM      8  C   UNL A   1     -24.473  -2.689  29.797  0.00  0.00    -0.000 C 
BRANCH   8   9
ATOM      9  C   UNL A   1     -23.787  -3.395  28.705  0.00  0.00    -0.005 C 
ATOM     10  C   UNL A   1     -24.099  -4.796  28.474  0.00  0.00    -0.026 C 
ATOM     11  C   UNL A   1     -25.130  -5.325  29.221  0.00  0.00    +0.031 C 
ENDBRANCH   8   9
ENDBRANCH   3   7
TORSDOF 2
ENDMDL
ENDMDL
