REMARK  Name = outputs/IAG933/test6/raw/output_1429_IAG933_linker_design_.xyz
REMARK  9 active torsions:
REMARK  status: ('A' for Active; 'I' for Inactive)
REMARK    1  A    between atoms: C_1  and  C_2
REMARK    2  A    between atoms: C_1  and  C_8
REMARK    3  A    between atoms: C_1  and  N_33
REMARK    4  A    between atoms: C_13  and  C_40
REMARK    5  A    between atoms: C_14  and  C_15
REMARK    6  A    between atoms: C_21  and  O_22
REMARK    7  A    between atoms: O_22  and  C_23
REMARK    8  A    between atoms: C_23  and  C_24
REMARK    9  A    between atoms: C_32  and  N_33
REMARK                            x       y       z     vdW  Elec       q    Type
REMARK                         _______ _______ _______ _____ _____    ______ ____
ROOT
ATOM      1  C   UNL A   1     -20.724  -0.151  28.717  0.00  0.00    +0.183 C 
ATOM      2  O   UNL A   1     -20.641   0.991  27.903  0.00  0.00    -0.314 OA
ATOM      3  C   UNL A   1     -21.765   1.502  27.212  0.00  0.00    +0.312 C 
ATOM      4  C   UNL A   1     -23.646   2.104  25.387  0.00  0.00    +0.036 C 
ATOM      5  C   UNL A   1     -23.173   0.672  28.875  0.00  0.00    +0.248 C 
ATOM      6  C   UNL A   1     -22.180  -0.536  29.004  0.00  0.00    +0.229 C 
ATOM      7  O   UNL A   1     -22.870   1.681  29.756  0.00  0.00    -0.200 OA
ATOM      8  C   UNL A   1     -22.363   2.561  25.290  0.00  0.00    +0.175 C 
ATOM      9  O   UNL A   1     -21.413   2.265  26.136  0.00  0.00    -0.446 OA
ATOM     10  C   UNL A   1     -23.097   1.190  27.522  0.00  0.00    +0.068 C 
ATOM     11  O   UNL A   1     -22.169  -0.983  30.401  0.00  0.00    -0.216 OA
ATOM     12  C   UNL A   1     -24.117   1.588  26.559  0.00  0.00    -0.010 C 
ENDROOT
BRANCH  12  13
ATOM     13  C   UNL A   1     -25.688   1.614  26.461  0.00  0.00    +0.092 C 
ATOM     14  C   UNL A   1     -26.250   2.920  26.395  0.00  0.00    +0.059 C 
ATOM     15  C   UNL A   1     -27.438   3.091  25.645  0.00  0.00    +0.102 C 
ATOM     16  N   UNL A   1     -28.075   2.089  25.003  0.00  0.00    -0.212 NA
ATOM     17  C   UNL A   1     -27.543   0.849  25.079  0.00  0.00    +0.234 C 
ATOM     18  C   UNL A   1     -26.354   0.576  25.777  0.00  0.00    +0.244 C 
ATOM     19  F   UNL A   1     -25.860  -0.681  25.795  0.00  0.00    -0.227 F 
BRANCH  14  20
ATOM     20  C   UNL A   1     -25.642   4.093  27.123  0.00  0.00    +0.263 C 
ATOM     21  N   UNL A   1     -25.614   5.252  26.449  0.00  0.00    -0.200 NA
ATOM     22  C   UNL A   1     -25.026   6.479  26.963  0.00  0.00    +0.139 C 
ATOM     23  O   UNL A   1     -25.143   3.966  28.243  0.00  0.00    -0.269 OA
ENDBRANCH  14  20
BRANCH  17  24
ATOM     24  O   UNL A   1     -28.193  -0.208  24.477  0.00  0.00    -0.459 OA
BRANCH  24  25
ATOM     25  C   UNL A   1     -29.460   0.005  23.866  0.00  0.00    +0.242 C 
BRANCH  25  26
ATOM     26  C   UNL A   1     -30.065  -1.377  23.573  0.00  0.00    +0.229 C 
ATOM     27  O   UNL A   1     -30.729  -1.878  24.721  0.00  0.00    -0.216 OA
ENDBRANCH  25  26
ENDBRANCH  24  25
ENDBRANCH  17  24
ENDBRANCH  12  13
BRANCH   5  28
ATOM     28  N   UNL A   1     -24.390  -0.079  29.229  0.00  0.00    -0.098 NA
ATOM     29  O   UNL A   1     -25.663   0.630  28.862  0.00  0.00    -0.115 OA
BRANCH  28  30
ATOM     30  C   UNL A   1     -24.855  -1.012  30.143  0.00  0.00    +0.128 C 
BRANCH  30  31
ATOM     31  C   UNL A   1     -24.973  -2.505  29.788  0.00  0.00    -0.004 C 
ATOM     32  C   UNL A   1     -23.906  -3.173  29.146  0.00  0.00    -0.003 C 
ATOM     33  C   UNL A   1     -23.989  -4.549  28.853  0.00  0.00    -0.000 C 
ATOM     34  C   UNL A   1     -25.137  -5.280  29.205  0.00  0.00    -0.000 C 
ATOM     35  C   UNL A   1     -26.232  -4.611  29.784  0.00  0.00    -0.000 C 
ATOM     36  C   UNL A   1     -26.155  -3.232  30.065  0.00  0.00    -0.003 C 
ENDBRANCH  30  31
BRANCH  30  37
ATOM     37  C   UNL A   1     -25.387  -0.679  31.571  0.00  0.00    +0.094 C 
ATOM     38  C   UNL A   1     -25.189   0.773  32.028  0.00  0.00    +0.021 C 
ATOM     39  C   UNL A   1     -25.336   0.684  33.544  0.00  0.00    +0.020 C 
ATOM     40  C   UNL A   1     -24.829  -0.715  33.905  0.00  0.00    +0.089 C 
ATOM     41  N   UNL A   1     -24.758  -1.481  32.646  0.00  0.00    -0.218 NA
ENDBRANCH  30  37
ENDBRANCH  28  30
ENDBRANCH   5  28
TORSDOF 9
