MODEL 1429
MODEL 1
REMARK VINA RESULT:    -7.024      0.000      0.000
REMARK INTER + INTRA:          -7.442
REMARK INTER:                  -7.434
REMARK INTRA:                  -0.007
REMARK UNBOUND:                -0.007
REMARK  Name = No_1429-gen_results/8p0m/2024-11-27-11-27-31/
REMARK  1 active torsions:
REMARK  status: ('A' for Active; 'I' for Inactive)
REMARK    1  A    between atoms: C_3  and  C_4
REMARK                            x       y       z     vdW  Elec       q    Type
REMARK                         _______ _______ _______ _____ _____    ______ ____
ROOT
ATOM      1  C   UNL A   1     -30.288 -14.196  29.160  0.00  0.00    +0.026 A 
ATOM      2  C   UNL A   1     -29.787 -13.789  30.182  0.00  0.00    +0.059 A 
ATOM      3  C   UNL A   1     -29.180 -12.580  30.301  0.00  0.00    +0.014 A 
ATOM      4  C   UNL A   1     -30.301 -13.334  27.963  0.00  0.00    +0.093 A 
ATOM      5  C   UNL A   1     -29.704 -12.148  27.985  0.00  0.00    +0.156 A 
ATOM      6  C   UNL A   1     -29.129 -11.708  29.169  0.00  0.00    +0.036 A 
ATOM      7 CL   UNL A   1     -31.086 -13.976  26.584  0.00  0.00    -0.079 Cl
ATOM      8 CL   UNL A   1     -29.832 -14.824  31.593  0.00  0.00    -0.082 Cl
ATOM      9  O   UNL A   1     -29.711 -11.366  26.888  0.00  0.00    -0.450 OA
ATOM     10  C   UNL A   1     -30.630 -10.470  26.677  0.00  0.00    +0.179 C 
ATOM     11  C   UNL A   1     -31.132  -9.856  27.562  0.00  0.00    +0.041 C 
ATOM     12  C   UNL A   1     -30.635  -9.728  28.901  0.00  0.00    +0.003 C 
ATOM     13  C   UNL A   1     -29.907 -10.737  29.634  0.00  0.00    +0.003 C 
ENDROOT
BRANCH   3  14
ATOM     14  C   UNL A   1     -28.565 -12.066  31.544  0.00  0.00    +0.004 A 
ATOM     15  C   UNL A   1     -29.397 -11.273  32.401  0.00  0.00    +0.040 A 
ATOM     16  C   UNL A   1     -28.898 -10.711  33.586  0.00  0.00    +0.176 A 
ATOM     17  C   UNL A   1     -27.289 -12.335  32.028  0.00  0.00    +0.003 A 
ATOM     18  C   UNL A   1     -26.862 -12.014  33.362  0.00  0.00    +0.040 A 
ATOM     19  C   UNL A   1     -27.694 -11.126  34.095  0.00  0.00    +0.176 A 
ATOM     20  O   UNL A   1     -29.670  -9.921  34.379  0.00  0.00    -0.435 OA
ATOM     21  C   UNL A   1     -28.795  -9.308  35.227  0.00  0.00    +0.429 C 
ATOM     22  O   UNL A   1     -27.626  -9.975  35.032  0.00  0.00    -0.435 OA
ENDBRANCH   3  14
TORSDOF 1
ENDMDL
ENDMDL
