MODEL 142
MODEL 1
REMARK VINA RESULT:    -5.265      0.000      0.000
REMARK INTER + INTRA:          -5.612
REMARK INTER:                  -5.573
REMARK INTRA:                  -0.039
REMARK UNBOUND:                -0.039
REMARK  Name = No_142-gen_results/8p0m/2024-11-27-11-27-31/
REMARK  1 active torsions:
REMARK  status: ('A' for Active; 'I' for Inactive)
REMARK    1  A    between atoms: C_6  and  C_8
REMARK                            x       y       z     vdW  Elec       q    Type
REMARK                         _______ _______ _______ _____ _____    ______ ____
ROOT
ATOM      1  C   UNL A   1     -29.191 -10.304  32.528  0.00  0.00    +0.007 A 
ATOM      2  C   UNL A   1     -29.708 -10.155  31.444  0.00  0.00    +0.012 A 
ATOM      3  C   UNL A   1     -29.431 -10.961  30.341  0.00  0.00    +0.058 A 
ATOM      4  C   UNL A   1     -28.678 -11.706  30.297  0.00  0.00    +0.012 A 
ATOM      5  C   UNL A   1     -27.891 -12.054  31.497  0.00  0.00    +0.007 A 
ATOM      6  C   UNL A   1     -28.123 -11.323  32.566  0.00  0.00    +0.080 A 
ATOM      7 CL   UNL A   1     -30.369 -10.560  28.838  0.00  0.00    -0.082 Cl
ENDROOT
BRANCH   6   8
ATOM      8  C   UNL A   1     -27.343 -11.634  33.795  0.00  0.00    +0.388 C 
ATOM      9  O   UNL A   1     -27.159 -10.820  34.720  0.00  0.00    -0.241 OA
ATOM     10  O   UNL A   1     -26.769 -12.754  33.901  0.00  0.00    -0.241 OA
ENDBRANCH   6   8
TORSDOF 1
ENDMDL
ENDMDL
