MODEL 1430
MODEL 1
REMARK VINA RESULT:    -6.557      0.000      0.000
REMARK INTER + INTRA:          -7.730
REMARK INTER:                  -7.323
REMARK INTRA:                  -0.407
REMARK UNBOUND:                -0.407
REMARK  Name = No_1430-gen_results/8p0m/2024-11-27-11-27-31/
REMARK  2 active torsions:
REMARK  status: ('A' for Active; 'I' for Inactive)
REMARK    1  A    between atoms: C_3  and  C_4
REMARK    2  A    between atoms: C_7  and  C_13
REMARK                            x       y       z     vdW  Elec       q    Type
REMARK                         _______ _______ _______ _____ _____    ______ ____
ROOT
ATOM      1  C   UNL A   1     -29.425 -10.088  32.428  0.00  0.00    +0.007 A 
ATOM      2  C   UNL A   1     -29.799 -10.112  31.278  0.00  0.00    +0.000 A 
ATOM      3  C   UNL A   1     -29.365 -11.052  30.345  0.00  0.00    +0.000 A 
ATOM      4  C   UNL A   1     -28.318 -11.005  32.835  0.00  0.00    +0.080 A 
ATOM      5  C   UNL A   1     -27.881 -12.015  32.023  0.00  0.00    +0.007 A 
ATOM      6  C   UNL A   1     -28.352 -12.080  30.683  0.00  0.00    +0.000 A 
ENDROOT
BRANCH   3   7
ATOM      7  C   UNL A   1     -29.758 -11.147  28.925  0.00  0.00    +0.000 A 
ATOM      8  C   UNL A   1     -30.665 -10.261  28.243  0.00  0.00    +0.000 A 
ATOM      9  C   UNL A   1     -30.958 -10.439  26.877  0.00  0.00    +0.000 A 
ATOM     10  C   UNL A   1     -30.171 -11.302  26.052  0.00  0.00    +0.000 A 
ATOM     11  C   UNL A   1     -29.068 -12.053  28.008  0.00  0.00    +0.000 A 
ATOM     12  C   UNL A   1     -29.296 -12.110  26.665  0.00  0.00    +0.000 A 
ENDBRANCH   3   7
BRANCH   4  13
ATOM     13  C   UNL A   1     -27.789 -10.972  34.217  0.00  0.00    +0.388 C 
ATOM     14  O   UNL A   1     -28.018 -10.146  34.906  0.00  0.00    -0.241 OA
ATOM     15  O   UNL A   1     -27.221 -12.131  34.628  0.00  0.00    -0.241 OA
ENDBRANCH   4  13
TORSDOF 2
ENDMDL
ENDMDL
