REMARK  Name = No_1431-gen_results/8p0m/2024-11-27-11-27-31/
REMARK  5 active torsions:
REMARK  status: ('A' for Active; 'I' for Inactive)
REMARK    1  A    between atoms: C_1  and  C_2
REMARK    2  A    between atoms: C_1  and  C_3
REMARK    3  A    between atoms: C_2  and  C_5
REMARK    4  A    between atoms: C_3  and  C_4
REMARK    5  A    between atoms: C_4  and  C_8
REMARK                            x       y       z     vdW  Elec       q    Type
REMARK                         _______ _______ _______ _____ _____    ______ ____
ROOT
ATOM      1  C   UNL A   1     -27.028   0.934  27.528  0.00  0.00    +0.022 C 
ATOM      2  C   UNL A   1     -27.120   1.613  26.309  0.00  0.00    +0.005 C 
ENDROOT
BRANCH   1   3
ATOM      3  C   UNL A   1     -25.868   0.796  28.251  0.00  0.00    -0.022 A 
ATOM      4  C   UNL A   1     -25.324   1.508  28.909  0.00  0.00    -0.004 A 
ATOM      5  C   UNL A   1     -24.015   1.335  29.587  0.00  0.00    -0.000 A 
ATOM      6  C   UNL A   1     -23.390   0.467  29.293  0.00  0.00    -0.000 A 
ATOM      7  C   UNL A   1     -23.773  -0.611  28.468  0.00  0.00    -0.000 A 
ATOM      8  C   UNL A   1     -25.066  -0.441  27.863  0.00  0.00    -0.004 A 
ENDBRANCH   1   3
BRANCH   1   9
ATOM      9  C   UNL A   1     -28.182   0.428  28.113  0.00  0.00    +0.005 C 
BRANCH   9  10
ATOM     10  C   UNL A   1     -28.016  -0.814  28.878  0.00  0.00    +0.009 C 
BRANCH  10  11
ATOM     11  C   UNL A   1     -28.469  -0.785  29.829  0.00  0.00    +0.101 C 
BRANCH  11  12
ATOM     12  C   UNL A   1     -29.865  -0.657  30.047  0.00  0.00    +0.390 C 
ATOM     13  F   UNL A   1     -30.249   0.481  29.549  0.00  0.00    -0.172 F 
ATOM     14  O   UNL A   1     -30.241  -0.738  31.455  0.00  0.00    -0.155 OA
ATOM     15  F   UNL A   1     -30.544  -1.633  29.469  0.00  0.00    -0.172 F 
ENDBRANCH  11  12
ENDBRANCH  10  11
ENDBRANCH   9  10
ENDBRANCH   1   9
TORSDOF 5
