MODEL 1431
MODEL 1
REMARK VINA RESULT:    -6.266      0.000      0.000
REMARK INTER + INTRA:          -8.923
REMARK INTER:                  -8.097
REMARK INTRA:                  -0.826
REMARK UNBOUND:                -0.826
REMARK  Name = No_1431-gen_results/8p0m/2024-11-27-11-27-31/
REMARK  5 active torsions:
REMARK  status: ('A' for Active; 'I' for Inactive)
REMARK    1  A    between atoms: C_1  and  C_2
REMARK    2  A    between atoms: C_1  and  C_3
REMARK    3  A    between atoms: C_2  and  C_5
REMARK    4  A    between atoms: C_3  and  C_4
REMARK    5  A    between atoms: C_4  and  C_8
REMARK                            x       y       z     vdW  Elec       q    Type
REMARK                         _______ _______ _______ _____ _____    ______ ____
ROOT
ATOM      1  C   UNL A   1     -24.794  -1.357  28.981  0.00  0.00    +0.022 C 
ATOM      2  C   UNL A   1     -24.693  -0.510  30.089  0.00  0.00    +0.005 C 
ENDROOT
BRANCH   1   3
ATOM      3  C   UNL A   1     -24.730  -2.728  29.047  0.00  0.00    -0.022 A 
ATOM      4  C   UNL A   1     -24.038  -3.454  28.567  0.00  0.00    -0.004 A 
ATOM      5  C   UNL A   1     -24.080  -4.938  28.594  0.00  0.00    -0.000 A 
ATOM      6  C   UNL A   1     -24.995  -5.423  28.993  0.00  0.00    -0.000 A 
ATOM      7  C   UNL A   1     -26.068  -4.790  29.655  0.00  0.00    -0.000 A 
ATOM      8  C   UNL A   1     -25.977  -3.356  29.657  0.00  0.00    -0.004 A 
ENDBRANCH   1   3
BRANCH   1   9
ATOM      9  C   UNL A   1     -25.060  -0.812  27.731  0.00  0.00    +0.005 C 
BRANCH   9  10
ATOM     10  C   UNL A   1     -24.717   0.606  27.569  0.00  0.00    +0.009 C 
BRANCH  10  11
ATOM     11  C   UNL A   1     -23.874   0.767  26.957  0.00  0.00    +0.101 C 
BRANCH  11  12
ATOM     12  C   UNL A   1     -22.651   1.326  27.411  0.00  0.00    +0.390 C 
ATOM     13  F   UNL A   1     -21.946   0.374  27.947  0.00  0.00    -0.172 F 
ATOM     14  O   UNL A   1     -22.831   2.413  28.368  0.00  0.00    -0.155 OA
ATOM     15  F   UNL A   1     -21.963   1.869  26.422  0.00  0.00    -0.172 F 
ENDBRANCH  11  12
ENDBRANCH  10  11
ENDBRANCH   9  10
ENDBRANCH   1   9
TORSDOF 5
ENDMDL
ENDMDL
