MODEL 1432
MODEL 1
REMARK VINA RESULT:    -4.512      0.000      0.000
REMARK INTER + INTRA:          -4.512
REMARK INTER:                  -4.512
REMARK INTRA:                   0.000
REMARK UNBOUND:                 0.000
REMARK  Name = No_1432-gen_results/8p0m/2024-11-27-11-27-31/
REMARK  0 active torsions:
REMARK  status: ('A' for Active; 'I' for Inactive)
REMARK                            x       y       z     vdW  Elec       q    Type
REMARK                         _______ _______ _______ _____ _____    ______ ____
ROOT
ATOM      1  F   UNL A   1      -9.128 -10.995  16.886  0.00  0.00    -0.204 F 
ATOM      2  C   UNL A   1      -9.221 -10.467  17.898  0.00  0.00    +0.140 A 
ATOM      3  C   UNL A   1     -10.222  -9.814  18.285  0.00  0.00    +0.030 A 
ATOM      4  C   UNL A   1      -7.987 -10.607  18.800  0.00  0.00    +0.030 A 
ATOM      5  C   UNL A   1      -8.002  -9.923  20.077  0.00  0.00    +0.002 A 
ATOM      6  C   UNL A   1     -10.214  -9.090  19.607  0.00  0.00    +0.002 A 
ATOM      7  C   UNL A   1      -9.101  -9.180  20.443  0.00  0.00    +0.000 A 
ENDROOT
TORSDOF 0
ENDMDL
ENDMDL
