MODEL 1433
MODEL 1
REMARK VINA RESULT:    -5.144      0.000      0.000
REMARK INTER + INTRA:          -5.765
REMARK INTER:                  -5.746
REMARK INTRA:                  -0.019
REMARK UNBOUND:                -0.019
REMARK  Name = No_1433-gen_results/8p0m/2024-11-27-11-27-31/
REMARK  2 active torsions:
REMARK  status: ('A' for Active; 'I' for Inactive)
REMARK    1  A    between atoms: C_1  and  C_8
REMARK    2  A    between atoms: C_5  and  C_11
REMARK                            x       y       z     vdW  Elec       q    Type
REMARK                         _______ _______ _______ _____ _____    ______ ____
ROOT
ATOM      1  C   UNL A   1     -28.740 -12.793  32.906  0.00  0.00    +0.078 C 
ATOM      2  C   UNL A   1     -28.955 -12.667  31.723  0.00  0.00    -0.038 C 
ATOM      3  C   UNL A   1     -29.594 -13.634  30.948  0.00  0.00    +0.023 C 
ATOM      4  C   UNL A   1     -29.886 -13.568  29.502  0.00  0.00    +0.012 C 
ATOM      5  C   UNL A   1     -29.669 -12.301  28.882  0.00  0.00    +0.066 C 
ATOM      6  C   UNL A   1     -29.070 -11.286  29.636  0.00  0.00    +0.012 C 
ATOM      7  C   UNL A   1     -28.747 -11.427  30.941  0.00  0.00    +0.023 C 
ENDROOT
BRANCH   1   8
ATOM      8  C   UNL A   1     -27.349 -12.428  33.312  0.00  0.00    +0.387 C 
ATOM      9  O   UNL A   1     -26.437 -12.956  32.579  0.00  0.00    -0.241 OA
ATOM     10  O   UNL A   1     -27.158 -12.070  34.513  0.00  0.00    -0.241 OA
ENDBRANCH   1   8
BRANCH   5  11
ATOM     11  C   UNL A   1     -29.966 -12.216  27.453  0.00  0.00    +0.207 C 
ATOM     12  O   UNL A   1     -28.996 -12.105  26.684  0.00  0.00    -0.288 OA
ENDBRANCH   5  11
TORSDOF 2
ENDMDL
ENDMDL
