REMARK  Name = outputs/IAG933/test6/raw/output_1436_IAG933_linker_design_.xyz
REMARK  16 active torsions:
REMARK  status: ('A' for Active; 'I' for Inactive)
REMARK    1  A    between atoms: C_1  and  C_2
REMARK    2  A    between atoms: C_1  and  C_8
REMARK    3  A    between atoms: C_1  and  O_34
REMARK    4  A    between atoms: C_13  and  C_28
REMARK    5  A    between atoms: C_14  and  C_15
REMARK    6  A    between atoms: C_21  and  O_22
REMARK    7  A    between atoms: O_22  and  C_23
REMARK    8  A    between atoms: C_23  and  C_24
REMARK    9  A    between atoms: C_29  and  O_40
REMARK   10  A    between atoms: C_29  and  C_42
REMARK   11  A    between atoms: C_30  and  C_35
REMARK   12  A    between atoms: C_33  and  C_36
REMARK   13  A    between atoms: C_33  and  C_38
REMARK   14  A    between atoms: O_34  and  C_36
REMARK   15  A    between atoms: C_35  and  C_42
REMARK   16  A    between atoms: C_38  and  O_40
REMARK                            x       y       z     vdW  Elec       q    Type
REMARK                         _______ _______ _______ _____ _____    ______ ____
ROOT
ATOM      1  C   UNL A   1     -24.340   1.554  26.805  0.00  0.00    +0.013 C 
ATOM      2  C   UNL A   1     -23.449   2.064  25.862  0.00  0.00    +0.174 C 
ATOM      3  O   UNL A   1     -22.210   1.936  26.224  0.00  0.00    -0.435 OA
ATOM      4  C   UNL A   1     -23.559   1.077  28.013  0.00  0.00    +0.143 C 
ATOM      5  N   UNL A   1     -21.038   1.458  28.129  0.00  0.00    -0.111 NA
ATOM      6  C   UNL A   1     -22.219   1.458  27.515  0.00  0.00    +0.232 C 
ENDROOT
BRANCH   1   7
ATOM      7  C   UNL A   1     -25.688   1.614  26.461  0.00  0.00    +0.092 C 
ATOM      8  C   UNL A   1     -26.250   2.920  26.395  0.00  0.00    +0.059 C 
ATOM      9  C   UNL A   1     -27.438   3.091  25.645  0.00  0.00    +0.102 C 
ATOM     10  N   UNL A   1     -28.075   2.089  25.003  0.00  0.00    -0.212 NA
ATOM     11  C   UNL A   1     -27.543   0.849  25.079  0.00  0.00    +0.234 C 
ATOM     12  C   UNL A   1     -26.354   0.576  25.777  0.00  0.00    +0.244 C 
ATOM     13  F   UNL A   1     -25.860  -0.681  25.795  0.00  0.00    -0.227 F 
BRANCH   8  14
ATOM     14  C   UNL A   1     -25.642   4.093  27.123  0.00  0.00    +0.263 C 
ATOM     15  N   UNL A   1     -25.614   5.252  26.449  0.00  0.00    -0.200 NA
ATOM     16  C   UNL A   1     -25.026   6.479  26.963  0.00  0.00    +0.139 C 
ATOM     17  O   UNL A   1     -25.143   3.966  28.243  0.00  0.00    -0.269 OA
ENDBRANCH   8  14
BRANCH  11  18
ATOM     18  O   UNL A   1     -28.193  -0.208  24.477  0.00  0.00    -0.459 OA
BRANCH  18  19
ATOM     19  C   UNL A   1     -29.460   0.005  23.866  0.00  0.00    +0.242 C 
BRANCH  19  20
ATOM     20  C   UNL A   1     -30.065  -1.377  23.573  0.00  0.00    +0.229 C 
ATOM     21  O   UNL A   1     -30.729  -1.878  24.721  0.00  0.00    -0.216 OA
ENDBRANCH  19  20
ENDBRANCH  18  19
ENDBRANCH  11  18
ENDBRANCH   1   7
BRANCH   4  22
ATOM     22  C   UNL A   1     -23.826  -0.410  28.163  0.00  0.00    +0.158 C 
BRANCH  22  23
ATOM     23  O   UNL A   1     -25.098  -0.433  28.895  0.00  0.00    -0.349 OA
BRANCH  23  24
ATOM     24  C   UNL A   1     -24.855  -1.012  30.143  0.00  0.00    +0.153 C 
BRANCH  24  25
ATOM     25  C   UNL A   1     -24.973  -2.505  29.788  0.00  0.00    +0.006 C 
ATOM     26  C   UNL A   1     -23.906  -3.173  29.146  0.00  0.00    -0.002 C 
ATOM     27  C   UNL A   1     -23.989  -4.549  28.853  0.00  0.00    -0.000 C 
ATOM     28  C   UNL A   1     -25.137  -5.280  29.205  0.00  0.00    -0.000 C 
ATOM     29  C   UNL A   1     -26.232  -4.611  29.784  0.00  0.00    -0.000 C 
ATOM     30  C   UNL A   1     -26.155  -3.232  30.065  0.00  0.00    -0.002 C 
ENDBRANCH  24  25
BRANCH  24  31
ATOM     31  C   UNL A   1     -25.387  -0.679  31.571  0.00  0.00    +0.104 C 
ATOM     32  C   UNL A   1     -25.189   0.773  32.028  0.00  0.00    +0.022 C 
ATOM     33  C   UNL A   1     -25.336   0.684  33.544  0.00  0.00    +0.020 C 
ATOM     34  C   UNL A   1     -24.829  -0.715  33.905  0.00  0.00    +0.089 C 
ATOM     35  N   UNL A   1     -24.758  -1.481  32.646  0.00  0.00    -0.217 NA
ENDBRANCH  24  31
ENDBRANCH  23  24
ENDBRANCH  22  23
ENDBRANCH   4  22
BRANCH   4  36
ATOM     36  C   UNL A   1     -23.773   1.569  29.524  0.00  0.00    +0.157 C 
BRANCH  36  37
ATOM     37  O   UNL A   1     -25.015   2.265  29.709  0.00  0.00    -0.353 OA
BRANCH  37  38
ATOM     38  C   UNL A   1     -25.505   3.175  30.726  0.00  0.00    +0.142 C 
BRANCH  38  39
ATOM     39  C   UNL A   1     -24.664   3.804  31.852  0.00  0.00    +0.034 C 
BRANCH  39  40
ATOM     40  C   UNL A   1     -25.355   5.022  32.466  0.00  0.00    +0.023 C 
BRANCH  40  41
ATOM     41  C   UNL A   1     -24.636   5.529  33.729  0.00  0.00    +0.109 C 
ATOM     42  N   UNL A   1     -23.955   6.786  33.317  0.00  0.00    -0.131 NA
ENDBRANCH  40  41
ENDBRANCH  39  40
ENDBRANCH  38  39
ENDBRANCH  37  38
ENDBRANCH  36  37
ENDBRANCH   4  36
TORSDOF 16
