MODEL 1436
MODEL 1
REMARK VINA RESULT:    -6.749      0.000      0.000
REMARK INTER + INTRA:         -11.120
REMARK INTER:                  -9.906
REMARK INTRA:                  -1.214
REMARK UNBOUND:                -1.214
REMARK  Name = No_1436-gen_results/8p0m/2024-11-27-11-27-31/
REMARK  8 active torsions:
REMARK  status: ('A' for Active; 'I' for Inactive)
REMARK    1  A    between atoms: C_1  and  O_19
REMARK    2  A    between atoms: C_2  and  C_10
REMARK    3  A    between atoms: C_5  and  C_7
REMARK    4  A    between atoms: C_12  and  C_13
REMARK    5  A    between atoms: C_13  and  C_14
REMARK    6  A    between atoms: O_19  and  C_20
REMARK    7  A    between atoms: C_20  and  C_21
REMARK    8  A    between atoms: N_24  and  C_25
REMARK                            x       y       z     vdW  Elec       q    Type
REMARK                         _______ _______ _______ _____ _____    ______ ____
ROOT
ATOM      1  C   UNL A   1     -10.284   0.765  35.792  0.00  0.00    +0.147 A 
ATOM      2  C   UNL A   1      -9.835   0.120  36.710  0.00  0.00    +0.035 A 
ATOM      3  C   UNL A   1      -8.484  -0.081  36.915  0.00  0.00    +0.003 A 
ATOM      4  C   UNL A   1      -7.574   0.539  36.014  0.00  0.00    +0.007 A 
ATOM      5  C   UNL A   1      -8.116   1.387  35.109  0.00  0.00    +0.083 A 
ATOM      6  C   UNL A   1      -9.422   1.550  35.012  0.00  0.00    +0.044 A 
ENDROOT
BRANCH   2   7
ATOM      7  C   UNL A   1     -10.773  -0.708  37.686  0.00  0.00    +0.003 A 
ATOM      8  C   UNL A   1     -11.113  -0.252  38.881  0.00  0.00    -0.004 A 
ATOM      9  C   UNL A   1     -11.984  -0.916  39.775  0.00  0.00    -0.021 A 
ATOM     10  C   UNL A   1     -12.343  -2.282  39.357  0.00  0.00    -0.004 A 
ATOM     11  C   UNL A   1     -11.914  -2.736  38.146  0.00  0.00    -0.000 A 
ATOM     12  C   UNL A   1     -11.139  -2.025  37.308  0.00  0.00    +0.000 A 
BRANCH   9  13
ATOM     13  C   UNL A   1     -12.461  -0.293  40.955  0.00  0.00    +0.047 C 
BRANCH  13  14
ATOM     14  C   UNL A   1     -11.755  -0.589  42.171  0.00  0.00    +0.114 C 
ATOM     15  N   UNL A   1     -11.251   0.562  42.697  0.00  0.00    -0.131 NA
ENDBRANCH  13  14
ENDBRANCH   9  13
ENDBRANCH   2   7
BRANCH   5  16
ATOM     16  C   UNL A   1      -7.153   2.045  34.202  0.00  0.00    +0.388 C 
ATOM     17  O   UNL A   1      -7.551   2.475  33.253  0.00  0.00    -0.241 OA
ATOM     18  O   UNL A   1      -5.858   1.696  34.324  0.00  0.00    -0.241 OA
ENDBRANCH   5  16
BRANCH   1  19
ATOM     19  O   UNL A   1     -11.630   1.009  35.598  0.00  0.00    -0.431 OA
BRANCH  19  20
ATOM     20  C   UNL A   1     -12.323   2.052  35.729  0.00  0.00    +0.312 C 
ATOM     21  N   UNL A   1     -12.834   2.352  36.880  0.00  0.00    -0.206 NA
BRANCH  21  22
ATOM     22  C   UNL A   1     -13.750   3.168  37.006  0.00  0.00    +0.085 A 
ATOM     23  C   UNL A   1     -14.934   2.941  36.734  0.00  0.00    +0.019 A 
ATOM     24  C   UNL A   1     -16.044   3.808  36.929  0.00  0.00    +0.002 A 
ATOM     25  C   UNL A   1     -15.730   4.998  37.607  0.00  0.00    +0.000 A 
ATOM     26  C   UNL A   1     -14.452   5.303  37.964  0.00  0.00    +0.002 A 
ATOM     27  C   UNL A   1     -13.448   4.376  37.781  0.00  0.00    +0.019 A 
ENDBRANCH  21  22
BRANCH  20  28
ATOM     28  C   UNL A   1     -12.451   2.833  34.574  0.00  0.00    +0.440 C 
ATOM     29  O   UNL A   1     -13.204   2.460  33.599  0.00  0.00    -0.235 OA
ATOM     30  O   UNL A   1     -11.620   3.773  34.317  0.00  0.00    -0.235 OA
ENDBRANCH  20  28
ENDBRANCH  19  20
ENDBRANCH   1  19
TORSDOF 8
ENDMDL
ENDMDL
