MODEL 1437
MODEL 1
REMARK VINA RESULT:    -7.353      0.000      0.000
REMARK INTER + INTRA:          -9.449
REMARK INTER:                  -8.643
REMARK INTRA:                  -0.806
REMARK UNBOUND:                -0.806
REMARK  Name = No_1437-gen_results/8p0m/2024-11-27-11-27-31/
REMARK  3 active torsions:
REMARK  status: ('A' for Active; 'I' for Inactive)
REMARK    1  A    between atoms: C_2  and  C_11
REMARK    2  A    between atoms: C_3  and  C_4
REMARK    3  A    between atoms: C_6  and  C_14
REMARK                            x       y       z     vdW  Elec       q    Type
REMARK                         _______ _______ _______ _____ _____    ______ ____
ROOT
ATOM      1  C   UNL A   1     -23.780   1.384  29.918  0.00  0.00    +0.010 A 
ATOM      2  C   UNL A   1     -24.350   0.770  30.557  0.00  0.00    +0.080 A 
ATOM      3  C   UNL A   1     -23.372   0.720  28.680  0.00  0.00    +0.072 A 
ATOM      4  C   UNL A   1     -24.837  -0.602  30.503  0.00  0.00    +0.007 A 
ATOM      5  C   UNL A   1     -24.461  -1.266  29.354  0.00  0.00    +0.000 A 
ATOM      6  C   UNL A   1     -23.772  -0.613  28.401  0.00  0.00    +0.004 A 
ENDROOT
BRANCH   5   7
ATOM      7  C   UNL A   1     -24.860  -2.663  29.092  0.00  0.00    -0.000 A 
ATOM      8  C   UNL A   1     -24.107  -3.489  28.739  0.00  0.00    -0.000 A 
ATOM      9  C   UNL A   1     -23.934  -4.598  28.542  0.00  0.00    -0.000 A 
ATOM     10  C   UNL A   1     -24.928  -5.508  29.123  0.00  0.00    +0.000 A 
ATOM     11  C   UNL A   1     -26.066  -4.748  29.592  0.00  0.00    -0.000 A 
ATOM     12  C   UNL A   1     -26.018  -3.356  29.729  0.00  0.00    -0.000 A 
ENDBRANCH   5   7
BRANCH   3  13
ATOM     13  C   UNL A   1     -22.656   1.404  27.580  0.00  0.00    +0.419 C 
ATOM     14  F   UNL A   1     -21.581   1.150  27.409  0.00  0.00    -0.166 F 
ATOM     15  F   UNL A   1     -22.805   2.696  27.698  0.00  0.00    -0.166 F 
ATOM     16  F   UNL A   1     -23.319   1.156  26.331  0.00  0.00    -0.166 F 
ENDBRANCH   3  13
BRANCH   2  17
ATOM     17  C   UNL A   1     -24.917   1.456  31.928  0.00  0.00    +0.388 C 
ATOM     18  O   UNL A   1     -25.124   2.561  31.809  0.00  0.00    -0.241 OA
ATOM     19  O   UNL A   1     -25.115   0.748  32.990  0.00  0.00    -0.241 OA
ENDBRANCH   2  17
TORSDOF 3
ENDMDL
ENDMDL
