REMARK  Name = outputs/IAG933/test6/raw/output_1437_IAG933_linker_design_.xyz
REMARK  12 active torsions:
REMARK  status: ('A' for Active; 'I' for Inactive)
REMARK    1  A    between atoms: C_1  and  C_2
REMARK    2  A    between atoms: C_1  and  C_8
REMARK    3  A    between atoms: C_1  and  C_31
REMARK    4  A    between atoms: C_13  and  C_34
REMARK    5  A    between atoms: C_14  and  C_15
REMARK    6  A    between atoms: C_21  and  O_22
REMARK    7  A    between atoms: O_22  and  C_23
REMARK    8  A    between atoms: C_23  and  C_24
REMARK    9  A    between atoms: C_29  and  C_30
REMARK   10  A    between atoms: C_30  and  C_36
REMARK   11  A    between atoms: C_31  and  N_38
REMARK   12  A    between atoms: C_31  and  C_40
REMARK                            x       y       z     vdW  Elec       q    Type
REMARK                         _______ _______ _______ _____ _____    ______ ____
ROOT
ATOM      1  C   UNL A   1     -23.504   1.923  26.394  0.00  0.00    +0.225 C 
ATOM      2  F   UNL A   1     -20.780   1.276  28.518  0.00  0.00    -0.202 F 
ATOM      3  C   UNL A   1     -23.054   0.546  28.757  0.00  0.00    +0.030 C 
ATOM      4  C   UNL A   1     -24.562   1.350  27.037  0.00  0.00    +0.042 C 
ATOM      5  O   UNL A   1     -23.592   2.838  25.333  0.00  0.00    -0.284 OA
ATOM      6  F   UNL A   1     -21.214   1.939  25.986  0.00  0.00    -0.198 F 
ATOM      7  C   UNL A   1     -24.335   0.609  28.222  0.00  0.00    +0.003 C 
ATOM      8  C   UNL A   1     -22.220   1.700  26.862  0.00  0.00    +0.206 C 
ATOM      9  C   UNL A   1     -22.004   1.152  28.054  0.00  0.00    +0.170 C 
ENDROOT
BRANCH   4  10
ATOM     10  C   UNL A   1     -25.688   1.614  26.461  0.00  0.00    +0.041 C 
ATOM     11  C   UNL A   1     -26.250   2.920  26.395  0.00  0.00    +0.077 C 
ATOM     12  C   UNL A   1     -27.438   3.091  25.645  0.00  0.00    +0.107 C 
ATOM     13  N   UNL A   1     -28.075   2.089  25.003  0.00  0.00    -0.208 NA
ATOM     14  C   UNL A   1     -27.543   0.849  25.079  0.00  0.00    +0.253 C 
ATOM     15  C   UNL A   1     -26.354   0.576  25.777  0.00  0.00    +0.193 C 
ATOM     16  F   UNL A   1     -25.860  -0.681  25.795  0.00  0.00    -0.199 F 
BRANCH  11  17
ATOM     17  C   UNL A   1     -25.642   4.093  27.123  0.00  0.00    +0.266 C 
ATOM     18  N   UNL A   1     -25.614   5.252  26.449  0.00  0.00    -0.200 NA
ATOM     19  C   UNL A   1     -25.026   6.479  26.963  0.00  0.00    +0.139 C 
ATOM     20  O   UNL A   1     -25.143   3.966  28.243  0.00  0.00    -0.268 OA
ENDBRANCH  11  17
BRANCH  14  21
ATOM     21  O   UNL A   1     -28.193  -0.208  24.477  0.00  0.00    -0.456 OA
BRANCH  21  22
ATOM     22  C   UNL A   1     -29.460   0.005  23.866  0.00  0.00    +0.243 C 
BRANCH  22  23
ATOM     23  C   UNL A   1     -30.065  -1.377  23.573  0.00  0.00    +0.229 C 
ATOM     24  O   UNL A   1     -30.729  -1.878  24.721  0.00  0.00    -0.216 OA
ENDBRANCH  22  23
ENDBRANCH  21  22
ENDBRANCH  14  21
ENDBRANCH   4  10
BRANCH   7  25
ATOM     25  C   UNL A   1     -25.419  -0.152  28.948  0.00  0.00    +0.123 C 
BRANCH  25  27
ATOM     26  C   UNL A   1     -27.566   0.701  29.621  0.00  0.00    +0.244 C 
ATOM     27  N   UNL A   1     -26.361   0.962  29.276  0.00  0.00    -0.202 NA
ATOM     28  O   UNL A   1     -27.884  -0.463  29.413  0.00  0.00    -0.273 OA
BRANCH  26  29
ATOM     29  C   UNL A   1     -28.390   1.750  30.303  0.00  0.00    +0.122 C 
BRANCH  29  30
ATOM     30  C   UNL A   1     -28.134   3.212  29.896  0.00  0.00    +0.192 C 
ATOM     31  O   UNL A   1     -27.148   3.767  30.743  0.00  0.00    -0.220 OA
ENDBRANCH  29  30
ENDBRANCH  26  29
ENDBRANCH  25  27
BRANCH  25  32
ATOM     32  C   UNL A   1     -24.855  -1.012  30.143  0.00  0.00    +0.062 C 
BRANCH  32  33
ATOM     33  C   UNL A   1     -24.973  -2.505  29.788  0.00  0.00    -0.019 C 
ATOM     34  C   UNL A   1     -23.906  -3.173  29.146  0.00  0.00    -0.004 C 
ATOM     35  C   UNL A   1     -23.989  -4.549  28.853  0.00  0.00    -0.000 C 
ATOM     36  C   UNL A   1     -25.137  -5.280  29.205  0.00  0.00    -0.000 C 
ATOM     37  C   UNL A   1     -26.232  -4.611  29.784  0.00  0.00    -0.000 C 
ATOM     38  C   UNL A   1     -26.155  -3.232  30.065  0.00  0.00    -0.004 C 
ENDBRANCH  32  33
BRANCH  32  39
ATOM     39  C   UNL A   1     -25.387  -0.679  31.571  0.00  0.00    +0.079 C 
ATOM     40  C   UNL A   1     -25.189   0.773  32.028  0.00  0.00    +0.019 C 
ATOM     41  C   UNL A   1     -25.336   0.684  33.544  0.00  0.00    +0.020 C 
ATOM     42  C   UNL A   1     -24.829  -0.715  33.905  0.00  0.00    +0.089 C 
ATOM     43  N   UNL A   1     -24.758  -1.481  32.646  0.00  0.00    -0.219 NA
ENDBRANCH  32  39
ENDBRANCH  25  32
ENDBRANCH   7  25
TORSDOF 12
