MODEL 1438
MODEL 1
REMARK VINA RESULT:    -7.634      0.000      0.000
REMARK INTER + INTRA:          -9.408
REMARK INTER:                  -8.973
REMARK INTRA:                  -0.435
REMARK UNBOUND:                -0.435
REMARK  Name = No_1438-gen_results/8p0m/2024-11-27-11-27-31/
REMARK  3 active torsions:
REMARK  status: ('A' for Active; 'I' for Inactive)
REMARK    1  A    between atoms: C_4  and  N_11
REMARK    2  A    between atoms: C_10  and  C_15
REMARK    3  A    between atoms: C_21  and  C_22
REMARK                            x       y       z     vdW  Elec       q    Type
REMARK                         _______ _______ _______ _____ _____    ______ ____
ROOT
ATOM      1  C   UNL A   1     -29.829 -14.556  31.549  0.00  0.00    +0.001 A 
ATOM      2  C   UNL A   1     -29.853 -15.389  30.904  0.00  0.00    +0.000 A 
ATOM      3  C   UNL A   1     -29.778 -13.274  30.848  0.00  0.00    +0.015 A 
ATOM      4  C   UNL A   1     -29.115 -12.199  31.331  0.00  0.00    +0.075 A 
ATOM      5  C   UNL A   1     -30.605 -15.584  29.713  0.00  0.00    +0.000 A 
ATOM      6  C   UNL A   1     -30.661 -14.409  28.853  0.00  0.00    +0.000 A 
ATOM      7  C   UNL A   1     -30.256 -13.242  29.475  0.00  0.00    +0.006 A 
ATOM      8  C   UNL A   1     -29.024 -11.028  30.685  0.00  0.00    +0.017 A 
ATOM      9  C   UNL A   1     -29.600 -10.887  29.383  0.00  0.00    +0.006 A 
ATOM     10  C   UNL A   1     -30.150 -12.011  28.753  0.00  0.00    +0.057 A 
ENDROOT
BRANCH  10  11
ATOM     11  C   UNL A   1     -29.922 -12.186  27.532  0.00  0.00    +0.265 C 
ATOM     12  O   UNL A   1     -28.706 -12.564  27.359  0.00  0.00    -0.267 OA
ATOM     13  N   UNL A   1     -30.691 -12.328  26.460  0.00  0.00    -0.272 N 
ATOM     14  C   UNL A   1     -32.054 -11.920  26.445  0.00  0.00    +0.083 A 
ATOM     15  C   UNL A   1     -32.576 -12.060  25.282  0.00  0.00    +0.021 A 
ATOM     16  C   UNL A   1     -30.357 -12.807  25.152  0.00  0.00    +0.083 A 
ATOM     17  C   UNL A   1     -31.592 -12.686  24.417  0.00  0.00    +0.019 A 
BRANCH  17  18
ATOM     18  C   UNL A   1     -31.739 -13.093  23.012  0.00  0.00    +0.002 A 
ATOM     19  C   UNL A   1     -32.779 -13.635  22.682  0.00  0.00    +0.000 A 
ATOM     20  C   UNL A   1     -33.087 -14.080  21.305  0.00  0.00    +0.000 A 
ATOM     21  C   UNL A   1     -32.004 -13.852  20.429  0.00  0.00    +0.000 A 
ATOM     22  C   UNL A   1     -30.888 -13.245  20.829  0.00  0.00    +0.000 A 
ATOM     23  C   UNL A   1     -30.729 -12.790  22.149  0.00  0.00    +0.000 A 
ENDBRANCH  17  18
ENDBRANCH  10  11
BRANCH   4  24
ATOM     24  N   UNL A   1     -28.690 -12.140  32.648  0.00  0.00    -0.160 NA
ATOM     25  C   UNL A   1     -27.471 -12.406  33.088  0.00  0.00    +0.363 C 
ATOM     26  N   UNL A   1     -27.294 -12.433  34.366  0.00  0.00    -0.068 NA
ATOM     27  O   UNL A   1     -26.549 -12.694  32.356  0.00  0.00    -0.247 OA
ENDBRANCH   4  24
TORSDOF 3
ENDMDL
ENDMDL
