MODEL 1439
MODEL 1
REMARK VINA RESULT:    -6.417      0.000      0.000
REMARK INTER + INTRA:          -7.936
REMARK INTER:                  -7.542
REMARK INTRA:                  -0.394
REMARK UNBOUND:                -0.394
REMARK  Name = No_1439-gen_results/8p0m/2024-11-27-11-27-31/
REMARK  3 active torsions:
REMARK  status: ('A' for Active; 'I' for Inactive)
REMARK    1  A    between atoms: C_2  and  O_7
REMARK    2  A    between atoms: O_7  and  C_8
REMARK    3  A    between atoms: C_12  and  C_14
REMARK                            x       y       z     vdW  Elec       q    Type
REMARK                         _______ _______ _______ _____ _____    ______ ____
ROOT
ATOM      1  C   UNL A   1     -24.116  -0.507  28.829  0.00  0.00    +0.145 A 
ATOM      2  C   UNL A   1     -23.145   0.035  28.956  0.00  0.00    +0.037 A 
ATOM      3  C   UNL A   1     -22.666   0.988  27.896  0.00  0.00    +0.003 A 
ATOM      4  C   UNL A   1     -23.478   1.137  26.762  0.00  0.00    +0.007 A 
ATOM      5  C   UNL A   1     -24.661   0.424  26.712  0.00  0.00    +0.083 A 
ATOM      6  C   UNL A   1     -25.054  -0.399  27.697  0.00  0.00    +0.044 A 
ENDROOT
BRANCH   5   7
ATOM      7  C   UNL A   1     -25.543   0.544  25.514  0.00  0.00    +0.388 C 
ATOM      8  O   UNL A   1     -26.484   1.051  25.245  0.00  0.00    -0.241 OA
ATOM      9  O   UNL A   1     -24.950  -0.034  24.396  0.00  0.00    -0.241 OA
ENDBRANCH   5   7
BRANCH   1  10
ATOM     10  O   UNL A   1     -24.523  -1.295  29.840  0.00  0.00    -0.454 OA
BRANCH  10  12
ATOM     11  C   UNL A   1     -25.814  -3.020  29.960  0.00  0.00    +0.037 A 
ATOM     12  C   UNL A   1     -24.901  -2.677  29.560  0.00  0.00    +0.145 A 
ATOM     13  C   UNL A   1     -26.176  -4.417  29.669  0.00  0.00    +0.003 A 
ATOM     14  C   UNL A   1     -25.260  -5.279  29.000  0.00  0.00    +0.000 A 
ATOM     15  C   UNL A   1     -23.764  -3.368  28.894  0.00  0.00    +0.037 A 
ATOM     16  C   UNL A   1     -24.066  -4.663  28.598  0.00  0.00    +0.003 A 
ENDBRANCH  10  12
ENDBRANCH   1  10
TORSDOF 3
ENDMDL
ENDMDL
