REMARK  Name = outputs/IAG933/test6/raw/output_144_IAG933_linker_design_.xyz
REMARK  11 active torsions:
REMARK  status: ('A' for Active; 'I' for Inactive)
REMARK    1  A    between atoms: C_1  and  C_2
REMARK    2  A    between atoms: C_1  and  C_8
REMARK    3  A    between atoms: C_1  and  C_34
REMARK    4  A    between atoms: C_13  and  N_31
REMARK    5  A    between atoms: C_14  and  C_15
REMARK    6  A    between atoms: C_21  and  O_22
REMARK    7  A    between atoms: O_22  and  C_23
REMARK    8  A    between atoms: C_23  and  C_24
REMARK    9  A    between atoms: C_28  and  N_31
REMARK   10  A    between atoms: C_29  and  C_36
REMARK   11  A    between atoms: N_31  and  N_35
REMARK                            x       y       z     vdW  Elec       q    Type
REMARK                         _______ _______ _______ _____ _____    ______ ____
ROOT
ATOM      1  N   UNL A   1     -24.918   1.195  27.331  0.00  0.00    -0.213 N 
ENDROOT
BRANCH   1   2
ATOM      2  C   UNL A   1     -25.688   1.614  26.461  0.00  0.00    +0.164 C 
ATOM      3  C   UNL A   1     -26.250   2.920  26.395  0.00  0.00    +0.075 C 
ATOM      4  C   UNL A   1     -27.438   3.091  25.645  0.00  0.00    +0.104 C 
ATOM      5  N   UNL A   1     -28.075   2.089  25.003  0.00  0.00    -0.212 NA
ATOM      6  C   UNL A   1     -27.543   0.849  25.079  0.00  0.00    +0.236 C 
ATOM      7  C   UNL A   1     -26.354   0.576  25.777  0.00  0.00    +0.260 C 
ATOM      8  F   UNL A   1     -25.860  -0.681  25.795  0.00  0.00    -0.225 F 
BRANCH   3   9
ATOM      9  C   UNL A   1     -25.642   4.093  27.123  0.00  0.00    +0.264 C 
ATOM     10  N   UNL A   1     -25.614   5.252  26.449  0.00  0.00    -0.200 NA
ATOM     11  C   UNL A   1     -25.026   6.479  26.963  0.00  0.00    +0.139 C 
ATOM     12  O   UNL A   1     -25.143   3.966  28.243  0.00  0.00    -0.269 OA
ENDBRANCH   3   9
BRANCH   6  13
ATOM     13  O   UNL A   1     -28.193  -0.208  24.477  0.00  0.00    -0.459 OA
BRANCH  13  14
ATOM     14  C   UNL A   1     -29.460   0.005  23.866  0.00  0.00    +0.242 C 
BRANCH  14  15
ATOM     15  C   UNL A   1     -30.065  -1.377  23.573  0.00  0.00    +0.229 C 
ATOM     16  O   UNL A   1     -30.729  -1.878  24.721  0.00  0.00    -0.216 OA
ENDBRANCH  14  15
ENDBRANCH  13  14
ENDBRANCH   6  13
ENDBRANCH   1   2
BRANCH   1  17
ATOM     17  C   UNL A   1     -23.688   1.233  27.153  0.00  0.00    +0.081 C 
ATOM     18  C   UNL A   1     -22.618   1.201  27.944  0.00  0.00    +0.108 C 
ATOM     19  F   UNL A   1     -20.229   1.452  27.680  0.00  0.00    -0.199 F 
ATOM     20  C   UNL A   1     -23.194   1.735  25.905  0.00  0.00    +0.188 C 
ATOM     21  C   UNL A   1     -21.471   1.597  27.198  0.00  0.00    +0.308 C 
ATOM     22  O   UNL A   1     -21.900   2.073  26.008  0.00  0.00    -0.317 OA
BRANCH  18  24
ATOM     23  N   UNL A   1     -22.410  -0.329  29.811  0.00  0.00    -0.084 NA
ATOM     24  C   UNL A   1     -22.741   0.924  29.430  0.00  0.00    +0.286 C 
ATOM     25  O   UNL A   1     -23.183   1.827  30.131  0.00  0.00    -0.267 OA
ENDBRANCH  18  24
ENDBRANCH   1  17
BRANCH   1  27
ATOM     26  C   UNL A   1     -25.820  -0.204  29.081  0.00  0.00    +0.264 C 
ATOM     27  N   UNL A   1     -25.528   1.046  28.465  0.00  0.00    -0.109 NA
ATOM     28  O   UNL A   1     -26.871  -0.717  28.836  0.00  0.00    -0.271 OA
BRANCH  26  29
ATOM     29  C   UNL A   1     -24.855  -1.012  30.143  0.00  0.00    +0.118 C 
BRANCH  29  30
ATOM     30  C   UNL A   1     -24.973  -2.505  29.788  0.00  0.00    -0.012 C 
ATOM     31  C   UNL A   1     -23.906  -3.173  29.146  0.00  0.00    -0.004 C 
ATOM     32  C   UNL A   1     -23.989  -4.549  28.853  0.00  0.00    -0.000 C 
ATOM     33  C   UNL A   1     -25.137  -5.280  29.205  0.00  0.00    -0.000 C 
ATOM     34  C   UNL A   1     -26.232  -4.611  29.784  0.00  0.00    -0.000 C 
ATOM     35  C   UNL A   1     -26.155  -3.232  30.065  0.00  0.00    -0.004 C 
ENDBRANCH  29  30
BRANCH  29  36
ATOM     36  C   UNL A   1     -25.387  -0.679  31.571  0.00  0.00    +0.086 C 
ATOM     37  C   UNL A   1     -25.189   0.773  32.028  0.00  0.00    +0.020 C 
ATOM     38  C   UNL A   1     -25.336   0.684  33.544  0.00  0.00    +0.020 C 
ATOM     39  C   UNL A   1     -24.829  -0.715  33.905  0.00  0.00    +0.089 C 
ATOM     40  N   UNL A   1     -24.758  -1.481  32.646  0.00  0.00    -0.219 NA
ENDBRANCH  29  36
ENDBRANCH  26  29
ENDBRANCH   1  27
TORSDOF 11
