MODEL 1440
MODEL 1
REMARK VINA RESULT:    -8.984      0.000      0.000
REMARK INTER + INTRA:         -16.140
REMARK INTER:                 -13.711
REMARK INTRA:                  -2.429
REMARK UNBOUND:                -2.429
REMARK  Name = No_1440-gen_results/8p0m/2024-11-27-11-27-31/
REMARK  9 active torsions:
REMARK  status: ('A' for Active; 'I' for Inactive)
REMARK    1  A    between atoms: C_2  and  C_28
REMARK    2  A    between atoms: C_3  and  C_7
REMARK    3  A    between atoms: C_7  and  C_8
REMARK    4  A    between atoms: C_7  and  C_9
REMARK    5  A    between atoms: C_9  and  C_10
REMARK    6  A    between atoms: C_14  and  C_17
REMARK    7  A    between atoms: C_20  and  N_33
REMARK    8  A    between atoms: N_29  and  C_30
REMARK    9  A    between atoms: N_33  and  C_34
REMARK                            x       y       z     vdW  Elec       q    Type
REMARK                         _______ _______ _______ _____ _____    ______ ____
ROOT
ATOM      1  C   UNL A   1     -24.237  -1.167  29.567  0.00  0.00    +0.049 C 
ENDROOT
BRANCH   1   4
ATOM      2  C   UNL A   1     -24.255  -1.141  32.129  0.00  0.00    -0.003 A 
ATOM      3  C   UNL A   1     -24.707  -0.776  33.008  0.00  0.00    +0.016 A 
ATOM      4  C   UNL A   1     -24.807  -0.747  30.891  0.00  0.00    -0.018 A 
ATOM      5  C   UNL A   1     -25.912   0.078  30.813  0.00  0.00    -0.004 A 
ATOM      6  C   UNL A   1     -25.874   0.107  33.202  0.00  0.00    +0.001 A 
ATOM      7  C   UNL A   1     -26.435   0.507  32.040  0.00  0.00    -0.000 A 
BRANCH   3   8
ATOM      8  C   UNL A   1     -24.186  -1.153  34.497  0.00  0.00    +0.089 C 
ATOM      9  N   UNL A   1     -25.073  -1.313  35.475  0.00  0.00    -0.178 NA
BRANCH   9  10
ATOM     10  C   UNL A   1     -24.975  -0.809  36.561  0.00  0.00    +0.246 C 
ATOM     11  C   UNL A   1     -26.114  -0.093  37.153  0.00  0.00    +0.097 C 
ATOM     12  O   UNL A   1     -23.946  -0.784  37.309  0.00  0.00    -0.273 OA
ENDBRANCH   9  10
ENDBRANCH   3   8
ENDBRANCH   1   4
BRANCH   1  13
ATOM     13  C   UNL A   1     -24.698  -2.374  29.120  0.00  0.00    -0.018 A 
ATOM     14  C   UNL A   1     -23.850  -3.467  28.928  0.00  0.00    -0.004 A 
ATOM     15  C   UNL A   1     -24.285  -4.812  28.833  0.00  0.00    -0.000 A 
ATOM     16  C   UNL A   1     -25.498  -5.178  29.368  0.00  0.00    -0.000 A 
ATOM     17  C   UNL A   1     -26.221  -4.442  29.723  0.00  0.00    -0.000 A 
ATOM     18  C   UNL A   1     -26.060  -2.906  29.753  0.00  0.00    -0.004 A 
ENDBRANCH   1  13
BRANCH   1  19
ATOM     19  C   UNL A   1     -23.333  -0.408  28.859  0.00  0.00    +0.030 C 
ATOM     20  C   UNL A   1     -21.987  -0.453  29.340  0.00  0.00    +0.005 C 
BRANCH  19  21
ATOM     21  C   UNL A   1     -23.691   0.415  27.843  0.00  0.00    -0.022 A 
ATOM     22  C   UNL A   1     -22.728   1.345  27.412  0.00  0.00    -0.004 A 
ATOM     23  C   UNL A   1     -23.029   2.169  26.306  0.00  0.00    -0.000 A 
ATOM     24  C   UNL A   1     -24.225   2.007  25.643  0.00  0.00    +0.003 A 
ATOM     25  C   UNL A   1     -25.142   1.064  26.017  0.00  0.00    +0.035 A 
ATOM     26  C   UNL A   1     -24.919   0.285  27.095  0.00  0.00    -0.001 A 
BRANCH  25  27
ATOM     27  C   UNL A   1     -26.452   1.021  25.248  0.00  0.00    +0.164 A 
ATOM     28  N   UNL A   1     -26.988   0.281  24.838  0.00  0.00    -0.210 NA
ATOM     29  N   UNL A   1     -26.878   2.317  24.903  0.00  0.00    -0.225 NA
ATOM     30  C   UNL A   1     -28.103   0.272  24.048  0.00  0.00    +0.155 A 
ATOM     31  C   UNL A   1     -27.938   2.550  24.156  0.00  0.00    +0.103 A 
ATOM     32  C   UNL A   1     -28.619   1.449  23.698  0.00  0.00    +0.057 A 
BRANCH  30  33
ATOM     33  N   UNL A   1     -28.718  -0.939  23.618  0.00  0.00    -0.193 NA
BRANCH  33  34
ATOM     34  C   UNL A   1     -29.922  -1.156  23.415  0.00  0.00    +0.087 C 
ATOM     35  C   UNL A   1     -30.795  -1.656  24.472  0.00  0.00    +0.019 C 
ENDBRANCH  33  34
ENDBRANCH  30  33
ENDBRANCH  25  27
ENDBRANCH  19  21
ENDBRANCH   1  19
TORSDOF 9
ENDMDL
ENDMDL
