REMARK  Name = outputs/IAG933/test6/raw/output_1440_IAG933_linker_design_.xyz
REMARK  13 active torsions:
REMARK  status: ('A' for Active; 'I' for Inactive)
REMARK    1  A    between atoms: C_1  and  C_2
REMARK    2  A    between atoms: C_1  and  C_8
REMARK    3  A    between atoms: C_1  and  N_42
REMARK    4  A    between atoms: C_13  and  C_35
REMARK    5  A    between atoms: C_14  and  C_15
REMARK    6  A    between atoms: C_21  and  O_22
REMARK    7  A    between atoms: O_22  and  C_23
REMARK    8  A    between atoms: C_23  and  C_24
REMARK    9  A    between atoms: C_29  and  N_42
REMARK   10  A    between atoms: C_29  and  C_43
REMARK   11  A    between atoms: C_32  and  C_33
REMARK   12  A    between atoms: C_33  and  C_39
REMARK   13  A    between atoms: C_36  and  C_38
REMARK                            x       y       z     vdW  Elec       q    Type
REMARK                         _______ _______ _______ _____ _____    ______ ____
ROOT
ATOM      1  C   UNL A   1     -23.849   0.638  29.031  0.00  0.00    +0.250 C 
ATOM      2  O   UNL A   1     -23.015   0.635  30.018  0.00  0.00    -0.270 OA
ATOM      3  N   UNL A   1     -24.971  -0.006  29.167  0.00  0.00    -0.261 N 
ENDROOT
BRANCH   1   7
ATOM      4  C   UNL A   1     -21.337   1.870  26.718  0.00  0.00    +0.232 C 
ATOM      5  C   UNL A   1     -23.459   2.132  25.644  0.00  0.00    +0.169 C 
ATOM      6  C   UNL A   1     -24.229   1.658  26.687  0.00  0.00    +0.026 C 
ATOM      7  C   UNL A   1     -23.368   1.255  27.868  0.00  0.00    +0.052 C 
ATOM      8  O   UNL A   1     -22.123   2.194  25.664  0.00  0.00    -0.468 OA
ATOM      9  C   UNL A   1     -21.930   1.386  27.869  0.00  0.00    +0.025 C 
BRANCH   6  10
ATOM     10  C   UNL A   1     -25.688   1.614  26.461  0.00  0.00    +0.096 C 
ATOM     11  C   UNL A   1     -26.250   2.920  26.395  0.00  0.00    +0.059 C 
ATOM     12  C   UNL A   1     -27.438   3.091  25.645  0.00  0.00    +0.102 C 
ATOM     13  N   UNL A   1     -28.075   2.089  25.003  0.00  0.00    -0.212 NA
ATOM     14  C   UNL A   1     -27.543   0.849  25.079  0.00  0.00    +0.234 C 
ATOM     15  C   UNL A   1     -26.354   0.576  25.777  0.00  0.00    +0.244 C 
ATOM     16  F   UNL A   1     -25.860  -0.681  25.795  0.00  0.00    -0.227 F 
BRANCH  11  17
ATOM     17  C   UNL A   1     -25.642   4.093  27.123  0.00  0.00    +0.263 C 
ATOM     18  N   UNL A   1     -25.614   5.252  26.449  0.00  0.00    -0.200 NA
ATOM     19  C   UNL A   1     -25.026   6.479  26.963  0.00  0.00    +0.139 C 
ATOM     20  O   UNL A   1     -25.143   3.966  28.243  0.00  0.00    -0.269 OA
ENDBRANCH  11  17
BRANCH  14  21
ATOM     21  O   UNL A   1     -28.193  -0.208  24.477  0.00  0.00    -0.459 OA
BRANCH  21  22
ATOM     22  C   UNL A   1     -29.460   0.005  23.866  0.00  0.00    +0.242 C 
BRANCH  22  23
ATOM     23  C   UNL A   1     -30.065  -1.377  23.573  0.00  0.00    +0.229 C 
ATOM     24  O   UNL A   1     -30.729  -1.878  24.721  0.00  0.00    -0.216 OA
ENDBRANCH  22  23
ENDBRANCH  21  22
ENDBRANCH  14  21
ENDBRANCH   6  10
ENDBRANCH   1   7
BRANCH   3  25
ATOM     25  C   UNL A   1     -24.855  -1.012  30.143  0.00  0.00    +0.115 C 
BRANCH  25  26
ATOM     26  C   UNL A   1     -24.973  -2.505  29.788  0.00  0.00    -0.003 C 
ATOM     27  C   UNL A   1     -23.906  -3.173  29.146  0.00  0.00    -0.003 C 
ATOM     28  C   UNL A   1     -23.989  -4.549  28.853  0.00  0.00    -0.000 C 
ATOM     29  C   UNL A   1     -25.137  -5.280  29.205  0.00  0.00    -0.000 C 
ATOM     30  C   UNL A   1     -26.232  -4.611  29.784  0.00  0.00    -0.000 C 
ATOM     31  C   UNL A   1     -26.155  -3.232  30.065  0.00  0.00    -0.003 C 
ENDBRANCH  25  26
BRANCH  25  32
ATOM     32  C   UNL A   1     -25.387  -0.679  31.571  0.00  0.00    +0.095 C 
ATOM     33  C   UNL A   1     -25.189   0.773  32.028  0.00  0.00    +0.021 C 
ATOM     34  C   UNL A   1     -25.336   0.684  33.544  0.00  0.00    +0.020 C 
ATOM     35  C   UNL A   1     -24.829  -0.715  33.905  0.00  0.00    +0.089 C 
ATOM     36  N   UNL A   1     -24.758  -1.481  32.646  0.00  0.00    -0.217 NA
ENDBRANCH  25  32
ENDBRANCH   3  25
BRANCH   3  37
ATOM     37  C   UNL A   1     -26.368   0.196  28.731  0.00  0.00    +0.171 C 
BRANCH  37  39
ATOM     38  C   UNL A   1     -27.352   2.410  30.036  0.00  0.00    -0.089 C 
ATOM     39  C   UNL A   1     -26.942   1.344  29.413  0.00  0.00    -0.069 C 
BRANCH  38  40
ATOM     40  C   UNL A   1     -27.734   3.693  30.782  0.00  0.00    +0.076 C 
BRANCH  40  42
ATOM     41  C   UNL A   1     -26.317   5.647  31.100  0.00  0.00    +0.001 C 
ATOM     42  C   UNL A   1     -26.698   4.295  31.702  0.00  0.00    +0.013 C 
ATOM     43  C   UNL A   1     -27.130   4.478  33.162  0.00  0.00    +0.001 C 
ENDBRANCH  40  42
ENDBRANCH  38  40
ENDBRANCH  37  39
ENDBRANCH   3  37
TORSDOF 13
