REMARK  Name = No_1441-gen_results/8p0m/2024-11-27-11-27-31/
REMARK  6 active torsions:
REMARK  status: ('A' for Active; 'I' for Inactive)
REMARK    1  A    between atoms: C_1  and  C_2
REMARK    2  A    between atoms: C_1  and  C_9
REMARK    3  A    between atoms: C_3  and  C_19
REMARK    4  A    between atoms: C_5  and  C_6
REMARK    5  A    between atoms: C_9  and  C_12
REMARK    6  A    between atoms: C_9  and  C_18
REMARK                            x       y       z     vdW  Elec       q    Type
REMARK                         _______ _______ _______ _____ _____    ______ ____
ROOT
ATOM      1  C   UNL A   1     -27.064  -0.119  28.608  0.00  0.00    -0.017 A 
ATOM      2  C   UNL A   1     -27.001   0.691  27.491  0.00  0.00    +0.051 A 
ATOM      3  C   UNL A   1     -25.855   1.482  27.083  0.00  0.00    +0.005 A 
ATOM      4  C   UNL A   1     -24.690   1.453  27.881  0.00  0.00    +0.044 A 
ATOM      5  C   UNL A   1     -25.812  -0.166  29.430  0.00  0.00    -0.004 A 
ATOM      6  C   UNL A   1     -24.646   0.589  29.081  0.00  0.00    +0.001 A 
ENDROOT
BRANCH   2   7
ATOM      7  C   UNL A   1     -28.110   0.798  26.566  0.00  0.00    +0.265 C 
ATOM      8  O   UNL A   1     -29.180   1.077  26.904  0.00  0.00    -0.268 OA
ATOM      9  N   UNL A   1     -27.901   0.527  25.257  0.00  0.00    -0.200 NA
ATOM     10  C   UNL A   1     -28.762   0.159  24.416  0.00  0.00    +0.139 C 
ENDBRANCH   2   7
BRANCH   4  11
ATOM     11  C   UNL A   1     -23.488   2.145  27.601  0.00  0.00    +0.341 C 
ATOM     12  F   UNL A   1     -23.640   3.224  27.004  0.00  0.00    -0.193 F 
ATOM     13  F   UNL A   1     -22.357   1.649  27.556  0.00  0.00    -0.193 F 
ENDBRANCH   4  11
BRANCH   1  14
ATOM     14  C   UNL A   1     -28.016  -0.814  28.878  0.00  0.00    +0.035 C 
BRANCH  14  15
ATOM     15  C   UNL A   1     -28.677  -0.498  30.241  0.00  0.00    +0.048 C 
BRANCH  15  16
ATOM     16  C   UNL A   1     -29.640  -1.369  30.738  0.00  0.00    -0.018 A 
ATOM     17  C   UNL A   1     -29.937  -2.308  30.149  0.00  0.00    -0.004 A 
ATOM     18  C   UNL A   1     -31.087  -3.100  30.688  0.00  0.00    -0.000 A 
ATOM     19  C   UNL A   1     -31.635  -2.779  31.807  0.00  0.00    -0.000 A 
ATOM     20  C   UNL A   1     -31.259  -1.693  32.529  0.00  0.00    -0.000 A 
ATOM     21  C   UNL A   1     -30.243  -0.881  32.000  0.00  0.00    -0.004 A 
ENDBRANCH  15  16
BRANCH  15  22
ATOM     22  C   UNL A   1     -28.256   0.732  30.947  0.00  0.00    -0.026 C 
ATOM     23  C   UNL A   1     -27.343   0.738  31.895  0.00  0.00    -0.030 C 
ATOM     24  C   UNL A   1     -26.969   1.913  32.568  0.00  0.00    +0.030 C 
ENDBRANCH  15  22
ENDBRANCH  14  15
ENDBRANCH   1  14
TORSDOF 6
