MODEL 1442
MODEL 1
REMARK VINA RESULT:    -5.015      0.000      0.000
REMARK INTER + INTRA:          -5.695
REMARK INTER:                  -5.601
REMARK INTRA:                  -0.094
REMARK UNBOUND:                -0.094
REMARK  Name = No_1442-gen_results/8p0m/2024-11-27-11-27-31/
REMARK  2 active torsions:
REMARK  status: ('A' for Active; 'I' for Inactive)
REMARK    1  A    between atoms: C_2  and  C_7
REMARK    2  A    between atoms: C_8  and  C_9
REMARK                            x       y       z     vdW  Elec       q    Type
REMARK                         _______ _______ _______ _____ _____    ______ ____
ROOT
ATOM      1  C   UNL A   1     -23.847  -3.399  28.693  0.00  0.00    +0.000 A 
ATOM      2  C   UNL A   1     -24.632  -2.606  29.160  0.00  0.00    +0.000 A 
ATOM      3  C   UNL A   1     -25.838  -3.028  29.708  0.00  0.00    +0.000 A 
ATOM      4  C   UNL A   1     -26.212  -4.419  29.696  0.00  0.00    +0.000 A 
ATOM      5  C   UNL A   1     -25.256  -5.264  29.116  0.00  0.00    +0.000 A 
ATOM      6  C   UNL A   1     -24.138  -4.813  28.596  0.00  0.00    +0.000 A 
ENDROOT
BRANCH   2   7
ATOM      7  C   UNL A   1     -24.425  -1.134  29.232  0.00  0.00    +0.000 C 
ATOM      8  C   UNL A   1     -24.587  -0.388  28.553  0.00  0.00    +0.000 C 
BRANCH   8   9
ATOM      9  C   UNL A   1     -25.213  -0.777  27.211  0.00  0.00    +0.000 C 
ATOM     10  C   UNL A   1     -25.340   0.013  26.194  0.00  0.00    +0.000 C 
ENDBRANCH   8   9
ENDBRANCH   2   7
TORSDOF 2
ENDMDL
ENDMDL
