REMARK  Name = outputs/IAG933/test6/raw/output_1442_IAG933_linker_design_.xyz
REMARK  9 active torsions:
REMARK  status: ('A' for Active; 'I' for Inactive)
REMARK    1  A    between atoms: C_1  and  C_2
REMARK    2  A    between atoms: C_1  and  C_8
REMARK    3  A    between atoms: C_1  and  N_34
REMARK    4  A    between atoms: C_13  and  C_36
REMARK    5  A    between atoms: C_14  and  C_15
REMARK    6  A    between atoms: C_21  and  O_22
REMARK    7  A    between atoms: O_22  and  C_23
REMARK    8  A    between atoms: C_23  and  C_24
REMARK    9  A    between atoms: C_37  and  C_41
REMARK                            x       y       z     vdW  Elec       q    Type
REMARK                         _______ _______ _______ _____ _____    ______ ____
ROOT
ATOM      1  C   UNL A   1     -22.763  -0.100  29.242  0.00  0.00    +0.318 C 
ATOM      2  C   UNL A   1     -23.604   1.899  25.440  0.00  0.00    +0.200 C 
ATOM      3  F   UNL A   1     -24.070   1.515  24.299  0.00  0.00    -0.199 F 
ATOM      4  F   UNL A   1     -22.148   2.874  24.746  0.00  0.00    -0.160 F 
ATOM      5  C   UNL A   1     -22.524   0.862  28.184  0.00  0.00    +0.118 C 
ATOM      6  N   UNL A   1     -24.117  -0.075  29.476  0.00  0.00    -0.191 N 
ATOM      7  N   UNL A   1     -21.622  -0.640  29.384  0.00  0.00    -0.004 NA
ATOM      8  C   UNL A   1     -24.257   1.583  26.413  0.00  0.00    +0.018 C 
ATOM      9  C   UNL A   1     -24.722   0.753  28.738  0.00  0.00    +0.183 C 
ATOM     10  C   UNL A   1     -20.467  -0.042  28.384  0.00  0.00    +0.261 C 
ATOM     11  C   UNL A   1     -22.242   2.139  25.642  0.00  0.00    +0.315 C 
ATOM     12  C   UNL A   1     -23.901   1.177  27.722  0.00  0.00    +0.029 C 
ATOM     13  C   UNL A   1     -21.251   0.869  27.606  0.00  0.00    +0.199 C 
ATOM     14  O   UNL A   1     -21.104   1.649  26.422  0.00  0.00    -0.424 OA
ENDROOT
BRANCH   8  15
ATOM     15  C   UNL A   1     -25.688   1.614  26.461  0.00  0.00    +0.095 C 
ATOM     16  C   UNL A   1     -26.250   2.920  26.395  0.00  0.00    +0.059 C 
ATOM     17  C   UNL A   1     -27.438   3.091  25.645  0.00  0.00    +0.102 C 
ATOM     18  N   UNL A   1     -28.075   2.089  25.003  0.00  0.00    -0.212 NA
ATOM     19  C   UNL A   1     -27.543   0.849  25.079  0.00  0.00    +0.234 C 
ATOM     20  C   UNL A   1     -26.354   0.576  25.777  0.00  0.00    +0.244 C 
ATOM     21  F   UNL A   1     -25.860  -0.681  25.795  0.00  0.00    -0.227 F 
BRANCH  16  22
ATOM     22  C   UNL A   1     -25.642   4.093  27.123  0.00  0.00    +0.263 C 
ATOM     23  N   UNL A   1     -25.614   5.252  26.449  0.00  0.00    -0.200 NA
ATOM     24  C   UNL A   1     -25.026   6.479  26.963  0.00  0.00    +0.139 C 
ATOM     25  O   UNL A   1     -25.143   3.966  28.243  0.00  0.00    -0.269 OA
ENDBRANCH  16  22
BRANCH  19  26
ATOM     26  O   UNL A   1     -28.193  -0.208  24.477  0.00  0.00    -0.459 OA
BRANCH  26  27
ATOM     27  C   UNL A   1     -29.460   0.005  23.866  0.00  0.00    +0.242 C 
BRANCH  27  28
ATOM     28  C   UNL A   1     -30.065  -1.377  23.573  0.00  0.00    +0.229 C 
ATOM     29  O   UNL A   1     -30.729  -1.878  24.721  0.00  0.00    -0.216 OA
ENDBRANCH  27  28
ENDBRANCH  26  27
ENDBRANCH  19  26
ENDBRANCH   8  15
BRANCH   9  31
ATOM     30  C   UNL A   1     -26.994  -0.387  28.373  0.00  0.00    +0.005 C 
ATOM     31  C   UNL A   1     -25.832   0.595  28.497  0.00  0.00    +0.051 C 
ENDBRANCH   9  31
BRANCH   6  32
ATOM     32  C   UNL A   1     -24.855  -1.012  30.143  0.00  0.00    +0.198 C 
BRANCH  32  33
ATOM     33  C   UNL A   1     -24.973  -2.505  29.788  0.00  0.00    +0.021 C 
ATOM     34  C   UNL A   1     -23.906  -3.173  29.146  0.00  0.00    -0.000 C 
ATOM     35  C   UNL A   1     -23.989  -4.549  28.853  0.00  0.00    -0.000 C 
ATOM     36  C   UNL A   1     -25.137  -5.280  29.205  0.00  0.00    -0.000 C 
ATOM     37  C   UNL A   1     -26.232  -4.611  29.784  0.00  0.00    -0.000 C 
ATOM     38  C   UNL A   1     -26.155  -3.232  30.065  0.00  0.00    -0.000 C 
ENDBRANCH  32  33
BRANCH  32  39
ATOM     39  C   UNL A   1     -25.387  -0.679  31.571  0.00  0.00    +0.120 C 
ATOM     40  C   UNL A   1     -25.189   0.773  32.028  0.00  0.00    +0.023 C 
ATOM     41  C   UNL A   1     -25.336   0.684  33.544  0.00  0.00    +0.020 C 
ATOM     42  C   UNL A   1     -24.829  -0.715  33.905  0.00  0.00    +0.089 C 
ATOM     43  N   UNL A   1     -24.758  -1.481  32.646  0.00  0.00    -0.215 NA
ENDBRANCH  32  39
ENDBRANCH   6  32
TORSDOF 9
