REMARK  Name = No_1443-gen_results/8p0m/2024-11-27-11-27-31/
REMARK  6 active torsions:
REMARK  status: ('A' for Active; 'I' for Inactive)
REMARK    1  A    between atoms: C_2  and  C_11
REMARK    2  A    between atoms: C_3  and  C_7
REMARK    3  A    between atoms: C_6  and  C_14
REMARK    4  A    between atoms: N_16  and  C_17
REMARK    5  A    between atoms: C_18  and  C_19
REMARK    6  A    between atoms: C_20  and  C_21
REMARK                            x       y       z     vdW  Elec       q    Type
REMARK                         _______ _______ _______ _____ _____    ______ ____
ROOT
ATOM      1  C   UNL A   1     -28.016  -0.814  28.878  0.00  0.00    +0.010 A 
ATOM      2  C   UNL A   1     -28.469  -0.785  29.829  0.00  0.00    +0.080 A 
ATOM      3  C   UNL A   1     -27.087   0.290  28.638  0.00  0.00    +0.072 A 
ATOM      4  C   UNL A   1     -26.832   1.249  29.587  0.00  0.00    +0.008 A 
ATOM      5  C   UNL A   1     -28.391   0.080  31.006  0.00  0.00    +0.011 A 
ATOM      6  C   UNL A   1     -27.494   1.152  30.784  0.00  0.00    +0.056 A 
ENDROOT
BRANCH   3   7
ATOM      7  C   UNL A   1     -26.311   0.392  27.364  0.00  0.00    +0.419 C 
ATOM      8  F   UNL A   1     -26.860   0.403  26.380  0.00  0.00    -0.166 F 
ATOM      9  F   UNL A   1     -25.544   1.604  27.382  0.00  0.00    -0.166 F 
ATOM     10  F   UNL A   1     -25.238  -0.549  27.431  0.00  0.00    -0.166 F 
ENDBRANCH   3   7
BRANCH   2  11
ATOM     11  C   UNL A   1     -29.458  -2.028  30.233  0.00  0.00    +0.388 C 
ATOM     12  O   UNL A   1     -28.991  -3.180  30.352  0.00  0.00    -0.241 OA
ATOM     13  O   UNL A   1     -30.635  -1.899  30.509  0.00  0.00    -0.241 OA
ENDBRANCH   2  11
BRANCH   6  14
ATOM     14  C   UNL A   1     -27.293   2.179  31.841  0.00  0.00    +0.269 C 
ATOM     15  O   UNL A   1     -27.142   1.996  32.918  0.00  0.00    -0.268 OA
ATOM     16  N   UNL A   1     -27.146   3.483  31.306  0.00  0.00    -0.174 NA
BRANCH  16  17
ATOM     17  C   UNL A   1     -26.835   4.592  32.186  0.00  0.00    +0.089 C 
ATOM     18  C   UNL A   1     -26.090   5.413  31.728  0.00  0.00    +0.018 C 
BRANCH  18  19
ATOM     19  C   UNL A   1     -25.204   6.280  32.450  0.00  0.00    +0.001 C 
ATOM     20  C   UNL A   1     -24.240   7.173  31.828  0.00  0.00    +0.000 C 
BRANCH  20  21
ATOM     21  C   UNL A   1     -24.456   7.452  30.472  0.00  0.00    +0.000 C 
ATOM     22  C   UNL A   1     -25.395   6.737  29.757  0.00  0.00    +0.000 C 
ENDBRANCH  20  21
ENDBRANCH  18  19
ENDBRANCH  16  17
ENDBRANCH   6  14
TORSDOF 6
