MODEL 1443
MODEL 1
REMARK VINA RESULT:    -6.550      0.000      0.000
REMARK INTER + INTRA:          -9.595
REMARK INTER:                  -8.848
REMARK INTRA:                  -0.747
REMARK UNBOUND:                -0.747
REMARK  Name = No_1443-gen_results/8p0m/2024-11-27-11-27-31/
REMARK  6 active torsions:
REMARK  status: ('A' for Active; 'I' for Inactive)
REMARK    1  A    between atoms: C_2  and  C_11
REMARK    2  A    between atoms: C_3  and  C_7
REMARK    3  A    between atoms: C_6  and  C_14
REMARK    4  A    between atoms: N_16  and  C_17
REMARK    5  A    between atoms: C_18  and  C_19
REMARK    6  A    between atoms: C_20  and  C_21
REMARK                            x       y       z     vdW  Elec       q    Type
REMARK                         _______ _______ _______ _____ _____    ______ ____
ROOT
ATOM      1  C   UNL A   1     -24.089  -2.580  30.283  0.00  0.00    +0.010 A 
ATOM      2  C   UNL A   1     -24.341  -2.824  29.289  0.00  0.00    +0.080 A 
ATOM      3  C   UNL A   1     -23.907  -1.146  30.505  0.00  0.00    +0.072 A 
ATOM      4  C   UNL A   1     -24.073  -0.225  29.501  0.00  0.00    +0.008 A 
ATOM      5  C   UNL A   1     -24.581  -2.083  28.051  0.00  0.00    +0.011 A 
ATOM      6  C   UNL A   1     -24.407  -0.693  28.256  0.00  0.00    +0.056 A 
ENDROOT
BRANCH   3   7
ATOM      7  C   UNL A   1     -23.595  -0.602  31.862  0.00  0.00    +0.419 C 
ATOM      8  F   UNL A   1     -23.725   0.500  32.061  0.00  0.00    -0.166 F 
ATOM      9  F   UNL A   1     -24.425  -1.261  32.830  0.00  0.00    -0.166 F 
ATOM     10  F   UNL A   1     -22.329  -1.128  32.263  0.00  0.00    -0.166 F 
ENDBRANCH   3   7
BRANCH   2  11
ATOM     11  C   UNL A   1     -24.657  -4.397  28.954  0.00  0.00    +0.388 C 
ATOM     12  O   UNL A   1     -23.871  -5.050  28.237  0.00  0.00    -0.241 OA
ATOM     13  O   UNL A   1     -25.588  -5.020  29.428  0.00  0.00    -0.241 OA
ENDBRANCH   2  11
BRANCH   6  14
ATOM     14  C   UNL A   1     -24.565   0.248  27.115  0.00  0.00    +0.269 C 
ATOM     15  O   UNL A   1     -23.815   0.967  26.745  0.00  0.00    -0.268 OA
ATOM     16  N   UNL A   1     -25.767   0.029  26.397  0.00  0.00    -0.174 NA
BRANCH  16  17
ATOM     17  C   UNL A   1     -26.032   0.786  25.189  0.00  0.00    +0.089 C 
ATOM     18  C   UNL A   1     -27.112   1.306  25.140  0.00  0.00    +0.018 C 
BRANCH  18  19
ATOM     19  C   UNL A   1     -27.862   1.640  23.963  0.00  0.00    +0.001 C 
ATOM     20  C   UNL A   1     -28.803   0.747  23.308  0.00  0.00    +0.000 C 
BRANCH  20  21
ATOM     21  C   UNL A   1     -29.254  -0.334  24.078  0.00  0.00    +0.000 C 
ATOM     22  C   UNL A   1     -29.268  -1.607  23.546  0.00  0.00    +0.000 C 
ENDBRANCH  20  21
ENDBRANCH  18  19
ENDBRANCH  16  17
ENDBRANCH   6  14
TORSDOF 6
ENDMDL
ENDMDL
