MODEL 1444
MODEL 1
REMARK VINA RESULT:    -4.490      0.000      0.000
REMARK INTER + INTRA:          -4.490
REMARK INTER:                  -4.490
REMARK INTRA:                   0.000
REMARK UNBOUND:                 0.000
REMARK  Name = No_1444-gen_results/8p0m/2024-11-27-11-27-31/
REMARK  0 active torsions:
REMARK  status: ('A' for Active; 'I' for Inactive)
REMARK                            x       y       z     vdW  Elec       q    Type
REMARK                         _______ _______ _______ _____ _____    ______ ____
ROOT
ATOM      1  C   UNL A   1     -25.609  -2.697  29.876  0.00  0.00    +0.023 A 
ATOM      2  C   UNL A   1     -26.462  -3.544  30.001  0.00  0.00    +0.059 A 
ATOM      3  C   UNL A   1     -26.235  -4.857  29.603  0.00  0.00    +0.011 A 
ATOM      4  C   UNL A   1     -24.991  -5.239  28.986  0.00  0.00    +0.002 A 
ATOM      5  C   UNL A   1     -24.069  -4.192  28.858  0.00  0.00    +0.011 A 
ATOM      6  C   UNL A   1     -24.339  -2.963  29.235  0.00  0.00    +0.059 A 
ATOM      7 CL   UNL A   1     -28.013  -3.257  30.667  0.00  0.00    -0.082 Cl
ATOM      8 CL   UNL A   1     -23.157  -1.759  28.981  0.00  0.00    -0.082 Cl
ENDROOT
TORSDOF 0
ENDMDL
ENDMDL
