REMARK  Name = outputs/IAG933/test6/raw/output_1446_IAG933_linker_design_.xyz
REMARK  13 active torsions:
REMARK  status: ('A' for Active; 'I' for Inactive)
REMARK    1  A    between atoms: C_1  and  C_2
REMARK    2  A    between atoms: C_1  and  C_8
REMARK    3  A    between atoms: C_1  and  N_38
REMARK    4  A    between atoms: C_13  and  N_31
REMARK    5  A    between atoms: C_14  and  C_15
REMARK    6  A    between atoms: C_21  and  O_22
REMARK    7  A    between atoms: O_22  and  C_23
REMARK    8  A    between atoms: C_23  and  C_24
REMARK    9  A    between atoms: C_28  and  C_36
REMARK   10  A    between atoms: C_30  and  C_36
REMARK   11  A    between atoms: C_30  and  O_41
REMARK   12  A    between atoms: C_33  and  O_41
REMARK   13  A    between atoms: C_35  and  C_36
REMARK                            x       y       z     vdW  Elec       q    Type
REMARK                         _______ _______ _______ _____ _____    ______ ____
ROOT
ATOM      1  C   UNL A   1     -24.477   0.541  28.166  0.00  0.00    +0.138 C 
ATOM      2  N   UNL A   1     -25.135   1.039  27.587  0.00  0.00    -0.243 NA
ATOM      3  C   UNL A   1     -26.312   0.115  28.540  0.00  0.00    +0.121 C 
ATOM      4  C   UNL A   1     -27.397   0.821  28.939  0.00  0.00    +0.036 C 
ATOM      5  N   UNL A   1     -25.150  -0.112  29.001  0.00  0.00    -0.245 NA
ENDROOT
BRANCH   2   6
ATOM      6  C   UNL A   1     -25.688   1.614  26.461  0.00  0.00    +0.130 C 
ATOM      7  C   UNL A   1     -26.250   2.920  26.395  0.00  0.00    +0.070 C 
ATOM      8  C   UNL A   1     -27.438   3.091  25.645  0.00  0.00    +0.103 C 
ATOM      9  N   UNL A   1     -28.075   2.089  25.003  0.00  0.00    -0.212 NA
ATOM     10  C   UNL A   1     -27.543   0.849  25.079  0.00  0.00    +0.235 C 
ATOM     11  C   UNL A   1     -26.354   0.576  25.777  0.00  0.00    +0.255 C 
ATOM     12  F   UNL A   1     -25.860  -0.681  25.795  0.00  0.00    -0.225 F 
BRANCH   7  13
ATOM     13  C   UNL A   1     -25.642   4.093  27.123  0.00  0.00    +0.264 C 
ATOM     14  N   UNL A   1     -25.614   5.252  26.449  0.00  0.00    -0.200 NA
ATOM     15  C   UNL A   1     -25.026   6.479  26.963  0.00  0.00    +0.139 C 
ATOM     16  O   UNL A   1     -25.143   3.966  28.243  0.00  0.00    -0.269 OA
ENDBRANCH   7  13
BRANCH  10  17
ATOM     17  O   UNL A   1     -28.193  -0.208  24.477  0.00  0.00    -0.459 OA
BRANCH  17  18
ATOM     18  C   UNL A   1     -29.460   0.005  23.866  0.00  0.00    +0.242 C 
BRANCH  18  19
ATOM     19  C   UNL A   1     -30.065  -1.377  23.573  0.00  0.00    +0.229 C 
ATOM     20  O   UNL A   1     -30.729  -1.878  24.721  0.00  0.00    -0.216 OA
ENDBRANCH  18  19
ENDBRANCH  17  18
ENDBRANCH  10  17
ENDBRANCH   2   6
BRANCH   5  21
ATOM     21  C   UNL A   1     -24.855  -1.012  30.143  0.00  0.00    +0.098 C 
BRANCH  21  22
ATOM     22  C   UNL A   1     -24.973  -2.505  29.788  0.00  0.00    -0.006 C 
ATOM     23  C   UNL A   1     -23.906  -3.173  29.146  0.00  0.00    -0.003 C 
ATOM     24  C   UNL A   1     -23.989  -4.549  28.853  0.00  0.00    -0.000 C 
ATOM     25  C   UNL A   1     -25.137  -5.280  29.205  0.00  0.00    -0.000 C 
ATOM     26  C   UNL A   1     -26.232  -4.611  29.784  0.00  0.00    -0.000 C 
ATOM     27  C   UNL A   1     -26.155  -3.232  30.065  0.00  0.00    -0.003 C 
ENDBRANCH  21  22
BRANCH  21  28
ATOM     28  C   UNL A   1     -25.387  -0.679  31.571  0.00  0.00    +0.092 C 
ATOM     29  C   UNL A   1     -25.189   0.773  32.028  0.00  0.00    +0.021 C 
ATOM     30  C   UNL A   1     -25.336   0.684  33.544  0.00  0.00    +0.020 C 
ATOM     31  C   UNL A   1     -24.829  -0.715  33.905  0.00  0.00    +0.089 C 
ATOM     32  N   UNL A   1     -24.758  -1.481  32.646  0.00  0.00    -0.218 NA
ENDBRANCH  21  28
ENDBRANCH   5  21
BRANCH   1  33
ATOM     33  C   UNL A   1     -22.905   0.634  27.648  0.00  0.00    +0.172 C 
BRANCH  33  35
ATOM     34  N   UNL A   1     -21.997  -0.669  29.663  0.00  0.00    -0.151 NA
ATOM     35  C   UNL A   1     -22.491  -0.332  28.509  0.00  0.00    +0.109 C 
ENDBRANCH  33  35
BRANCH  33  36
ATOM     36  C   UNL A   1     -21.479   1.123  27.253  0.00  0.00    +0.333 C 
ATOM     37  O   UNL A   1     -20.496   0.859  27.821  0.00  0.00    -0.249 OA
BRANCH  36  38
ATOM     38  O   UNL A   1     -21.498   1.999  26.208  0.00  0.00    -0.375 OA
BRANCH  38  39
ATOM     39  C   UNL A   1     -22.842   2.031  25.809  0.00  0.00    +0.448 C 
ATOM     40  N   UNL A   1     -23.358   0.887  25.785  0.00  0.00    -0.047 NA
ATOM     41  O   UNL A   1     -23.240   3.171  25.655  0.00  0.00    -0.222 OA
ENDBRANCH  38  39
ENDBRANCH  36  38
ENDBRANCH  33  36
ENDBRANCH   1  33
TORSDOF 13
