MODEL 1447
MODEL 1
REMARK VINA RESULT:    -4.921      0.000      0.000
REMARK INTER + INTRA:          -5.284
REMARK INTER:                  -5.209
REMARK INTRA:                  -0.075
REMARK UNBOUND:                -0.075
REMARK  Name = No_1447-gen_results/8p0m/2024-11-27-11-27-31/
REMARK  1 active torsions:
REMARK  status: ('A' for Active; 'I' for Inactive)
REMARK    1  A    between atoms: C_2  and  C_7
REMARK                            x       y       z     vdW  Elec       q    Type
REMARK                         _______ _______ _______ _____ _____    ______ ____
ROOT
ATOM      1  C   UNL A   1     -23.950  -3.474  28.570  0.00  0.00    -0.000 A 
ATOM      2  C   UNL A   1     -24.780  -2.715  29.015  0.00  0.00    -0.000 A 
ATOM      3  C   UNL A   1     -25.940  -3.191  29.616  0.00  0.00    -0.000 A 
ATOM      4  C   UNL A   1     -26.211  -4.603  29.687  0.00  0.00    -0.000 A 
ATOM      5  C   UNL A   1     -25.211  -5.409  29.128  0.00  0.00    -0.000 A 
ATOM      6  C   UNL A   1     -24.140  -4.908  28.556  0.00  0.00    -0.000 A 
ENDROOT
BRANCH   2   7
ATOM      7  C   UNL A   1     -24.678  -1.231  29.004  0.00  0.00    -0.005 C 
ATOM      8  C   UNL A   1     -23.879  -0.574  29.769  0.00  0.00    -0.026 C 
ATOM      9  C   UNL A   1     -23.538  -1.183  31.124  0.00  0.00    +0.031 C 
ENDBRANCH   2   7
TORSDOF 1
ENDMDL
ENDMDL
