MODEL 1448
MODEL 1
REMARK VINA RESULT:    -7.181      0.000      0.000
REMARK INTER + INTRA:          -8.510
REMARK INTER:                  -8.021
REMARK INTRA:                  -0.489
REMARK UNBOUND:                -0.489
REMARK  Name = No_1448-gen_results/8p0m/2024-11-27-11-27-31/
REMARK  2 active torsions:
REMARK  status: ('A' for Active; 'I' for Inactive)
REMARK    1  A    between atoms: C_2  and  C_7
REMARK    2  A    between atoms: C_6  and  C_13
REMARK                            x       y       z     vdW  Elec       q    Type
REMARK                         _______ _______ _______ _____ _____    ______ ____
ROOT
ATOM      1  C   UNL A   1     -24.728  -0.196  28.058  0.00  0.00    +0.004 A 
ATOM      2  C   UNL A   1     -24.211  -1.148  28.593  0.00  0.00    +0.001 A 
ATOM      3  C   UNL A   1     -22.842  -1.180  28.837  0.00  0.00    +0.011 A 
ATOM      4  C   UNL A   1     -21.990  -0.097  28.417  0.00  0.00    +0.058 A 
ATOM      5  C   UNL A   1     -22.667   0.954  27.785  0.00  0.00    +0.015 A 
ATOM      6  C   UNL A   1     -23.962   0.927  27.563  0.00  0.00    +0.072 A 
ATOM      7 CL   UNL A   1     -20.358  -0.110  28.747  0.00  0.00    -0.082 Cl
ENDROOT
BRANCH   2   8
ATOM      8  C   UNL A   1     -24.929  -2.362  29.066  0.00  0.00    +0.003 A 
ATOM      9  C   UNL A   1     -26.087  -2.322  29.624  0.00  0.00    +0.011 A 
ATOM     10  C   UNL A   1     -26.837  -3.430  30.085  0.00  0.00    +0.060 A 
ATOM     11  C   UNL A   1     -26.352  -4.725  29.739  0.00  0.00    +0.041 A 
ATOM     12  C   UNL A   1     -25.180  -4.819  29.041  0.00  0.00    +0.141 A 
ATOM     13  C   UNL A   1     -24.435  -3.655  28.679  0.00  0.00    +0.030 A 
ATOM     14 CL   UNL A   1     -28.226  -3.201  31.023  0.00  0.00    -0.082 Cl
ATOM     15  F   UNL A   1     -24.712  -6.023  28.786  0.00  0.00    -0.204 F 
ENDBRANCH   2   8
BRANCH   6  16
ATOM     16  C   UNL A   1     -24.518   2.071  26.798  0.00  0.00    +0.419 C 
ATOM     17  F   UNL A   1     -25.620   2.203  26.862  0.00  0.00    -0.166 F 
ATOM     18  F   UNL A   1     -23.796   3.206  27.135  0.00  0.00    -0.166 F 
ATOM     19  F   UNL A   1     -24.106   1.844  25.486  0.00  0.00    -0.166 F 
ENDBRANCH   6  16
TORSDOF 2
ENDMDL
ENDMDL
