MODEL 1449
MODEL 1
REMARK VINA RESULT:    -5.954      0.000      0.000
REMARK INTER + INTRA:          -7.579
REMARK INTER:                  -6.998
REMARK INTRA:                  -0.580
REMARK UNBOUND:                -0.580
REMARK  Name = No_1449-gen_results/8p0m/2024-11-27-11-27-31/
REMARK  3 active torsions:
REMARK  status: ('A' for Active; 'I' for Inactive)
REMARK    1  A    between atoms: C_2  and  C_17
REMARK    2  A    between atoms: C_4  and  C_7
REMARK    3  A    between atoms: C_8  and  C_14
REMARK                            x       y       z     vdW  Elec       q    Type
REMARK                         _______ _______ _______ _____ _____    ______ ____
ROOT
ATOM      1  C   UNL A   1     -16.645 -22.826   8.370  0.00  0.00    +0.045 C 
ATOM      2  C   UNL A   1     -16.461 -24.090   7.738  0.00  0.00    +0.111 C 
ATOM      3  C   UNL A   1     -16.116 -25.202   8.533  0.00  0.00    +0.049 C 
ATOM      4  C   UNL A   1     -15.917 -25.026   9.924  0.00  0.00    +0.165 C 
ATOM      5  C   UNL A   1     -17.043 -23.079   9.828  0.00  0.00    +0.095 C 
ATOM      6  N   UNL A   1     -16.328 -24.042  10.495  0.00  0.00    -0.201 NA
ATOM      7  C   UNL A   1     -15.123 -22.181   8.542  0.00  0.00    +0.006 C 
ATOM      8  N   UNL A   1     -15.538 -26.202  10.592  0.00  0.00    -0.114 NA
ENDROOT
BRANCH   1  12
ATOM      9  C   UNL A   1     -17.979 -19.985   6.144  0.00  0.00    +0.006 A 
ATOM     10  C   UNL A   1     -18.987 -20.080   6.437  0.00  0.00    +0.080 A 
ATOM     11  C   UNL A   1     -17.011 -20.921   6.831  0.00  0.00    -0.004 A 
ATOM     12  C   UNL A   1     -17.510 -21.929   7.683  0.00  0.00    -0.021 A 
ATOM     13  C   UNL A   1     -19.758 -21.043   7.256  0.00  0.00    +0.006 A 
ATOM     14  C   UNL A   1     -18.901 -21.925   7.899  0.00  0.00    -0.004 A 
BRANCH  10  15
ATOM     15  C   UNL A   1     -19.999 -19.085   5.679  0.00  0.00    +0.388 C 
ATOM     16  O   UNL A   1     -20.004 -17.943   5.734  0.00  0.00    -0.241 OA
ATOM     17  O   UNL A   1     -20.891 -19.702   4.943  0.00  0.00    -0.241 OA
ENDBRANCH  10  15
ENDBRANCH   1  12
BRANCH   2  18
ATOM     18  C   UNL A   1     -16.433 -24.257   6.282  0.00  0.00    +0.365 C 
ATOM     19  O   UNL A   1     -15.328 -24.031   5.685  0.00  0.00    -0.246 OA
ATOM     20  O   UNL A   1     -17.517 -24.679   5.645  0.00  0.00    -0.246 OA
ENDBRANCH   2  18
TORSDOF 3
ENDMDL
ENDMDL
