MODEL 144
MODEL 1
REMARK VINA RESULT:    -5.389      0.000      0.000
REMARK INTER + INTRA:          -5.389
REMARK INTER:                  -5.389
REMARK INTRA:                   0.000
REMARK UNBOUND:                 0.000
REMARK  Name = No_144-gen_results/8p0m/2024-11-27-11-27-31/
REMARK  0 active torsions:
REMARK  status: ('A' for Active; 'I' for Inactive)
REMARK                            x       y       z     vdW  Elec       q    Type
REMARK                         _______ _______ _______ _____ _____    ______ ____
ROOT
ATOM      1  C   UNL A   1     -26.487  -3.875  29.952  0.00  0.00    +0.019 A 
ATOM      2  C   UNL A   1     -26.182  -4.837  29.649  0.00  0.00    +0.002 A 
ATOM      3  C   UNL A   1     -25.502  -2.792  29.800  0.00  0.00    +0.081 A 
ATOM      4  C   UNL A   1     -24.259  -3.031  29.144  0.00  0.00    +0.018 A 
ATOM      5  C   UNL A   1     -24.026  -4.324  28.748  0.00  0.00    +0.002 A 
ATOM      6  C   UNL A   1     -24.956  -5.284  28.936  0.00  0.00    +0.000 A 
ATOM      7  C   UNL A   1     -23.290  -1.963  28.974  0.00  0.00    +0.003 A 
ATOM      8  C   UNL A   1     -23.411  -0.773  29.303  0.00  0.00    +0.021 A 
ATOM      9  C   UNL A   1     -24.299  -0.388  30.243  0.00  0.00    +0.099 A 
ATOM     10  N   UNL A   1     -25.380  -1.420  30.355  0.00  0.00    -0.244 NA
ENDROOT
TORSDOF 0
ENDMDL
ENDMDL
