REMARK  Name = No_1450-gen_results/8p0m/2024-11-27-11-27-31/
REMARK  3 active torsions:
REMARK  status: ('A' for Active; 'I' for Inactive)
REMARK    1  A    between atoms: C_2  and  C_14
REMARK    2  A    between atoms: C_4  and  O_7
REMARK    3  A    between atoms: O_7  and  C_8
REMARK                            x       y       z     vdW  Elec       q    Type
REMARK                         _______ _______ _______ _____ _____    ______ ____
ROOT
ATOM      1  C   UNL A   1     -28.016  -0.814  28.878  0.00  0.00    +0.039 A 
ATOM      2  C   UNL A   1     -28.469  -0.785  29.829  0.00  0.00    +0.082 A 
ATOM      3  C   UNL A   1     -26.504  -0.778  28.877  0.00  0.00    +0.175 A 
ATOM      4  C   UNL A   1     -25.810  -0.853  30.103  0.00  0.00    +0.172 A 
ATOM      5  C   UNL A   1     -27.991  -0.892  31.226  0.00  0.00    +0.010 A 
ATOM      6  C   UNL A   1     -26.604  -0.868  31.265  0.00  0.00    +0.040 A 
ATOM      7  F   UNL A   1     -25.854  -0.764  27.725  0.00  0.00    -0.201 F 
ENDROOT
BRANCH   2   8
ATOM      8  C   UNL A   1     -30.091  -0.797  29.827  0.00  0.00    +0.388 C 
ATOM      9  O   UNL A   1     -30.758  -1.605  30.306  0.00  0.00    -0.241 OA
ATOM     10  O   UNL A   1     -30.601   0.172  29.160  0.00  0.00    -0.241 OA
ENDBRANCH   2   8
BRANCH   4  11
ATOM     11  O   UNL A   1     -24.500  -0.782  30.145  0.00  0.00    -0.451 OA
BRANCH  11  12
ATOM     12  C   UNL A   1     -23.846   0.295  29.610  0.00  0.00    +0.145 A 
ATOM     13  C   UNL A   1     -23.613   1.341  30.333  0.00  0.00    +0.037 A 
ATOM     14  C   UNL A   1     -23.155   2.538  29.727  0.00  0.00    +0.003 A 
ATOM     15  C   UNL A   1     -22.777   2.469  28.365  0.00  0.00    +0.000 A 
ATOM     16  C   UNL A   1     -23.463   0.396  28.244  0.00  0.00    +0.037 A 
ATOM     17  C   UNL A   1     -22.965   1.349  27.669  0.00  0.00    +0.003 A 
ENDBRANCH  11  12
ENDBRANCH   4  11
TORSDOF 3
