MODEL 1450
MODEL 1
REMARK VINA RESULT:    -6.359      0.000      0.000
REMARK INTER + INTRA:          -7.950
REMARK INTER:                  -7.475
REMARK INTRA:                  -0.475
REMARK UNBOUND:                -0.475
REMARK  Name = No_1450-gen_results/8p0m/2024-11-27-11-27-31/
REMARK  3 active torsions:
REMARK  status: ('A' for Active; 'I' for Inactive)
REMARK    1  A    between atoms: C_2  and  C_14
REMARK    2  A    between atoms: C_4  and  O_7
REMARK    3  A    between atoms: O_7  and  C_8
REMARK                            x       y       z     vdW  Elec       q    Type
REMARK                         _______ _______ _______ _____ _____    ______ ____
ROOT
ATOM      1  C   UNL A   1     -23.834  -3.019  29.132  0.00  0.00    +0.039 A 
ATOM      2  C   UNL A   1     -24.878  -3.108  29.247  0.00  0.00    +0.082 A 
ATOM      3  C   UNL A   1     -23.305  -1.603  29.091  0.00  0.00    +0.175 A 
ATOM      4  C   UNL A   1     -24.183  -0.528  29.345  0.00  0.00    +0.172 A 
ATOM      5  C   UNL A   1     -25.986  -2.178  29.559  0.00  0.00    +0.010 A 
ATOM      6  C   UNL A   1     -25.536  -0.865  29.536  0.00  0.00    +0.040 A 
ATOM      7  F   UNL A   1     -22.011  -1.397  28.903  0.00  0.00    -0.201 F 
ENDROOT
BRANCH   2   8
ATOM      8  C   UNL A   1     -25.447  -4.627  29.265  0.00  0.00    +0.388 C 
ATOM      9  O   UNL A   1     -24.919  -5.549  28.819  0.00  0.00    -0.241 OA
ATOM     10  O   UNL A   1     -26.619  -4.720  29.776  0.00  0.00    -0.241 OA
ENDBRANCH   2   8
BRANCH   4  11
ATOM     11  O   UNL A   1     -23.769   0.716  29.276  0.00  0.00    -0.451 OA
BRANCH  11  12
ATOM     12  C   UNL A   1     -23.498   1.290  28.064  0.00  0.00    +0.145 A 
ATOM     13  C   UNL A   1     -24.450   1.508  27.218  0.00  0.00    +0.037 A 
ATOM     14  C   UNL A   1     -24.147   1.878  25.884  0.00  0.00    +0.003 A 
ATOM     15  C   UNL A   1     -22.799   2.192  25.591  0.00  0.00    +0.000 A 
ATOM     16  C   UNL A   1     -22.188   1.601  27.606  0.00  0.00    +0.037 A 
ATOM     17  C   UNL A   1     -21.852   2.024  26.512  0.00  0.00    +0.003 A 
ENDBRANCH  11  12
ENDBRANCH   4  11
TORSDOF 3
ENDMDL
ENDMDL
