REMARK  Name = outputs/IAG933/test6/raw/output_1451_IAG933_linker_design_.xyz
REMARK  17 active torsions:
REMARK  status: ('A' for Active; 'I' for Inactive)
REMARK    1  A    between atoms: C_1  and  C_2
REMARK    2  A    between atoms: C_1  and  C_8
REMARK    3  A    between atoms: C_1  and  N_29
REMARK    4  A    between atoms: C_14  and  C_15
REMARK    5  A    between atoms: C_15  and  O_18
REMARK    6  A    between atoms: O_18  and  C_36
REMARK    7  A    between atoms: C_21  and  O_22
REMARK    8  A    between atoms: O_22  and  C_23
REMARK    9  A    between atoms: C_23  and  C_24
REMARK   10  A    between atoms: N_29  and  C_40
REMARK   11  A    between atoms: C_31  and  O_45
REMARK   12  A    between atoms: C_32  and  C_36
REMARK   13  A    between atoms: C_33  and  C_41
REMARK   14  A    between atoms: C_34  and  C_42
REMARK   15  A    between atoms: C_34  and  O_45
REMARK   16  A    between atoms: C_39  and  C_42
REMARK   17  A    between atoms: C_41  and  C_44
REMARK                            x       y       z     vdW  Elec       q    Type
REMARK                         _______ _______ _______ _____ _____    ______ ____
ROOT
ATOM      1  O   UNL A   1     -27.108   0.896  29.203  0.00  0.00    -0.354 OA
ATOM      2  C   UNL A   1     -26.767   3.051  29.793  0.00  0.00    +0.146 C 
ATOM      3  C   UNL A   1     -26.056   1.724  29.495  0.00  0.00    +0.202 C 
ATOM      4  N   UNL A   1     -28.235   1.579  29.785  0.00  0.00    -0.085 NA
ATOM      5  C   UNL A   1     -27.909   2.679  30.484  0.00  0.00    +0.088 C 
ATOM      6  C   UNL A   1     -24.536   1.409  29.574  0.00  0.00    +0.212 C 
ENDROOT
BRANCH   6   7
ATOM      7  N   UNL A   1     -24.018   0.005  29.306  0.00  0.00    -0.161 N 
ATOM      8  C   UNL A   1     -22.773   0.394  28.919  0.00  0.00    +0.391 C 
ATOM      9  N   UNL A   1     -22.522  -0.007  29.951  0.00  0.00    +0.191 NA
BRANCH   8  10
ATOM     10  C   UNL A   1     -22.216   1.126  27.799  0.00  0.00    +0.289 C 
ATOM     11  F   UNL A   1     -20.803   1.059  27.612  0.00  0.00    -0.222 F 
BRANCH  10  13
ATOM     12  N   UNL A   1     -22.508   2.306  25.488  0.00  0.00    -0.128 NA
ATOM     13  C   UNL A   1     -22.449   1.796  26.672  0.00  0.00    +0.157 C 
ENDBRANCH  10  13
ENDBRANCH   8  10
BRANCH   7  14
ATOM     14  C   UNL A   1     -24.855  -1.012  30.143  0.00  0.00    +0.203 C 
BRANCH  14  15
ATOM     15  C   UNL A   1     -24.973  -2.505  29.788  0.00  0.00    +0.022 C 
ATOM     16  C   UNL A   1     -23.906  -3.173  29.146  0.00  0.00    -0.000 C 
ATOM     17  C   UNL A   1     -23.989  -4.549  28.853  0.00  0.00    -0.000 C 
ATOM     18  C   UNL A   1     -25.137  -5.280  29.205  0.00  0.00    -0.000 C 
ATOM     19  C   UNL A   1     -26.232  -4.611  29.784  0.00  0.00    -0.000 C 
ATOM     20  C   UNL A   1     -26.155  -3.232  30.065  0.00  0.00    -0.000 C 
ENDBRANCH  14  15
BRANCH  14  21
ATOM     21  C   UNL A   1     -25.387  -0.679  31.571  0.00  0.00    +0.120 C 
ATOM     22  C   UNL A   1     -25.189   0.773  32.028  0.00  0.00    +0.023 C 
ATOM     23  C   UNL A   1     -25.336   0.684  33.544  0.00  0.00    +0.020 C 
ATOM     24  C   UNL A   1     -24.829  -0.715  33.905  0.00  0.00    +0.089 C 
ATOM     25  N   UNL A   1     -24.758  -1.481  32.646  0.00  0.00    -0.215 NA
ENDBRANCH  14  21
ENDBRANCH   7  14
ENDBRANCH   6   7
BRANCH   2  26
ATOM     26  C   UNL A   1     -25.873   4.250  29.434  0.00  0.00    +0.221 C 
BRANCH  26  27
ATOM     27  O   UNL A   1     -25.143   3.966  28.243  0.00  0.00    -0.460 OA
BRANCH  27  28
ATOM     28  C   UNL A   1     -25.642   4.093  27.123  0.00  0.00    +0.222 C 
ATOM     29  N   UNL A   1     -25.614   5.252  26.449  0.00  0.00    -0.236 NA
ATOM     30  C   UNL A   1     -25.026   6.479  26.963  0.00  0.00    +0.155 C 
BRANCH  28  32
ATOM     31  C   UNL A   1     -25.688   1.614  26.461  0.00  0.00    +0.041 C 
ATOM     32  C   UNL A   1     -26.250   2.920  26.395  0.00  0.00    +0.074 C 
ATOM     33  C   UNL A   1     -27.438   3.091  25.645  0.00  0.00    +0.107 C 
ATOM     34  N   UNL A   1     -28.075   2.089  25.003  0.00  0.00    -0.208 NA
ATOM     35  C   UNL A   1     -27.543   0.849  25.079  0.00  0.00    +0.253 C 
ATOM     36  C   UNL A   1     -26.354   0.576  25.777  0.00  0.00    +0.193 C 
ATOM     37  F   UNL A   1     -25.860  -0.681  25.795  0.00  0.00    -0.199 F 
BRANCH  35  38
ATOM     38  O   UNL A   1     -28.193  -0.208  24.477  0.00  0.00    -0.456 OA
BRANCH  38  39
ATOM     39  C   UNL A   1     -29.460   0.005  23.866  0.00  0.00    +0.243 C 
BRANCH  39  40
ATOM     40  C   UNL A   1     -30.065  -1.377  23.573  0.00  0.00    +0.229 C 
ATOM     41  O   UNL A   1     -30.729  -1.878  24.721  0.00  0.00    -0.216 OA
ENDBRANCH  39  40
ENDBRANCH  38  39
ENDBRANCH  35  38
ENDBRANCH  28  32
ENDBRANCH  27  28
ENDBRANCH  26  27
ENDBRANCH   2  26
BRANCH   5  42
ATOM     42  C   UNL A   1     -29.099   3.480  31.066  0.00  0.00    +0.077 C 
BRANCH  42  43
ATOM     43  C   UNL A   1     -28.639   4.886  31.346  0.00  0.00    +0.151 C 
BRANCH  43  44
ATOM     44  O   UNL A   1     -27.722   5.024  32.358  0.00  0.00    -0.324 OA
BRANCH  44  46
ATOM     45  O   UNL A   1     -27.059   3.615  34.064  0.00  0.00    -0.184 OA
ATOM     46  C   UNL A   1     -28.127   4.552  33.683  0.00  0.00    +0.329 C 
ENDBRANCH  44  46
ENDBRANCH  43  44
ENDBRANCH  42  43
ENDBRANCH   5  42
TORSDOF 17
