MODEL 1452
MODEL 1
REMARK VINA RESULT:    -5.010      0.000      0.000
REMARK INTER + INTRA:          -5.010
REMARK INTER:                  -5.010
REMARK INTRA:                   0.000
REMARK UNBOUND:                 0.000
REMARK  Name = No_1452-gen_results/8p0m/2024-11-27-11-27-31/
REMARK  0 active torsions:
REMARK  status: ('A' for Active; 'I' for Inactive)
REMARK                            x       y       z     vdW  Elec       q    Type
REMARK                         _______ _______ _______ _____ _____    ______ ____
ROOT
ATOM      1  C   UNL A   1     -10.482  -9.334  19.147  0.00  0.00    +0.042 A 
ATOM      2  C   UNL A   1      -9.718  -9.147  20.066  0.00  0.00    +0.003 A 
ATOM      3  C   UNL A   1      -8.432  -9.675  20.051  0.00  0.00    +0.000 A 
ATOM      4  C   UNL A   1      -7.984 -10.501  18.960  0.00  0.00    +0.003 A 
ATOM      5  C   UNL A   1      -8.938 -10.686  17.951  0.00  0.00    +0.042 A 
ATOM      6  C   UNL A   1     -10.147 -10.178  18.021  0.00  0.00    +0.196 A 
ATOM      7  O   UNL A   1     -11.027 -10.438  17.015  0.00  0.00    -0.287 OA
ENDROOT
TORSDOF 0
ENDMDL
ENDMDL
