MODEL 1454
MODEL 1
REMARK VINA RESULT:    -5.406      0.000      0.000
REMARK INTER + INTRA:          -6.555
REMARK INTER:                  -6.038
REMARK INTRA:                  -0.517
REMARK UNBOUND:                -0.517
REMARK  Name = No_1454-gen_results/8p0m/2024-11-27-11-27-31/
REMARK  2 active torsions:
REMARK  status: ('A' for Active; 'I' for Inactive)
REMARK    1  A    between atoms: C_3  and  C_7
REMARK    2  A    between atoms: C_8  and  C_9
REMARK                            x       y       z     vdW  Elec       q    Type
REMARK                         _______ _______ _______ _____ _____    ______ ____
ROOT
ATOM      1  C   UNL A   1     -24.200  -4.927  28.621  0.00  0.00    +0.000 A 
ATOM      2  C   UNL A   1     -23.843  -3.774  28.544  0.00  0.00    -0.000 A 
ATOM      3  C   UNL A   1     -24.486  -2.711  28.933  0.00  0.00    -0.000 A 
ATOM      4  C   UNL A   1     -25.779  -2.883  29.514  0.00  0.00    -0.000 A 
ATOM      5  C   UNL A   1     -26.177  -4.165  29.693  0.00  0.00    +0.000 A 
ATOM      6  C   UNL A   1     -25.402  -5.222  29.292  0.00  0.00    +0.000 A 
ENDROOT
BRANCH   3   7
ATOM      7  C   UNL A   1     -24.006  -1.303  28.735  0.00  0.00    -0.000 C 
ATOM      8  C   UNL A   1     -23.293  -0.673  29.226  0.00  0.00    -0.000 C 
BRANCH   8   9
ATOM      9  C   UNL A   1     -22.815  -0.934  30.599  0.00  0.00    -0.005 C 
ATOM     10  C   UNL A   1     -23.463  -0.385  31.762  0.00  0.00    -0.026 C 
ATOM     11  C   UNL A   1     -24.375   0.607  31.618  0.00  0.00    +0.031 C 
ENDBRANCH   8   9
ENDBRANCH   3   7
TORSDOF 2
ENDMDL
ENDMDL
