REMARK  Name = outputs/IAG933/test6/raw/output_1455_IAG933_linker_design_.xyz
REMARK  12 active torsions:
REMARK  status: ('A' for Active; 'I' for Inactive)
REMARK    1  A    between atoms: C_1  and  C_2
REMARK    2  A    between atoms: C_1  and  C_8
REMARK    3  A    between atoms: C_1  and  N_36
REMARK    4  A    between atoms: C_13  and  N_34
REMARK    5  A    between atoms: C_14  and  C_15
REMARK    6  A    between atoms: C_21  and  O_22
REMARK    7  A    between atoms: O_22  and  C_23
REMARK    8  A    between atoms: C_23  and  C_24
REMARK    9  A    between atoms: C_28  and  N_34
REMARK   10  A    between atoms: C_31  and  C_33
REMARK   11  A    between atoms: N_36  and  C_39
REMARK   12  A    between atoms: C_39  and  C_42
REMARK                            x       y       z     vdW  Elec       q    Type
REMARK                         _______ _______ _______ _____ _____    ______ ____
ROOT
ATOM      1  C   UNL A   1     -23.426   1.287  27.166  0.00  0.00    +0.091 C 
ATOM      2  C   UNL A   1     -22.741   0.024  29.011  0.00  0.00    -0.001 C 
ATOM      3  C   UNL A   1     -21.426   0.472  28.850  0.00  0.00    +0.002 C 
ATOM      4  C   UNL A   1     -22.167   1.648  26.914  0.00  0.00    +0.155 C 
ATOM      5  C   UNL A   1     -21.140   1.280  27.764  0.00  0.00    +0.031 C 
ATOM      6  F   UNL A   1     -21.884   2.274  25.755  0.00  0.00    -0.203 F 
ATOM      7  C   UNL A   1     -23.753   0.337  28.105  0.00  0.00    +0.015 C 
ENDROOT
BRANCH   1   8
ATOM      8  N   UNL A   1     -24.389   1.832  26.459  0.00  0.00    -0.229 NA
BRANCH   8   9
ATOM      9  C   UNL A   1     -25.688   1.614  26.461  0.00  0.00    +0.162 C 
ATOM     10  C   UNL A   1     -26.250   2.920  26.395  0.00  0.00    +0.075 C 
ATOM     11  C   UNL A   1     -27.438   3.091  25.645  0.00  0.00    +0.104 C 
ATOM     12  N   UNL A   1     -28.075   2.089  25.003  0.00  0.00    -0.212 NA
ATOM     13  C   UNL A   1     -27.543   0.849  25.079  0.00  0.00    +0.236 C 
ATOM     14  C   UNL A   1     -26.354   0.576  25.777  0.00  0.00    +0.260 C 
ATOM     15  F   UNL A   1     -25.860  -0.681  25.795  0.00  0.00    -0.225 F 
BRANCH  10  16
ATOM     16  C   UNL A   1     -25.642   4.093  27.123  0.00  0.00    +0.264 C 
ATOM     17  N   UNL A   1     -25.614   5.252  26.449  0.00  0.00    -0.200 NA
ATOM     18  C   UNL A   1     -25.026   6.479  26.963  0.00  0.00    +0.139 C 
ATOM     19  O   UNL A   1     -25.143   3.966  28.243  0.00  0.00    -0.269 OA
ENDBRANCH  10  16
BRANCH  13  20
ATOM     20  O   UNL A   1     -28.193  -0.208  24.477  0.00  0.00    -0.459 OA
BRANCH  20  21
ATOM     21  C   UNL A   1     -29.460   0.005  23.866  0.00  0.00    +0.242 C 
BRANCH  21  22
ATOM     22  C   UNL A   1     -30.065  -1.377  23.573  0.00  0.00    +0.229 C 
ATOM     23  O   UNL A   1     -30.729  -1.878  24.721  0.00  0.00    -0.216 OA
ENDBRANCH  21  22
ENDBRANCH  20  21
ENDBRANCH  13  20
ENDBRANCH   8   9
ENDBRANCH   1   8
BRANCH   7  24
ATOM     24  C   UNL A   1     -25.180  -0.259  27.959  0.00  0.00    +0.122 C 
BRANCH  24  26
ATOM     25  C   UNL A   1     -26.880   0.375  29.358  0.00  0.00    +0.249 C 
ATOM     26  N   UNL A   1     -25.776  -0.219  29.229  0.00  0.00    -0.268 N 
ATOM     27  O   UNL A   1     -27.904  -0.301  29.065  0.00  0.00    -0.270 OA
BRANCH  25  29
ATOM     28  C   UNL A   1     -28.183   4.160  30.078  0.00  0.00    +0.031 C 
ATOM     29  C   UNL A   1     -26.863   1.961  29.691  0.00  0.00    +0.053 C 
ATOM     30  C   UNL A   1     -28.199   2.636  29.977  0.00  0.00    -0.021 C 
ENDBRANCH  25  29
BRANCH  26  31
ATOM     31  C   UNL A   1     -24.855  -1.012  30.143  0.00  0.00    +0.114 C 
BRANCH  31  32
ATOM     32  C   UNL A   1     -24.973  -2.505  29.788  0.00  0.00    -0.003 C 
ATOM     33  C   UNL A   1     -23.906  -3.173  29.146  0.00  0.00    -0.003 C 
ATOM     34  C   UNL A   1     -23.989  -4.549  28.853  0.00  0.00    -0.000 C 
ATOM     35  C   UNL A   1     -25.137  -5.280  29.205  0.00  0.00    -0.000 C 
ATOM     36  C   UNL A   1     -26.232  -4.611  29.784  0.00  0.00    -0.000 C 
ATOM     37  C   UNL A   1     -26.155  -3.232  30.065  0.00  0.00    -0.003 C 
ENDBRANCH  31  32
BRANCH  31  38
ATOM     38  C   UNL A   1     -25.387  -0.679  31.571  0.00  0.00    +0.095 C 
ATOM     39  C   UNL A   1     -25.189   0.773  32.028  0.00  0.00    +0.021 C 
ATOM     40  C   UNL A   1     -25.336   0.684  33.544  0.00  0.00    +0.020 C 
ATOM     41  C   UNL A   1     -24.829  -0.715  33.905  0.00  0.00    +0.089 C 
ATOM     42  N   UNL A   1     -24.758  -1.481  32.646  0.00  0.00    -0.217 NA
ENDBRANCH  31  38
ENDBRANCH  26  31
ENDBRANCH  24  26
ENDBRANCH   7  24
TORSDOF 12
