MODEL 1455
MODEL 1
REMARK VINA RESULT:    -6.841      0.000      0.000
REMARK INTER + INTRA:         -12.635
REMARK INTER:                 -10.041
REMARK INTRA:                  -2.593
REMARK UNBOUND:                -2.593
REMARK  Name = No_1455-gen_results/8p0m/2024-11-27-11-27-31/
REMARK  8 active torsions:
REMARK  status: ('A' for Active; 'I' for Inactive)
REMARK    1  A    between atoms: C_1  and  O_16
REMARK    2  A    between atoms: C_3  and  C_7
REMARK    3  A    between atoms: O_16  and  C_17
REMARK    4  A    between atoms: C_17  and  C_18
REMARK    5  A    between atoms: C_18  and  O_20
REMARK    6  A    between atoms: O_20  and  C_22
REMARK    7  A    between atoms: C_22  and  C_23
REMARK    8  A    between atoms: C_24  and  C_25
REMARK                            x       y       z     vdW  Elec       q    Type
REMARK                         _______ _______ _______ _____ _____    ______ ____
ROOT
ATOM      1  C   UNL A   1     -24.727 -14.468   6.270  0.00  0.00    +0.423 C 
ATOM      2  O   UNL A   1     -23.873 -14.883   7.163  0.00  0.00    -0.237 OA
ENDROOT
BRANCH   1   3
ATOM      3  C   UNL A   1     -24.680 -13.417   5.575  0.00  0.00    +0.419 C 
ATOM      4  O   UNL A   1     -24.170 -13.340   4.547  0.00  0.00    -0.237 OA
BRANCH   3   5
ATOM      5  O   UNL A   1     -25.258 -12.268   6.023  0.00  0.00    -0.436 OA
BRANCH   5   6
ATOM      6  C   UNL A   1     -26.071 -11.508   5.613  0.00  0.00    +0.235 C 
BRANCH   6   7
ATOM      7  C   UNL A   1     -25.851 -10.203   5.717  0.00  0.00    +0.016 C 
ATOM      8  C   UNL A   1     -26.451  -9.424   6.424  0.00  0.00    -0.025 C 
BRANCH   8   9
ATOM      9  C   UNL A   1     -27.442  -9.903   7.355  0.00  0.00    +0.046 C 
ATOM     10  C   UNL A   1     -27.261 -10.312   8.753  0.00  0.00    +0.034 C 
ATOM     11  C   UNL A   1     -28.379 -10.606   9.500  0.00  0.00    -0.009 A 
ATOM     12  C   UNL A   1     -28.540 -11.609  10.186  0.00  0.00    -0.003 A 
ATOM     13  C   UNL A   1     -29.806 -11.939  10.880  0.00  0.00    -0.000 A 
ATOM     14  C   UNL A   1     -30.852 -11.020  10.702  0.00  0.00    +0.001 A 
ATOM     15  C   UNL A   1     -30.616  -9.826  10.096  0.00  0.00    +0.014 A 
ATOM     16  C   UNL A   1     -29.429  -9.620   9.431  0.00  0.00    +0.044 A 
ATOM     17  N   UNL A   1     -29.146  -8.775   8.441  0.00  0.00    -0.306 N 
ATOM     18  C   UNL A   1     -28.840  -7.411   8.581  0.00  0.00    +0.112 C 
ATOM     19  C   UNL A   1     -28.290  -9.325   7.470  0.00  0.00    +0.095 C 
ENDBRANCH   8   9
ENDBRANCH   6   7
ENDBRANCH   5   6
ENDBRANCH   3   5
ENDBRANCH   1   3
BRANCH   1  20
ATOM     20  O   UNL A   1     -25.759 -15.222   5.966  0.00  0.00    -0.413 OA
BRANCH  20  21
ATOM     21  C   UNL A   1     -26.460 -15.912   6.880  0.00  0.00    +0.187 A 
ATOM     22  C   UNL A   1     -27.404 -15.505   7.516  0.00  0.00    +0.094 A 
ATOM     23  C   UNL A   1     -28.094 -16.276   8.450  0.00  0.00    +0.014 A 
ATOM     24  C   UNL A   1     -27.712 -17.661   8.644  0.00  0.00    +0.003 A 
ATOM     25  C   UNL A   1     -26.631 -18.095   7.876  0.00  0.00    +0.033 A 
ATOM     26  C   UNL A   1     -26.042 -17.299   7.005  0.00  0.00    +0.175 A 
ATOM     27  F   UNL A   1     -25.014 -17.767   6.291  0.00  0.00    -0.201 F 
ATOM     28 CL   UNL A   1     -27.917 -13.805   7.377  0.00  0.00    -0.079 Cl
BRANCH  23  29
ATOM     29  C   UNL A   1     -29.259 -15.842   9.275  0.00  0.00    +0.003 A 
ATOM     30  C   UNL A   1     -29.207 -15.797  10.573  0.00  0.00    +0.030 A 
ATOM     31  C   UNL A   1     -30.361 -15.454  11.356  0.00  0.00    +0.140 A 
ATOM     32  C   UNL A   1     -31.592 -15.281  10.825  0.00  0.00    +0.030 A 
ATOM     33  C   UNL A   1     -30.576 -15.667   8.644  0.00  0.00    +0.000 A 
ATOM     34  C   UNL A   1     -31.715 -15.381   9.454  0.00  0.00    +0.002 A 
ATOM     35  F   UNL A   1     -30.182 -15.352  12.695  0.00  0.00    -0.204 F 
ENDBRANCH  23  29
ENDBRANCH  20  21
ENDBRANCH   1  20
TORSDOF 8
ENDMDL
ENDMDL
