MODEL 1456
MODEL 1
REMARK VINA RESULT:    -6.334      0.000      0.000
REMARK INTER + INTRA:          -8.597
REMARK INTER:                  -7.815
REMARK INTRA:                  -0.782
REMARK UNBOUND:                -0.782
REMARK  Name = No_1456-gen_results/8p0m/2024-11-27-11-27-31/
REMARK  4 active torsions:
REMARK  status: ('A' for Active; 'I' for Inactive)
REMARK    1  A    between atoms: C_1  and  C_2
REMARK    2  A    between atoms: C_1  and  N_8
REMARK    3  A    between atoms: C_3  and  C_17
REMARK    4  A    between atoms: C_5  and  C_10
REMARK                            x       y       z     vdW  Elec       q    Type
REMARK                         _______ _______ _______ _____ _____    ______ ____
ROOT
ATOM      1  C   UNL A   1     -25.088   0.420  26.070  0.00  0.00    -0.010 A 
ATOM      2  C   UNL A   1     -24.065   1.273  26.472  0.00  0.00    -0.025 A 
ATOM      3  C   UNL A   1     -23.154   1.068  27.635  0.00  0.00    +0.002 A 
ATOM      4  C   UNL A   1     -23.473  -0.026  28.492  0.00  0.00    +0.079 A 
ATOM      5  C   UNL A   1     -24.552  -0.843  28.099  0.00  0.00    +0.006 A 
ATOM      6  C   UNL A   1     -25.304  -0.636  27.008  0.00  0.00    -0.003 A 
ENDROOT
BRANCH   4   7
ATOM      7  C   UNL A   1     -22.617  -0.206  29.643  0.00  0.00    +0.388 C 
ATOM      8  O   UNL A   1     -21.506  -0.685  29.505  0.00  0.00    -0.241 OA
ATOM      9  O   UNL A   1     -23.062  -0.045  30.872  0.00  0.00    -0.241 OA
ENDBRANCH   4   7
BRANCH   2  10
ATOM     10  C   UNL A   1     -23.638   2.483  25.684  0.00  0.00    +0.022 C 
ATOM     11  C   UNL A   1     -22.475   2.354  25.028  0.00  0.00    +0.005 C 
ATOM     12  C   UNL A   1     -24.285   3.678  25.927  0.00  0.00    +0.005 C 
ENDBRANCH   2  10
BRANCH   1  13
ATOM     13  C   UNL A   1     -25.768   0.673  25.103  0.00  0.00    +0.099 C 
BRANCH  13  14
ATOM     14  N   UNL A   1     -27.094   0.923  25.384  0.00  0.00    -0.269 NA
ATOM     15  C   UNL A   1     -27.515   2.214  25.468  0.00  0.00    +0.072 C 
ATOM     16  C   UNL A   1     -28.042   2.874  24.508  0.00  0.00    +0.017 C 
ATOM     17  C   UNL A   1     -28.558   2.088  23.461  0.00  0.00    +0.003 C 
ATOM     18  C   UNL A   1     -28.931   0.835  23.632  0.00  0.00    +0.017 C 
ATOM     19  C   UNL A   1     -27.933   0.305  24.115  0.00  0.00    +0.072 C 
ENDBRANCH  13  14
ENDBRANCH   1  13
TORSDOF 4
ENDMDL
ENDMDL
