MODEL 1457
MODEL 1
REMARK VINA RESULT:    -8.106      0.000      0.000
REMARK INTER + INTRA:         -10.161
REMARK INTER:                  -9.527
REMARK INTRA:                  -0.634
REMARK UNBOUND:                -0.634
REMARK  Name = No_1457-gen_results/8p0m/2024-11-27-11-27-31/
REMARK  3 active torsions:
REMARK  status: ('A' for Active; 'I' for Inactive)
REMARK    1  A    between atoms: C_1  and  O_16
REMARK    2  A    between atoms: C_3  and  C_9
REMARK    3  A    between atoms: O_16  and  C_17
REMARK                            x       y       z     vdW  Elec       q    Type
REMARK                         _______ _______ _______ _____ _____    ______ ____
ROOT
ATOM      1  C   UNL A   1     -23.456   0.685  27.509  0.00  0.00    +0.183 A 
ATOM      2  C   UNL A   1     -24.149  -0.270  27.775  0.00  0.00    +0.094 A 
ATOM      3  C   UNL A   1     -23.730  -1.227  28.693  0.00  0.00    +0.014 A 
ATOM      4  C   UNL A   1     -22.438  -1.135  29.322  0.00  0.00    +0.003 A 
ATOM      5  C   UNL A   1     -21.693  -0.012  28.940  0.00  0.00    +0.033 A 
ATOM      6  C   UNL A   1     -22.127   0.855  28.054  0.00  0.00    +0.175 A 
ATOM      7 CL   UNL A   1     -25.689  -0.563  27.087  0.00  0.00    -0.079 Cl
ATOM      8  F   UNL A   1     -21.361   1.892  27.748  0.00  0.00    -0.201 F 
ENDROOT
BRANCH   3   9
ATOM      9  C   UNL A   1     -24.540  -2.462  29.120  0.00  0.00    +0.003 A 
ATOM     10  C   UNL A   1     -24.348  -3.641  28.658  0.00  0.00    +0.030 A 
ATOM     11  C   UNL A   1     -25.129  -4.774  29.022  0.00  0.00    +0.140 A 
ATOM     12  C   UNL A   1     -26.328  -4.551  29.750  0.00  0.00    +0.030 A 
ATOM     13  C   UNL A   1     -25.834  -2.210  29.765  0.00  0.00    +0.000 A 
ATOM     14  C   UNL A   1     -26.681  -3.339  30.096  0.00  0.00    +0.002 A 
ATOM     15  F   UNL A   1     -24.734  -5.988  28.632  0.00  0.00    -0.204 F 
ENDBRANCH   3   9
BRANCH   1  16
ATOM     16  O   UNL A   1     -23.788   1.647  26.588  0.00  0.00    -0.450 OA
BRANCH  16  17
ATOM     17  C   UNL A   1     -24.359   2.793  26.892  0.00  0.00    +0.145 A 
ATOM     18  C   UNL A   1     -24.159   3.722  25.951  0.00  0.00    +0.037 A 
ATOM     19  C   UNL A   1     -24.712   4.942  26.241  0.00  0.00    +0.003 A 
ATOM     20  C   UNL A   1     -25.539   5.133  27.382  0.00  0.00    +0.000 A 
ATOM     21  C   UNL A   1     -25.705   4.127  28.280  0.00  0.00    +0.003 A 
ATOM     22  C   UNL A   1     -25.100   2.954  28.088  0.00  0.00    +0.037 A 
ENDBRANCH  16  17
ENDBRANCH   1  16
TORSDOF 3
ENDMDL
ENDMDL
