MODEL 1458
MODEL 1
REMARK VINA RESULT:    -6.719      0.000      0.000
REMARK INTER + INTRA:         -10.248
REMARK INTER:                  -9.076
REMARK INTRA:                  -1.172
REMARK UNBOUND:                -1.172
REMARK  Name = No_1458-gen_results/8p0m/2024-11-27-11-27-31/
REMARK  6 active torsions:
REMARK  status: ('A' for Active; 'I' for Inactive)
REMARK    1  A    between atoms: C_1  and  C_2
REMARK    2  A    between atoms: C_1  and  N_8
REMARK    3  A    between atoms: C_5  and  C_12
REMARK    4  A    between atoms: C_9  and  C_10
REMARK    5  A    between atoms: C_10  and  O_16
REMARK    6  A    between atoms: O_16  and  C_18
REMARK                            x       y       z     vdW  Elec       q    Type
REMARK                         _______ _______ _______ _____ _____    ______ ____
ROOT
ATOM      1  N   UNL A   1     -23.857   1.455  28.409  0.00  0.00    -0.191 NA
ATOM      2  C   UNL A   1     -23.208   1.112  29.578  0.00  0.00    +0.342 C 
ATOM      3  O   UNL A   1     -23.425   1.933  30.580  0.00  0.00    -0.261 OA
ENDROOT
BRANCH   2   4
ATOM      4  C   UNL A   1     -22.590   0.003  29.659  0.00  0.00    +0.402 C 
ATOM      5  O   UNL A   1     -21.421  -0.026  29.197  0.00  0.00    -0.239 OA
BRANCH   4   6
ATOM      6  O   UNL A   1     -22.844  -0.864  30.556  0.00  0.00    -0.418 OA
BRANCH   6   7
ATOM      7  C   UNL A   1     -23.864  -1.840  30.407  0.00  0.00    +0.149 A 
ATOM      8  C   UNL A   1     -25.092  -1.563  31.033  0.00  0.00    +0.038 A 
ATOM      9  C   UNL A   1     -26.194  -2.155  30.579  0.00  0.00    +0.003 A 
ATOM     10  C   UNL A   1     -26.190  -3.214  29.585  0.00  0.00    +0.000 A 
ATOM     11  C   UNL A   1     -24.963  -3.406  28.950  0.00  0.00    +0.003 A 
ATOM     12  C   UNL A   1     -23.851  -2.638  29.295  0.00  0.00    +0.038 A 
ENDBRANCH   6   7
ENDBRANCH   4   6
ENDBRANCH   2   4
BRANCH   1  13
ATOM     13  C   UNL A   1     -23.851   0.743  27.215  0.00  0.00    +0.142 C 
BRANCH  13  14
ATOM     14  C   UNL A   1     -24.879   0.546  26.609  0.00  0.00    -0.001 A 
ATOM     15  C   UNL A   1     -26.113   0.596  27.171  0.00  0.00    -0.003 A 
ATOM     16  C   UNL A   1     -27.380   0.360  26.443  0.00  0.00    +0.004 A 
ATOM     17  C   UNL A   1     -27.279   0.082  25.040  0.00  0.00    +0.071 A 
ATOM     18  C   UNL A   1     -25.983   0.111  24.478  0.00  0.00    +0.004 A 
ATOM     19  C   UNL A   1     -24.851   0.337  25.217  0.00  0.00    -0.003 A 
BRANCH  17  20
ATOM     20  C   UNL A   1     -28.429  -0.155  24.222  0.00  0.00    +0.419 C 
ATOM     21  F   UNL A   1     -29.453   0.038  24.669  0.00  0.00    -0.166 F 
ATOM     22  F   UNL A   1     -28.268   0.684  23.082  0.00  0.00    -0.166 F 
ATOM     23  F   UNL A   1     -28.394  -1.418  23.692  0.00  0.00    -0.166 F 
ENDBRANCH  17  20
ENDBRANCH  13  14
ENDBRANCH   1  13
TORSDOF 6
ENDMDL
ENDMDL
