MODEL 145
MODEL 1
REMARK VINA RESULT:    -5.354      0.000      0.000
REMARK INTER + INTRA:          -5.821
REMARK INTER:                  -5.667
REMARK INTRA:                  -0.154
REMARK UNBOUND:                -0.154
REMARK  Name = No_145-gen_results/8p0m/2024-11-27-11-27-31/
REMARK  1 active torsions:
REMARK  status: ('A' for Active; 'I' for Inactive)
REMARK    1  A    between atoms: C_4  and  C_6
REMARK                            x       y       z     vdW  Elec       q    Type
REMARK                         _______ _______ _______ _____ _____    ______ ____
ROOT
ATOM      1  C   UNL A   1     -26.579  -3.964  29.835  0.00  0.00    -0.000 A 
ATOM      2  C   UNL A   1     -26.096  -4.866  29.585  0.00  0.00    -0.000 A 
ATOM      3  C   UNL A   1     -25.786  -2.732  29.701  0.00  0.00    +0.004 A 
ATOM      4  C   UNL A   1     -24.483  -2.768  29.125  0.00  0.00    +0.071 A 
ATOM      5  C   UNL A   1     -24.798  -5.169  28.923  0.00  0.00    -0.000 A 
ATOM      6  C   UNL A   1     -24.024  -4.032  28.754  0.00  0.00    +0.004 A 
ENDROOT
BRANCH   4   7
ATOM      7  C   UNL A   1     -23.676  -1.628  28.970  0.00  0.00    +0.419 C 
ATOM      8  F   UNL A   1     -22.567  -1.857  28.936  0.00  0.00    -0.166 F 
ATOM      9  F   UNL A   1     -23.884  -0.767  30.044  0.00  0.00    -0.166 F 
ATOM     10  F   UNL A   1     -24.044  -0.831  27.916  0.00  0.00    -0.166 F 
ENDBRANCH   4   7
TORSDOF 1
ENDMDL
ENDMDL
