REMARK  Name = No_146-gen_results/8p0m/2024-11-27-11-27-31/
REMARK  6 active torsions:
REMARK  status: ('A' for Active; 'I' for Inactive)
REMARK    1  A    between atoms: C_1  and  C_2
REMARK    2  A    between atoms: C_5  and  C_11
REMARK    3  A    between atoms: N_8  and  C_9
REMARK    4  A    between atoms: N_8  and  C_10
REMARK    5  A    between atoms: C_10  and  C_15
REMARK    6  A    between atoms: C_22  and  C_27
REMARK                            x       y       z     vdW  Elec       q    Type
REMARK                         _______ _______ _______ _____ _____    ______ ____
ROOT
ATOM      1  C   UNL A   1     -28.016  -0.814  28.878  0.00  0.00    +0.253 C 
ATOM      2  N   UNL A   1     -29.188  -0.147  29.092  0.00  0.00    -0.251 N 
ATOM      3  O   UNL A   1     -27.841  -1.835  29.680  0.00  0.00    -0.270 OA
ENDROOT
BRANCH   1   4
ATOM      4  C   UNL A   1     -27.064  -0.119  28.608  0.00  0.00    +0.054 A 
ATOM      5  C   UNL A   1     -25.792  -0.430  29.076  0.00  0.00    +0.005 A 
ATOM      6  C   UNL A   1     -24.546   0.349  28.823  0.00  0.00    +0.005 A 
ATOM      7  C   UNL A   1     -24.659   1.420  27.888  0.00  0.00    +0.059 A 
ATOM      8  C   UNL A   1     -25.947   1.681  27.379  0.00  0.00    +0.005 A 
ATOM      9  C   UNL A   1     -27.044   0.974  27.687  0.00  0.00    +0.005 A 
BRANCH   7  10
ATOM     10  C   UNL A   1     -23.634   2.348  27.639  0.00  0.00    +0.297 C 
ATOM     11  N   UNL A   1     -23.572   3.052  26.534  0.00  0.00    -0.102 NA
ATOM     12  O   UNL A   1     -22.430   2.207  28.190  0.00  0.00    -0.264 OA
ENDBRANCH   7  10
ENDBRANCH   1   4
BRANCH   2  13
ATOM     13  C   UNL A   1     -29.601   0.163  30.327  0.00  0.00    +0.054 A 
ATOM     14  C   UNL A   1     -29.247   1.409  30.804  0.00  0.00    +0.015 A 
ATOM     15  C   UNL A   1     -29.503   1.793  32.066  0.00  0.00    +0.001 A 
ATOM     16  C   UNL A   1     -30.235   0.936  32.887  0.00  0.00    +0.000 A 
ATOM     17  C   UNL A   1     -30.586  -0.307  32.426  0.00  0.00    +0.001 A 
ATOM     18  C   UNL A   1     -30.284  -0.679  31.152  0.00  0.00    +0.015 A 
BRANCH  15  19
ATOM     19  C   UNL A   1     -29.127   3.181  32.590  0.00  0.00    +0.002 A 
ATOM     20  C   UNL A   1     -28.592   4.039  32.302  0.00  0.00    +0.000 A 
ATOM     21  C   UNL A   1     -28.314   5.283  32.958  0.00  0.00    +0.002 A 
ATOM     22  C   UNL A   1     -28.851   5.395  34.241  0.00  0.00    +0.030 A 
ATOM     23  C   UNL A   1     -29.528   4.366  34.759  0.00  0.00    +0.140 A 
ATOM     24  C   UNL A   1     -29.718   3.207  34.072  0.00  0.00    +0.030 A 
ATOM     25  F   UNL A   1     -29.989   4.423  36.023  0.00  0.00    -0.204 F 
ENDBRANCH  15  19
ENDBRANCH   2  13
BRANCH   2  26
ATOM     26  C   UNL A   1     -30.267  -0.619  28.188  0.00  0.00    +0.127 C 
BRANCH  26  27
ATOM     27  C   UNL A   1     -30.647   0.367  27.216  0.00  0.00    +0.025 A 
ATOM     28  C   UNL A   1     -30.974  -0.105  25.966  0.00  0.00    +0.138 A 
ATOM     29  C   UNL A   1     -30.765   1.705  27.467  0.00  0.00    -0.000 A 
ATOM     30  C   UNL A   1     -31.171   0.708  24.831  0.00  0.00    +0.029 A 
ATOM     31  C   UNL A   1     -31.042   2.602  26.418  0.00  0.00    -0.000 A 
ATOM     32  C   UNL A   1     -31.317   2.086  25.103  0.00  0.00    +0.002 A 
ATOM     33  F   UNL A   1     -30.894  -1.389  25.642  0.00  0.00    -0.204 F 
ENDBRANCH  26  27
ENDBRANCH   2  26
TORSDOF 6
