MODEL 1460
MODEL 1
REMARK VINA RESULT:    -7.693      0.000      0.000
REMARK INTER + INTRA:          -9.928
REMARK INTER:                  -9.492
REMARK INTRA:                  -0.435
REMARK UNBOUND:                -0.435
REMARK  Name = No_1460-gen_results/8p0m/2024-11-27-11-27-31/
REMARK  4 active torsions:
REMARK  status: ('A' for Active; 'I' for Inactive)
REMARK    1  A    between atoms: C_3  and  C_4
REMARK    2  A    between atoms: C_10  and  C_13
REMARK    3  A    between atoms: N_14  and  C_16
REMARK    4  A    between atoms: C_16  and  C_21
REMARK                            x       y       z     vdW  Elec       q    Type
REMARK                         _______ _______ _______ _____ _____    ______ ____
ROOT
ATOM      1  C   UNL A   1     -30.913 -11.296  25.957  0.00  0.00    +0.005 A 
ATOM      2  C   UNL A   1     -30.717 -10.862  27.068  0.00  0.00    +0.000 A 
ATOM      3  C   UNL A   1     -29.861 -11.511  27.951  0.00  0.00    +0.000 A 
ATOM      4  C   UNL A   1     -30.453 -12.617  25.541  0.00  0.00    +0.055 A 
ATOM      5  C   UNL A   1     -29.515 -13.283  26.304  0.00  0.00    +0.005 A 
ATOM      6  C   UNL A   1     -29.237 -12.773  27.580  0.00  0.00    +0.000 A 
ENDROOT
BRANCH   3   7
ATOM      7  C   UNL A   1     -29.545 -11.084  29.345  0.00  0.00    +0.003 A 
ATOM      8  C   UNL A   1     -28.619 -11.905  30.054  0.00  0.00    +0.042 A 
ATOM      9  C   UNL A   1     -28.293 -11.615  31.378  0.00  0.00    +0.196 A 
ATOM     10  C   UNL A   1     -29.029 -10.591  32.012  0.00  0.00    +0.042 A 
ATOM     11  C   UNL A   1     -29.932  -9.812  31.348  0.00  0.00    +0.003 A 
ATOM     12  C   UNL A   1     -30.248 -10.087  29.965  0.00  0.00    +0.000 A 
ATOM     13  O   UNL A   1     -27.431 -12.366  32.026  0.00  0.00    -0.287 OA
ENDBRANCH   3   7
BRANCH   4  14
ATOM     14  C   UNL A   1     -30.746 -13.171  24.207  0.00  0.00    +0.265 C 
ATOM     15  N   UNL A   1     -30.434 -12.505  23.130  0.00  0.00    -0.193 NA
ATOM     16  O   UNL A   1     -31.293 -14.290  24.080  0.00  0.00    -0.268 OA
BRANCH  15  17
ATOM     17  C   UNL A   1     -30.701 -12.904  21.776  0.00  0.00    +0.180 C 
ATOM     18  C   UNL A   1     -29.947 -13.992  21.393  0.00  0.00    +0.057 C 
ATOM     19  C   UNL A   1     -29.094 -13.792  20.401  0.00  0.00    -0.028 C 
ATOM     20  C   UNL A   1     -28.612 -12.603  20.294  0.00  0.00    -0.028 C 
ATOM     21  C   UNL A   1     -29.751 -11.746  20.711  0.00  0.00    +0.057 C 
BRANCH  17  22
ATOM     22  C   UNL A   1     -32.044 -12.690  21.236  0.00  0.00    +0.383 C 
ATOM     23  O   UNL A   1     -32.928 -12.047  21.781  0.00  0.00    -0.244 OA
ATOM     24  O   UNL A   1     -32.429 -13.597  20.299  0.00  0.00    -0.244 OA
ENDBRANCH  17  22
ENDBRANCH  15  17
ENDBRANCH   4  14
TORSDOF 4
ENDMDL
ENDMDL
