REMARK  Name = outputs/IAG933/test6/raw/output_1460_IAG933_linker_design_.xyz
REMARK  15 active torsions:
REMARK  status: ('A' for Active; 'I' for Inactive)
REMARK    1  A    between atoms: C_1  and  C_2
REMARK    2  A    between atoms: C_1  and  C_8
REMARK    3  A    between atoms: C_1  and  C_34
REMARK    4  A    between atoms: C_13  and  C_31
REMARK    5  A    between atoms: C_14  and  C_15
REMARK    6  A    between atoms: C_21  and  O_22
REMARK    7  A    between atoms: O_22  and  C_23
REMARK    8  A    between atoms: C_23  and  C_24
REMARK    9  A    between atoms: C_28  and  C_34
REMARK   10  A    between atoms: C_30  and  O_33
REMARK   11  A    between atoms: C_30  and  C_44
REMARK   12  A    between atoms: O_33  and  C_42
REMARK   13  A    between atoms: C_34  and  C_42
REMARK   14  A    between atoms: O_36  and  C_40
REMARK   15  A    between atoms: C_40  and  C_44
REMARK                            x       y       z     vdW  Elec       q    Type
REMARK                         _______ _______ _______ _____ _____    ______ ____
ROOT
ATOM      1  C   UNL A   1     -24.415   0.478  28.269  0.00  0.00    -0.017 C 
ATOM      2 CL   UNL A   1     -22.952   2.147  24.786  0.00  0.00    -0.043 Cl
ATOM      3  C   UNL A   1     -24.437   1.298  27.102  0.00  0.00    +0.044 C 
ATOM      4  C   UNL A   1     -21.970   0.867  28.271  0.00  0.00    +0.233 C 
ATOM      5  C   UNL A   1     -23.151   0.382  28.816  0.00  0.00    +0.017 C 
ATOM      6  C   UNL A   1     -23.176   1.727  26.453  0.00  0.00    +0.197 C 
ATOM      7  O   UNL A   1     -21.995   1.554  27.108  0.00  0.00    -0.461 OA
ENDROOT
BRANCH   3   8
ATOM      8  C   UNL A   1     -25.688   1.614  26.461  0.00  0.00    +0.042 C 
ATOM      9  C   UNL A   1     -26.250   2.920  26.395  0.00  0.00    +0.077 C 
ATOM     10  C   UNL A   1     -27.438   3.091  25.645  0.00  0.00    +0.107 C 
ATOM     11  N   UNL A   1     -28.075   2.089  25.003  0.00  0.00    -0.208 NA
ATOM     12  C   UNL A   1     -27.543   0.849  25.079  0.00  0.00    +0.253 C 
ATOM     13  C   UNL A   1     -26.354   0.576  25.777  0.00  0.00    +0.193 C 
ATOM     14  F   UNL A   1     -25.860  -0.681  25.795  0.00  0.00    -0.199 F 
BRANCH   9  15
ATOM     15  C   UNL A   1     -25.642   4.093  27.123  0.00  0.00    +0.266 C 
ATOM     16  N   UNL A   1     -25.614   5.252  26.449  0.00  0.00    -0.200 NA
ATOM     17  C   UNL A   1     -25.026   6.479  26.963  0.00  0.00    +0.139 C 
ATOM     18  O   UNL A   1     -25.143   3.966  28.243  0.00  0.00    -0.268 OA
ENDBRANCH   9  15
BRANCH  12  19
ATOM     19  O   UNL A   1     -28.193  -0.208  24.477  0.00  0.00    -0.456 OA
BRANCH  19  20
ATOM     20  C   UNL A   1     -29.460   0.005  23.866  0.00  0.00    +0.243 C 
BRANCH  20  21
ATOM     21  C   UNL A   1     -30.065  -1.377  23.573  0.00  0.00    +0.229 C 
ATOM     22  O   UNL A   1     -30.729  -1.878  24.721  0.00  0.00    -0.216 OA
ENDBRANCH  20  21
ENDBRANCH  19  20
ENDBRANCH  12  19
ENDBRANCH   3   8
BRANCH   1  23
ATOM     23  C   UNL A   1     -25.489  -0.331  28.914  0.00  0.00    +0.057 C 
BRANCH  23  24
ATOM     24  C   UNL A   1     -24.855  -1.012  30.143  0.00  0.00    +0.045 C 
BRANCH  24  25
ATOM     25  C   UNL A   1     -24.973  -2.505  29.788  0.00  0.00    -0.021 C 
ATOM     26  C   UNL A   1     -23.906  -3.173  29.146  0.00  0.00    -0.004 C 
ATOM     27  C   UNL A   1     -23.989  -4.549  28.853  0.00  0.00    -0.000 C 
ATOM     28  C   UNL A   1     -25.137  -5.280  29.205  0.00  0.00    -0.000 C 
ATOM     29  C   UNL A   1     -26.232  -4.611  29.784  0.00  0.00    -0.000 C 
ATOM     30  C   UNL A   1     -26.155  -3.232  30.065  0.00  0.00    -0.004 C 
ENDBRANCH  24  25
BRANCH  24  31
ATOM     31  C   UNL A   1     -25.387  -0.679  31.571  0.00  0.00    +0.077 C 
ATOM     32  C   UNL A   1     -25.189   0.773  32.028  0.00  0.00    +0.019 C 
ATOM     33  C   UNL A   1     -25.336   0.684  33.544  0.00  0.00    +0.020 C 
ATOM     34  C   UNL A   1     -24.829  -0.715  33.905  0.00  0.00    +0.089 C 
ATOM     35  N   UNL A   1     -24.758  -1.481  32.646  0.00  0.00    -0.219 NA
ENDBRANCH  24  31
ENDBRANCH  23  24
BRANCH  23  36
ATOM     36  C   UNL A   1     -26.993   0.091  29.261  0.00  0.00    +0.147 C 
BRANCH  36  37
ATOM     37  O   UNL A   1     -27.228   1.541  29.694  0.00  0.00    -0.345 OA
BRANCH  37  38
ATOM     38  C   UNL A   1     -26.693   2.977  30.459  0.00  0.00    +0.211 C 
BRANCH  38  40
ATOM     39  O   UNL A   1     -24.390   2.744  30.567  0.00  0.00    -0.288 OA
ATOM     40  C   UNL A   1     -25.305   3.576  30.896  0.00  0.00    +0.239 C 
BRANCH  40  42
ATOM     41  O   UNL A   1     -26.351   5.164  32.337  0.00  0.00    -0.181 OA
ATOM     42  C   UNL A   1     -25.191   4.926  31.297  0.00  0.00    +0.330 C 
BRANCH  42  43
ATOM     43  O   UNL A   1     -23.994   5.450  31.779  0.00  0.00    -0.320 OA
ATOM     44  C   UNL A   1     -23.721   5.393  33.181  0.00  0.00    +0.177 C 
ENDBRANCH  42  43
ENDBRANCH  40  42
ENDBRANCH  38  40
ENDBRANCH  37  38
ENDBRANCH  36  37
ENDBRANCH  23  36
ENDBRANCH   1  23
TORSDOF 15
