REMARK  Name = outputs/IAG933/test6/raw/output_1463_IAG933_linker_design_.xyz
REMARK  12 active torsions:
REMARK  status: ('A' for Active; 'I' for Inactive)
REMARK    1  A    between atoms: C_1  and  C_2
REMARK    2  A    between atoms: C_1  and  C_8
REMARK    3  A    between atoms: C_9  and  O_34
REMARK    4  A    between atoms: C_13  and  C_35
REMARK    5  A    between atoms: C_14  and  C_15
REMARK    6  A    between atoms: C_21  and  O_22
REMARK    7  A    between atoms: O_22  and  C_23
REMARK    8  A    between atoms: C_23  and  C_24
REMARK    9  A    between atoms: N_28  and  C_29
REMARK   10  A    between atoms: C_31  and  C_33
REMARK   11  A    between atoms: C_33  and  O_34
REMARK   12  A    between atoms: C_35  and  C_36
REMARK                            x       y       z     vdW  Elec       q    Type
REMARK                         _______ _______ _______ _____ _____    ______ ____
ROOT
ATOM      1  C   UNL A   1     -23.162   1.701  28.512  0.00  0.00    +0.101 C 
ATOM      2  C   UNL A   1     -22.037   1.149  28.820  0.00  0.00    +0.155 C 
ATOM      3  C   UNL A   1     -23.478   1.710  27.182  0.00  0.00    +0.039 C 
ATOM      4  C   UNL A   1     -21.189   1.925  26.673  0.00  0.00    +0.044 C 
ATOM      5  O   UNL A   1     -22.756   2.509  24.980  0.00  0.00    -0.287 OA
ATOM      6  C   UNL A   1     -20.890   1.423  27.933  0.00  0.00    +0.034 C 
ATOM      7  C   UNL A   1     -22.515   2.050  26.284  0.00  0.00    +0.193 C 
ATOM      8  F   UNL A   1     -22.106   0.171  29.776  0.00  0.00    -0.203 F 
ENDROOT
BRANCH   1   9
ATOM      9  N   UNL A   1     -24.027   2.173  29.525  0.00  0.00    -0.168 NA
ATOM     10  C   UNL A   1     -25.204   2.236  30.036  0.00  0.00    +0.345 C 
ATOM     11  O   UNL A   1     -26.301   1.866  29.905  0.00  0.00    -0.261 OA
BRANCH  10  12
ATOM     12  C   UNL A   1     -24.685   2.639  31.511  0.00  0.00    +0.397 C 
ATOM     13  O   UNL A   1     -24.994   4.078  31.394  0.00  0.00    -0.240 OA
BRANCH  12  14
ATOM     14  O   UNL A   1     -23.925   1.488  31.832  0.00  0.00    -0.445 OA
BRANCH  14  16
ATOM     15  C   UNL A   1     -25.387  -0.679  31.571  0.00  0.00    +0.117 C 
ATOM     16  C   UNL A   1     -25.189   0.773  32.028  0.00  0.00    +0.187 C 
ATOM     17  C   UNL A   1     -25.336   0.684  33.544  0.00  0.00    +0.064 C 
ATOM     18  C   UNL A   1     -24.829  -0.715  33.905  0.00  0.00    +0.093 C 
ATOM     19  N   UNL A   1     -24.758  -1.481  32.646  0.00  0.00    -0.215 NA
BRANCH  15  20
ATOM     20  C   UNL A   1     -24.855  -1.012  30.143  0.00  0.00    +0.047 C 
BRANCH  20  21
ATOM     21  C   UNL A   1     -24.973  -2.505  29.788  0.00  0.00    -0.021 C 
ATOM     22  C   UNL A   1     -23.906  -3.173  29.146  0.00  0.00    -0.004 C 
ATOM     23  C   UNL A   1     -23.989  -4.549  28.853  0.00  0.00    -0.000 C 
ATOM     24  C   UNL A   1     -25.137  -5.280  29.205  0.00  0.00    -0.000 C 
ATOM     25  C   UNL A   1     -26.232  -4.611  29.784  0.00  0.00    -0.000 C 
ATOM     26  C   UNL A   1     -26.155  -3.232  30.065  0.00  0.00    -0.004 C 
ENDBRANCH  20  21
ENDBRANCH  15  20
ENDBRANCH  14  16
ENDBRANCH  12  14
ENDBRANCH  10  12
ENDBRANCH   1   9
BRANCH   3  27
ATOM     27  C   UNL A   1     -24.736   1.194  27.084  0.00  0.00    +0.060 C 
BRANCH  27  28
ATOM     28  C   UNL A   1     -25.688   1.614  26.461  0.00  0.00    +0.020 C 
ATOM     29  C   UNL A   1     -26.250   2.920  26.395  0.00  0.00    +0.073 C 
ATOM     30  C   UNL A   1     -27.438   3.091  25.645  0.00  0.00    +0.106 C 
ATOM     31  N   UNL A   1     -28.075   2.089  25.003  0.00  0.00    -0.208 NA
ATOM     32  C   UNL A   1     -27.543   0.849  25.079  0.00  0.00    +0.253 C 
ATOM     33  C   UNL A   1     -26.354   0.576  25.777  0.00  0.00    +0.189 C 
ATOM     34  F   UNL A   1     -25.860  -0.681  25.795  0.00  0.00    -0.200 F 
BRANCH  29  35
ATOM     35  C   UNL A   1     -25.642   4.093  27.123  0.00  0.00    +0.266 C 
ATOM     36  N   UNL A   1     -25.614   5.252  26.449  0.00  0.00    -0.200 NA
ATOM     37  C   UNL A   1     -25.026   6.479  26.963  0.00  0.00    +0.139 C 
ATOM     38  O   UNL A   1     -25.143   3.966  28.243  0.00  0.00    -0.268 OA
ENDBRANCH  29  35
BRANCH  32  39
ATOM     39  O   UNL A   1     -28.193  -0.208  24.477  0.00  0.00    -0.456 OA
BRANCH  39  40
ATOM     40  C   UNL A   1     -29.460   0.005  23.866  0.00  0.00    +0.243 C 
BRANCH  40  41
ATOM     41  C   UNL A   1     -30.065  -1.377  23.573  0.00  0.00    +0.229 C 
ATOM     42  O   UNL A   1     -30.729  -1.878  24.721  0.00  0.00    -0.216 OA
ENDBRANCH  40  41
ENDBRANCH  39  40
ENDBRANCH  32  39
ENDBRANCH  27  28
ENDBRANCH   3  27
TORSDOF 12
