MODEL 1464
MODEL 1
REMARK VINA RESULT:    -7.492      0.000      0.000
REMARK INTER + INTRA:         -13.970
REMARK INTER:                 -10.558
REMARK INTRA:                  -3.411
REMARK UNBOUND:                -3.411
REMARK  Name = No_1464-gen_results/8p0m/2024-11-27-11-27-31/
REMARK  7 active torsions:
REMARK  status: ('A' for Active; 'I' for Inactive)
REMARK    1  A    between atoms: C_5  and  O_17
REMARK    2  A    between atoms: C_9  and  C_11
REMARK    3  A    between atoms: O_17  and  C_18
REMARK    4  A    between atoms: C_23  and  C_24
REMARK    5  A    between atoms: C_28  and  C_30
REMARK    6  A    between atoms: C_30  and  C_31
REMARK    7  A    between atoms: C_32  and  C_33
REMARK                            x       y       z     vdW  Elec       q    Type
REMARK                         _______ _______ _______ _____ _____    ______ ____
ROOT
ATOM      1  C   UNL A   1     -27.919   0.711  26.518  0.00  0.00    +0.145 A 
ATOM      2  C   UNL A   1     -28.994   0.246  25.809  0.00  0.00    +0.037 A 
ATOM      3  C   UNL A   1     -28.794  -0.161  24.581  0.00  0.00    +0.003 A 
ATOM      4  C   UNL A   1     -28.027   0.163  23.869  0.00  0.00    +0.000 A 
ATOM      5  C   UNL A   1     -26.694   0.564  24.421  0.00  0.00    +0.003 A 
ATOM      6  C   UNL A   1     -26.644   0.525  25.703  0.00  0.00    +0.035 A 
ENDROOT
BRANCH   6   7
ATOM      7  C   UNL A   1     -25.479   0.200  26.541  0.00  0.00    +0.003 A 
ATOM      8  C   UNL A   1     -24.472   1.098  26.510  0.00  0.00    +0.000 A 
ATOM      9  C   UNL A   1     -23.536   1.193  27.044  0.00  0.00    -0.000 A 
ATOM     10  C   UNL A   1     -23.131   0.214  27.996  0.00  0.00    -0.004 A 
ATOM     11  C   UNL A   1     -24.098  -0.856  28.155  0.00  0.00    -0.018 A 
ATOM     12  C   UNL A   1     -25.272  -0.791  27.432  0.00  0.00    -0.004 A 
BRANCH  11  13
ATOM     13  C   UNL A   1     -23.821  -1.935  29.116  0.00  0.00    +0.048 C 
BRANCH  13  14
ATOM     14  C   UNL A   1     -24.621  -3.000  29.059  0.00  0.00    -0.040 C 
ATOM     15  C   UNL A   1     -25.686  -3.152  29.758  0.00  0.00    -0.008 C 
ATOM     16  C   UNL A   1     -24.040  -4.240  28.489  0.00  0.00    +0.027 C 
BRANCH  15  17
ATOM     17  C   UNL A   1     -26.424  -4.432  29.809  0.00  0.00    -0.001 C 
ATOM     18  C   UNL A   1     -27.767  -4.382  30.245  0.00  0.00    -0.000 C 
ENDBRANCH  15  17
ENDBRANCH  13  14
ENDBRANCH  11  13
ENDBRANCH   6   7
BRANCH   1  19
ATOM     19  O   UNL A   1     -28.212   1.787  27.261  0.00  0.00    -0.453 OA
BRANCH  19  24
ATOM     20  C   UNL A   1     -25.680   3.221  29.206  0.00  0.00    +0.015 A 
ATOM     21  C   UNL A   1     -26.489   3.098  28.542  0.00  0.00    +0.092 A 
ATOM     22  C   UNL A   1     -25.542   2.216  30.272  0.00  0.00    +0.001 A 
ATOM     23  C   UNL A   1     -24.612   2.240  31.390  0.00  0.00    +0.000 A 
ATOM     24  C   UNL A   1     -27.428   1.969  28.336  0.00  0.00    +0.156 A 
ATOM     25  C   UNL A   1     -27.356   0.971  29.301  0.00  0.00    +0.038 A 
ATOM     26  C   UNL A   1     -26.402   1.027  30.295  0.00  0.00    -0.001 A 
ATOM     27  C   UNL A   1     -24.939   1.616  32.624  0.00  0.00    +0.004 A 
ATOM     28  C   UNL A   1     -25.914   1.231  32.960  0.00  0.00    +0.051 A 
ATOM     29  C   UNL A   1     -26.859   0.618  31.872  0.00  0.00    -0.017 A 
ATOM     30 CL   UNL A   1     -26.469   4.143  27.040  0.00  0.00    -0.079 Cl
ATOM     31  C   UNL A   1     -27.955  -0.299  32.008  0.00  0.00    +0.031 C 
BRANCH  28  32
ATOM     32  C   UNL A   1     -26.277   0.453  34.232  0.00  0.00    +0.265 C 
ATOM     33  N   UNL A   1     -25.744  -0.447  34.770  0.00  0.00    -0.200 NA
ATOM     34  O   UNL A   1     -27.333   1.046  34.841  0.00  0.00    -0.268 OA
ATOM     35  C   UNL A   1     -24.477  -1.035  34.421  0.00  0.00    +0.139 C 
ENDBRANCH  28  32
ENDBRANCH  19  24
ENDBRANCH   1  19
TORSDOF 7
ENDMDL
ENDMDL
