MODEL 1465
MODEL 1
REMARK VINA RESULT:    -5.232      0.000      0.000
REMARK INTER + INTRA:          -5.759
REMARK INTER:                  -5.538
REMARK INTRA:                  -0.221
REMARK UNBOUND:                -0.221
REMARK  Name = No_1465-gen_results/8p0m/2024-11-27-11-27-31/
REMARK  1 active torsions:
REMARK  status: ('A' for Active; 'I' for Inactive)
REMARK    1  A    between atoms: C_3  and  C_4
REMARK                            x       y       z     vdW  Elec       q    Type
REMARK                         _______ _______ _______ _____ _____    ______ ____
ROOT
ATOM      1  C   UNL A   1     -23.929  -4.089  28.633  0.00  0.00    +0.004 A 
ATOM      2  C   UNL A   1     -24.522  -4.935  28.840  0.00  0.00    -0.000 A 
ATOM      3  C   UNL A   1     -24.451  -2.821  28.971  0.00  0.00    +0.071 A 
ATOM      4  C   UNL A   1     -25.865  -5.060  29.432  0.00  0.00    -0.000 A 
ATOM      5  C   UNL A   1     -26.446  -3.843  29.790  0.00  0.00    -0.000 A 
ATOM      6  C   UNL A   1     -25.740  -2.696  29.614  0.00  0.00    +0.004 A 
ENDROOT
BRANCH   3   7
ATOM      7  C   UNL A   1     -23.704  -1.542  28.847  0.00  0.00    +0.419 C 
ATOM      8  F   UNL A   1     -22.565  -1.806  28.814  0.00  0.00    -0.166 F 
ATOM      9  F   UNL A   1     -23.906  -0.850  30.000  0.00  0.00    -0.166 F 
ATOM     10  F   UNL A   1     -24.115  -0.793  27.796  0.00  0.00    -0.166 F 
ENDBRANCH   3   7
TORSDOF 1
ENDMDL
ENDMDL
