REMARK  Name = outputs/IAG933/test6/raw/output_1467_IAG933_linker_design_.xyz
REMARK  15 active torsions:
REMARK  status: ('A' for Active; 'I' for Inactive)
REMARK    1  A    between atoms: C_1  and  C_2
REMARK    2  A    between atoms: C_1  and  C_8
REMARK    3  A    between atoms: C_1  and  N_42
REMARK    4  A    between atoms: C_14  and  C_15
REMARK    5  A    between atoms: C_15  and  O_18
REMARK    6  A    between atoms: O_18  and  C_34
REMARK    7  A    between atoms: C_21  and  O_22
REMARK    8  A    between atoms: O_22  and  C_23
REMARK    9  A    between atoms: C_23  and  C_24
REMARK   10  A    between atoms: C_28  and  C_33
REMARK   11  A    between atoms: C_28  and  C_36
REMARK   12  A    between atoms: C_31  and  N_42
REMARK   13  A    between atoms: C_33  and  C_34
REMARK   14  A    between atoms: C_34  and  N_39
REMARK   15  A    between atoms: C_37  and  N_39
REMARK                            x       y       z     vdW  Elec       q    Type
REMARK                         _______ _______ _______ _____ _____    ______ ____
ROOT
ATOM      1  C   UNL A   1     -24.680   3.210  29.167  0.00  0.00    +0.243 C 
ENDROOT
BRANCH   1   2
ATOM      2  O   UNL A   1     -25.143   3.966  28.243  0.00  0.00    -0.447 OA
BRANCH   2   3
ATOM      3  C   UNL A   1     -25.642   4.093  27.123  0.00  0.00    +0.223 C 
ATOM      4  N   UNL A   1     -25.614   5.252  26.449  0.00  0.00    -0.236 NA
ATOM      5  C   UNL A   1     -25.026   6.479  26.963  0.00  0.00    +0.155 C 
BRANCH   3   7
ATOM      6  C   UNL A   1     -25.688   1.614  26.461  0.00  0.00    +0.041 C 
ATOM      7  C   UNL A   1     -26.250   2.920  26.395  0.00  0.00    +0.074 C 
ATOM      8  C   UNL A   1     -27.438   3.091  25.645  0.00  0.00    +0.107 C 
ATOM      9  N   UNL A   1     -28.075   2.089  25.003  0.00  0.00    -0.208 NA
ATOM     10  C   UNL A   1     -27.543   0.849  25.079  0.00  0.00    +0.253 C 
ATOM     11  C   UNL A   1     -26.354   0.576  25.777  0.00  0.00    +0.193 C 
ATOM     12  F   UNL A   1     -25.860  -0.681  25.795  0.00  0.00    -0.199 F 
BRANCH  10  13
ATOM     13  O   UNL A   1     -28.193  -0.208  24.477  0.00  0.00    -0.456 OA
BRANCH  13  14
ATOM     14  C   UNL A   1     -29.460   0.005  23.866  0.00  0.00    +0.243 C 
BRANCH  14  15
ATOM     15  C   UNL A   1     -30.065  -1.377  23.573  0.00  0.00    +0.229 C 
ATOM     16  O   UNL A   1     -30.729  -1.878  24.721  0.00  0.00    -0.216 OA
ENDBRANCH  14  15
ENDBRANCH  13  14
ENDBRANCH  10  13
ENDBRANCH   3   7
ENDBRANCH   2   3
ENDBRANCH   1   2
BRANCH   1  17
ATOM     17  C   UNL A   1     -25.827   3.349  30.146  0.00  0.00    +0.067 C 
BRANCH  17  18
ATOM     18  C   UNL A   1     -26.196   4.802  30.460  0.00  0.00    +0.032 C 
BRANCH  18  21
ATOM     19  C   UNL A   1     -25.434   5.760  34.534  0.00  0.00    -0.000 C 
ATOM     20  C   UNL A   1     -24.747   4.749  33.887  0.00  0.00    -0.000 C 
ATOM     21  C   UNL A   1     -26.091   5.056  31.934  0.00  0.00    -0.022 C 
ATOM     22  C   UNL A   1     -26.503   6.365  33.890  0.00  0.00    -0.000 C 
ATOM     23  C   UNL A   1     -26.851   6.012  32.598  0.00  0.00    -0.004 C 
ATOM     24  C   UNL A   1     -25.030   4.428  32.579  0.00  0.00    -0.004 C 
ENDBRANCH  18  21
ENDBRANCH  17  18
ENDBRANCH   1  17
BRANCH   1  25
ATOM     25  N   UNL A   1     -23.985   2.368  28.316  0.00  0.00    -0.177 NA
BRANCH  25  29
ATOM     26  F   UNL A   1     -21.474   1.947  26.929  0.00  0.00    -0.236 F 
ATOM     27  C   UNL A   1     -23.285   0.400  29.347  0.00  0.00    +0.092 C 
ATOM     28  C   UNL A   1     -21.902   1.188  27.952  0.00  0.00    +0.178 C 
ATOM     29  C   UNL A   1     -23.142   1.340  28.469  0.00  0.00    +0.125 C 
ATOM     30  C   UNL A   1     -21.188   0.184  28.495  0.00  0.00    +0.038 C 
ATOM     31  C   UNL A   1     -22.009  -0.604  29.282  0.00  0.00    +0.022 C 
BRANCH  27  32
ATOM     32  N   UNL A   1     -23.530  -0.456  29.955  0.00  0.00    -0.213 NA
BRANCH  32  33
ATOM     33  C   UNL A   1     -24.855  -1.012  30.143  0.00  0.00    +0.111 C 
BRANCH  33  34
ATOM     34  C   UNL A   1     -24.973  -2.505  29.788  0.00  0.00    -0.005 C 
ATOM     35  C   UNL A   1     -23.906  -3.173  29.146  0.00  0.00    -0.003 C 
ATOM     36  C   UNL A   1     -23.989  -4.549  28.853  0.00  0.00    -0.000 C 
ATOM     37  C   UNL A   1     -25.137  -5.280  29.205  0.00  0.00    -0.000 C 
ATOM     38  C   UNL A   1     -26.232  -4.611  29.784  0.00  0.00    -0.000 C 
ATOM     39  C   UNL A   1     -26.155  -3.232  30.065  0.00  0.00    -0.003 C 
ENDBRANCH  33  34
BRANCH  33  40
ATOM     40  C   UNL A   1     -25.387  -0.679  31.571  0.00  0.00    +0.093 C 
ATOM     41  C   UNL A   1     -25.189   0.773  32.028  0.00  0.00    +0.021 C 
ATOM     42  C   UNL A   1     -25.336   0.684  33.544  0.00  0.00    +0.020 C 
ATOM     43  C   UNL A   1     -24.829  -0.715  33.905  0.00  0.00    +0.089 C 
ATOM     44  N   UNL A   1     -24.758  -1.481  32.646  0.00  0.00    -0.218 NA
ENDBRANCH  33  40
ENDBRANCH  32  33
ENDBRANCH  27  32
ENDBRANCH  25  29
ENDBRANCH   1  25
TORSDOF 15
