MODEL 1467
MODEL 1
REMARK VINA RESULT:    -8.209      0.000      0.000
REMARK INTER + INTRA:         -12.733
REMARK INTER:                 -12.048
REMARK INTRA:                  -0.686
REMARK UNBOUND:                -0.686
REMARK  Name = No_1467-gen_results/8p0m/2024-11-27-11-27-31/
REMARK  8 active torsions:
REMARK  status: ('A' for Active; 'I' for Inactive)
REMARK    1  A    between atoms: C_1  and  C_2
REMARK    2  A    between atoms: C_5  and  C_11
REMARK    3  A    between atoms: N_8  and  C_10
REMARK    4  A    between atoms: C_15  and  C_19
REMARK    5  A    between atoms: C_19  and  O_21
REMARK    6  A    between atoms: O_21  and  C_22
REMARK    7  A    between atoms: C_22  and  C_23
REMARK    8  A    between atoms: C_22  and  C_29
REMARK                            x       y       z     vdW  Elec       q    Type
REMARK                         _______ _______ _______ _____ _____    ______ ____
ROOT
ATOM      1  C   UNL A   1     -24.762   1.786  26.642  0.00  0.00    +0.074 A 
ATOM      2  C   UNL A   1     -24.750   1.302  27.690  0.00  0.00    +0.023 A 
ATOM      3  C   UNL A   1     -23.354   0.981  28.251  0.00  0.00    +0.077 A 
ATOM      4  C   UNL A   1     -22.204   1.356  27.541  0.00  0.00    +0.006 A 
ATOM      5  C   UNL A   1     -22.323   1.929  26.305  0.00  0.00    +0.002 A 
ATOM      6  C   UNL A   1     -23.604   2.091  25.741  0.00  0.00    +0.017 A 
ENDROOT
BRANCH   1   8
ATOM      7  C   UNL A   1     -26.459   0.849  24.952  0.00  0.00    +0.269 C 
ATOM      8  N   UNL A   1     -25.979   1.843  25.841  0.00  0.00    -0.175 NA
ATOM      9  O   UNL A   1     -25.864  -0.261  25.072  0.00  0.00    -0.268 OA
BRANCH   7  10
ATOM     10  C   UNL A   1     -27.535   0.967  24.414  0.00  0.00    +0.055 A 
ATOM     11  C   UNL A   1     -28.327  -0.143  24.141  0.00  0.00    +0.005 A 
ATOM     12  C   UNL A   1     -29.661  -0.130  23.475  0.00  0.00    +0.007 A 
ATOM     13  C   UNL A   1     -30.230   1.157  23.243  0.00  0.00    +0.080 A 
ATOM     14  C   UNL A   1     -29.434   2.270  23.582  0.00  0.00    +0.007 A 
ATOM     15  C   UNL A   1     -28.214   2.193  24.132  0.00  0.00    +0.005 A 
BRANCH  13  16
ATOM     16  C   UNL A   1     -31.535   1.197  22.632  0.00  0.00    +0.388 C 
ATOM     17  O   UNL A   1     -32.606   1.101  23.278  0.00  0.00    -0.241 OA
ATOM     18  O   UNL A   1     -31.591   1.885  21.430  0.00  0.00    -0.241 OA
ENDBRANCH  13  16
ENDBRANCH   7  10
ENDBRANCH   1   8
BRANCH   3  19
ATOM     19  C   UNL A   1     -23.276   0.422  29.609  0.00  0.00    +0.342 C 
ATOM     20  O   UNL A   1     -23.210   1.166  30.552  0.00  0.00    -0.245 OA
BRANCH  19  21
ATOM     21  O   UNL A   1     -23.437  -0.812  29.826  0.00  0.00    -0.436 OA
BRANCH  21  22
ATOM     22  C   UNL A   1     -24.493  -1.388  30.022  0.00  0.00    +0.255 C 
BRANCH  22  23
ATOM     23  C   UNL A   1     -24.617  -2.599  29.635  0.00  0.00    +0.025 A 
ATOM     24  C   UNL A   1     -23.889  -3.170  28.986  0.00  0.00    -0.000 A 
ATOM     25  C   UNL A   1     -23.993  -4.615  28.537  0.00  0.00    -0.000 A 
ATOM     26  C   UNL A   1     -25.231  -5.198  28.932  0.00  0.00    -0.000 A 
ATOM     27  C   UNL A   1     -26.209  -4.506  29.656  0.00  0.00    -0.000 A 
ATOM     28  C   UNL A   1     -25.956  -3.255  30.021  0.00  0.00    -0.000 A 
ENDBRANCH  22  23
BRANCH  22  29
ATOM     29  C   UNL A   1     -25.539  -0.591  30.804  0.00  0.00    +0.255 C 
ATOM     30  O   UNL A   1     -26.455  -0.079  30.323  0.00  0.00    -0.284 OA
ENDBRANCH  22  29
ENDBRANCH  21  22
ENDBRANCH  19  21
ENDBRANCH   3  19
TORSDOF 8
ENDMDL
ENDMDL
