REMARK  Name = No_1468-gen_results/8p0m/2024-11-27-11-27-31/
REMARK  6 active torsions:
REMARK  status: ('A' for Active; 'I' for Inactive)
REMARK    1  A    between atoms: C_1  and  C_2
REMARK    2  A    between atoms: C_1  and  C_8
REMARK    3  A    between atoms: C_3  and  C_18
REMARK    4  A    between atoms: C_5  and  C_15
REMARK    5  A    between atoms: C_8  and  C_9
REMARK    6  A    between atoms: C_8  and  C_22
REMARK                            x       y       z     vdW  Elec       q    Type
REMARK                         _______ _______ _______ _____ _____    ______ ____
ROOT
ATOM      1  C   UNL A   1     -28.016  -0.814  28.878  0.00  0.00    +0.070 C 
ENDROOT
BRANCH   1   2
ATOM      2  C   UNL A   1     -27.064  -0.119  28.608  0.00  0.00    -0.015 A 
ATOM      3  C   UNL A   1     -26.972   0.714  27.506  0.00  0.00    +0.068 A 
ATOM      4  C   UNL A   1     -25.820   1.491  27.116  0.00  0.00    +0.008 A 
ATOM      5  C   UNL A   1     -24.656   1.424  27.918  0.00  0.00    +0.059 A 
ATOM      6  C   UNL A   1     -24.685   0.590  29.066  0.00  0.00    +0.004 A 
ATOM      7  C   UNL A   1     -25.810  -0.127  29.334  0.00  0.00    -0.004 A 
BRANCH   3   8
ATOM      8  C   UNL A   1     -27.959   0.839  26.439  0.00  0.00    +0.418 C 
ATOM      9  F   UNL A   1     -29.088   0.824  26.800  0.00  0.00    -0.166 F 
ATOM     10  F   UNL A   1     -27.788  -0.207  25.524  0.00  0.00    -0.166 F 
ATOM     11  F   UNL A   1     -27.865   1.965  25.678  0.00  0.00    -0.166 F 
ENDBRANCH   3   8
BRANCH   5  12
ATOM     12  C   UNL A   1     -23.434   2.142  27.563  0.00  0.00    +0.297 C 
ATOM     13  N   UNL A   1     -23.059   2.289  26.322  0.00  0.00    -0.102 NA
ATOM     14  O   UNL A   1     -22.463   2.267  28.442  0.00  0.00    -0.264 OA
ENDBRANCH   5  12
ENDBRANCH   1   2
BRANCH   1  15
ATOM     15  C   UNL A   1     -28.694  -0.473  30.159  0.00  0.00    +0.236 C 
ATOM     16  O   UNL A   1     -27.826  -1.315  31.150  0.00  0.00    -0.212 OA
BRANCH  15  17
ATOM     17  C   UNL A   1     -28.647   0.647  30.573  0.00  0.00    +0.013 A 
ATOM     18  C   UNL A   1     -28.928   1.725  29.980  0.00  0.00    -0.002 A 
ATOM     19  C   UNL A   1     -29.152   2.780  30.315  0.00  0.00    -0.000 A 
ATOM     20  C   UNL A   1     -28.951   3.074  31.754  0.00  0.00    -0.000 A 
ATOM     21  C   UNL A   1     -28.710   2.013  32.608  0.00  0.00    -0.000 A 
ATOM     22  C   UNL A   1     -28.544   0.748  32.096  0.00  0.00    -0.002 A 
ENDBRANCH  15  17
BRANCH  15  23
ATOM     23  C   UNL A   1     -30.065  -1.285  30.324  0.00  0.00    +0.427 C 
ATOM     24  F   UNL A   1     -31.012  -1.056  29.700  0.00  0.00    -0.167 F 
ATOM     25  F   UNL A   1     -29.745  -2.662  30.210  0.00  0.00    -0.167 F 
ATOM     26  F   UNL A   1     -30.408  -1.353  31.668  0.00  0.00    -0.167 F 
ENDBRANCH  15  23
ENDBRANCH   1  15
TORSDOF 6
