MODEL 1468
MODEL 1
REMARK VINA RESULT:    -7.217      0.000      0.000
REMARK INTER + INTRA:         -10.993
REMARK INTER:                  -9.749
REMARK INTRA:                  -1.244
REMARK UNBOUND:                -1.244
REMARK  Name = No_1468-gen_results/8p0m/2024-11-27-11-27-31/
REMARK  6 active torsions:
REMARK  status: ('A' for Active; 'I' for Inactive)
REMARK    1  A    between atoms: C_1  and  C_2
REMARK    2  A    between atoms: C_1  and  C_8
REMARK    3  A    between atoms: C_3  and  C_18
REMARK    4  A    between atoms: C_5  and  C_15
REMARK    5  A    between atoms: C_8  and  C_9
REMARK    6  A    between atoms: C_8  and  C_22
REMARK                            x       y       z     vdW  Elec       q    Type
REMARK                         _______ _______ _______ _____ _____    ______ ____
ROOT
ATOM      1  C   UNL A   1     -23.439  -0.664  28.163  0.00  0.00    +0.070 C 
ENDROOT
BRANCH   1   2
ATOM      2  C   UNL A   1     -24.203  -0.079  27.429  0.00  0.00    -0.015 A 
ATOM      3  C   UNL A   1     -24.048   1.226  26.993  0.00  0.00    +0.068 A 
ATOM      4  C   UNL A   1     -24.981   1.974  26.186  0.00  0.00    +0.008 A 
ATOM      5  C   UNL A   1     -26.179   1.341  25.777  0.00  0.00    +0.059 A 
ATOM      6  C   UNL A   1     -26.399   0.001  26.187  0.00  0.00    +0.004 A 
ATOM      7  C   UNL A   1     -25.471  -0.610  26.973  0.00  0.00    -0.004 A 
BRANCH   3   8
ATOM      8  C   UNL A   1     -22.994   2.148  27.402  0.00  0.00    +0.418 C 
ATOM      9  F   UNL A   1     -22.832   2.234  28.573  0.00  0.00    -0.166 F 
ATOM     10  F   UNL A   1     -23.283   3.428  26.914  0.00  0.00    -0.166 F 
ATOM     11  F   UNL A   1     -21.752   1.878  26.911  0.00  0.00    -0.166 F 
ENDBRANCH   3   8
BRANCH   5  12
ATOM     12  C   UNL A   1     -27.196   2.047  25.000  0.00  0.00    +0.297 C 
ATOM     13  N   UNL A   1     -27.681   3.196  25.385  0.00  0.00    -0.102 NA
ATOM     14  O   UNL A   1     -27.968   1.384  24.166  0.00  0.00    -0.264 OA
ENDBRANCH   5  12
ENDBRANCH   1   2
BRANCH   1  15
ATOM     15  C   UNL A   1     -24.000  -1.012  29.497  0.00  0.00    +0.236 C 
ATOM     16  O   UNL A   1     -25.117   0.076  29.607  0.00  0.00    -0.212 OA
BRANCH  15  17
ATOM     17  C   UNL A   1     -24.561  -2.056  29.648  0.00  0.00    +0.013 A 
ATOM     18  C   UNL A   1     -25.734  -2.275  30.062  0.00  0.00    -0.002 A 
ATOM     19  C   UNL A   1     -26.438  -3.156  30.020  0.00  0.00    -0.000 A 
ATOM     20  C   UNL A   1     -25.878  -4.428  29.503  0.00  0.00    -0.000 A 
ATOM     21  C   UNL A   1     -24.622  -4.398  28.925  0.00  0.00    -0.000 A 
ATOM     22  C   UNL A   1     -23.885  -3.238  28.951  0.00  0.00    -0.002 A 
ENDBRANCH  15  17
BRANCH  15  23
ATOM     23  C   UNL A   1     -23.059  -0.480  30.679  0.00  0.00    +0.427 C 
ATOM     24  F   UNL A   1     -22.826  -1.101  31.628  0.00  0.00    -0.167 F 
ATOM     25  F   UNL A   1     -21.844  -0.059  30.080  0.00  0.00    -0.167 F 
ATOM     26  F   UNL A   1     -23.457   0.797  31.053  0.00  0.00    -0.167 F 
ENDBRANCH  15  23
ENDBRANCH   1  15
TORSDOF 6
ENDMDL
ENDMDL
