MODEL 1469
MODEL 1
REMARK VINA RESULT:    -4.285      0.000      0.000
REMARK INTER + INTRA:          -4.285
REMARK INTER:                  -4.285
REMARK INTRA:                   0.000
REMARK UNBOUND:                 0.000
REMARK  Name = No_1469-gen_results/8p0m/2024-11-27-11-27-31/
REMARK  0 active torsions:
REMARK  status: ('A' for Active; 'I' for Inactive)
REMARK                            x       y       z     vdW  Elec       q    Type
REMARK                         _______ _______ _______ _____ _____    ______ ____
ROOT
ATOM      1  C   UNL A   1     -24.205  -5.021  28.671  0.00  0.00    +0.000 A 
ATOM      2  C   UNL A   1     -25.128  -5.333  29.073  0.00  0.00    +0.000 A 
ATOM      3  C   UNL A   1     -24.007  -3.572  28.714  0.00  0.00    +0.000 A 
ATOM      4  C   UNL A   1     -24.942  -2.723  29.252  0.00  0.00    +0.000 A 
ATOM      5  C   UNL A   1     -26.278  -4.680  29.698  0.00  0.00    +0.000 A 
ATOM      6  C   UNL A   1     -26.096  -3.277  29.745  0.00  0.00    +0.000 A 
ENDROOT
TORSDOF 0
ENDMDL
ENDMDL
