MODEL 1470
MODEL 1
REMARK VINA RESULT:    -4.467      0.000      0.000
REMARK INTER + INTRA:          -5.337
REMARK INTER:                  -5.250
REMARK INTRA:                  -0.086
REMARK UNBOUND:                -0.086
REMARK  Name = No_1470-gen_results/8p0m/2024-11-27-11-27-31/
REMARK  3 active torsions:
REMARK  status: ('A' for Active; 'I' for Inactive)
REMARK    1  A    between atoms: P_1  and  O_2
REMARK    2  A    between atoms: O_2  and  C_6
REMARK    3  A    between atoms: C_6  and  C_7
REMARK                            x       y       z     vdW  Elec       q    Type
REMARK                         _______ _______ _______ _____ _____    ______ ____
ROOT
ATOM      1  O   UNL A   1     -28.037 -11.371  32.867  0.00  0.00    -0.265 OA
ENDROOT
BRANCH   1   2
ATOM      2  P   UNL A   1     -27.440 -11.819  33.724  0.00  0.00    +0.533 P 
ATOM      3  O   UNL A   1     -26.659 -10.875  34.541  0.00  0.00    -0.222 OA
ATOM      4  O   UNL A   1     -28.318 -12.688  34.712  0.00  0.00    -0.115 OA
ATOM      5  O   UNL A   1     -26.512 -12.618  32.741  0.00  0.00    -0.115 OA
ENDBRANCH   1   2
BRANCH   1   6
ATOM      6  C   UNL A   1     -28.258 -11.924  31.599  0.00  0.00    +0.180 C 
BRANCH   6   7
ATOM      7  C   UNL A   1     -29.113 -11.242  30.621  0.00  0.00    +0.002 C 
ATOM      8  C   UNL A   1     -28.822 -11.645  29.295  0.00  0.00    -0.028 C 
ATOM      9  C   UNL A   1     -29.843 -12.104  28.414  0.00  0.00    +0.030 C 
ENDBRANCH   6   7
ENDBRANCH   1   6
TORSDOF 3
ENDMDL
ENDMDL
