REMARK  Name = No_1471-gen_results/8p0m/2024-11-27-11-27-31/
REMARK  4 active torsions:
REMARK  status: ('A' for Active; 'I' for Inactive)
REMARK    1  A    between atoms: C_1  and  C_2
REMARK    2  A    between atoms: C_1  and  N_8
REMARK    3  A    between atoms: C_13  and  N_16
REMARK    4  A    between atoms: C_18  and  C_20
REMARK                            x       y       z     vdW  Elec       q    Type
REMARK                         _______ _______ _______ _____ _____    ______ ____
ROOT
ATOM      1  N   UNL A   1     -29.187  -0.165  29.103  0.00  0.00    -0.254 NA
ATOM      2  C   UNL A   1     -29.959  -0.415  30.076  0.00  0.00    +0.162 C 
ATOM      3  C   UNL A   1     -31.322  -0.121  30.030  0.00  0.00    +0.042 C 
ATOM      4  C   UNL A   1     -31.899   0.565  29.035  0.00  0.00    +0.016 C 
ATOM      5  C   UNL A   1     -31.013   0.775  27.955  0.00  0.00    +0.119 C 
ATOM      6  C   UNL A   1     -29.734   0.114  27.748  0.00  0.00    +0.085 C 
ENDROOT
BRANCH   2   7
ATOM      7  N   UNL A   1     -29.522  -0.969  31.257  0.00  0.00    -0.264 NA
ATOM      8  C   UNL A   1     -30.157  -1.481  32.202  0.00  0.00    +0.042 C 
ATOM      9  C   UNL A   1     -29.433  -2.018  33.335  0.00  0.00    +0.067 C 
ATOM     10  C   UNL A   1     -30.103  -2.736  34.288  0.00  0.00    -0.024 C 
ATOM     11  C   UNL A   1     -31.390  -2.941  34.154  0.00  0.00    -0.024 C 
ATOM     12  C   UNL A   1     -31.322  -2.098  32.545  0.00  0.00    +0.067 C 
ENDBRANCH   2   7
BRANCH   5  13
ATOM     13  C   UNL A   1     -31.603   1.379  26.652  0.00  0.00    +0.366 C 
ATOM     14  O   UNL A   1     -31.060   1.654  25.760  0.00  0.00    -0.246 OA
ATOM     15  O   UNL A   1     -32.757   1.955  26.884  0.00  0.00    -0.246 OA
ENDBRANCH   5  13
BRANCH   1  16
ATOM     16  C   UNL A   1     -28.016  -0.814  28.878  0.00  0.00    +0.081 C 
BRANCH  16  17
ATOM     17  C   UNL A   1     -27.064  -0.119  28.608  0.00  0.00    +0.074 C 
ATOM     18  C   UNL A   1     -25.765  -0.390  29.036  0.00  0.00    +0.152 C 
ATOM     19  C   UNL A   1     -24.552   0.406  28.765  0.00  0.00    +0.068 C 
ATOM     20  C   UNL A   1     -24.696   1.448  27.799  0.00  0.00    +0.085 C 
ATOM     21  C   UNL A   1     -25.976   1.725  27.308  0.00  0.00    +0.010 C 
ATOM     22  C   UNL A   1     -27.072   1.013  27.654  0.00  0.00    +0.009 C 
ATOM     23  C   UNL A   1     -23.496   2.169  27.476  0.00  0.00    +0.241 C 
ATOM     24  N   UNL A   1     -22.311   1.704  27.863  0.00  0.00    -0.205 NA
ATOM     25  C   UNL A   1     -22.192   0.701  28.797  0.00  0.00    +0.116 C 
ATOM     26  C   UNL A   1     -23.281  -0.048  29.184  0.00  0.00    +0.031 C 
ATOM     27  O   UNL A   1     -23.484   3.184  26.689  0.00  0.00    -0.273 OA
ATOM     28  O   UNL A   1     -25.589  -1.369  29.902  0.00  0.00    -0.296 OA
ENDBRANCH  16  17
ENDBRANCH   1  16
TORSDOF 4
