MODEL 1471
MODEL 1
REMARK VINA RESULT:    -7.947      0.000      0.000
REMARK INTER + INTRA:         -10.666
REMARK INTER:                  -9.806
REMARK INTRA:                  -0.860
REMARK UNBOUND:                -0.860
REMARK  Name = No_1471-gen_results/8p0m/2024-11-27-11-27-31/
REMARK  4 active torsions:
REMARK  status: ('A' for Active; 'I' for Inactive)
REMARK    1  A    between atoms: C_1  and  C_2
REMARK    2  A    between atoms: C_1  and  N_8
REMARK    3  A    between atoms: C_13  and  N_16
REMARK    4  A    between atoms: C_18  and  C_20
REMARK                            x       y       z     vdW  Elec       q    Type
REMARK                         _______ _______ _______ _____ _____    ______ ____
ROOT
ATOM      1  N   UNL A   1     -24.179   0.480  28.604  0.00  0.00    -0.254 NA
ATOM      2  C   UNL A   1     -24.850  -0.457  28.077  0.00  0.00    +0.162 C 
ATOM      3  C   UNL A   1     -25.111  -0.496  26.707  0.00  0.00    +0.042 C 
ATOM      4  C   UNL A   1     -24.807   0.500  25.866  0.00  0.00    +0.016 C 
ATOM      5  C   UNL A   1     -24.018   1.494  26.487  0.00  0.00    +0.119 C 
ATOM      6  C   UNL A   1     -23.339   1.380  27.769  0.00  0.00    +0.085 C 
ENDROOT
BRANCH   2   7
ATOM      7  N   UNL A   1     -25.393  -1.492  28.803  0.00  0.00    -0.264 NA
ATOM      8  C   UNL A   1     -25.203  -2.724  28.736  0.00  0.00    +0.042 C 
ATOM      9  C   UNL A   1     -25.901  -3.600  29.653  0.00  0.00    +0.067 C 
ATOM     10  C   UNL A   1     -25.569  -4.927  29.706  0.00  0.00    -0.024 C 
ATOM     11  C   UNL A   1     -24.612  -5.383  28.936  0.00  0.00    -0.024 C 
ATOM     12  C   UNL A   1     -24.318  -3.686  28.354  0.00  0.00    +0.067 C 
ENDBRANCH   2   7
BRANCH   5  13
ATOM     13  C   UNL A   1     -23.424   2.606  25.582  0.00  0.00    +0.366 C 
ATOM     14  O   UNL A   1     -22.500   2.565  25.024  0.00  0.00    -0.246 OA
ATOM     15  O   UNL A   1     -23.907   3.781  25.905  0.00  0.00    -0.246 OA
ENDBRANCH   5  13
BRANCH   1  16
ATOM     16  C   UNL A   1     -23.503   0.362  29.776  0.00  0.00    +0.081 C 
BRANCH  16  17
ATOM     17  C   UNL A   1     -24.170   0.404  30.783  0.00  0.00    +0.074 C 
ATOM     18  C   UNL A   1     -23.910  -0.371  31.913  0.00  0.00    +0.152 C 
ATOM     19  C   UNL A   1     -24.675  -0.393  33.175  0.00  0.00    +0.068 C 
ATOM     20  C   UNL A   1     -25.660   0.631  33.322  0.00  0.00    +0.085 C 
ATOM     21  C   UNL A   1     -25.922   1.462  32.228  0.00  0.00    +0.010 C 
ATOM     22  C   UNL A   1     -25.244   1.385  31.061  0.00  0.00    +0.009 C 
ATOM     23  C   UNL A   1     -26.347   0.658  34.584  0.00  0.00    +0.241 C 
ATOM     24  N   UNL A   1     -25.892  -0.057  35.609  0.00  0.00    -0.205 NA
ATOM     25  C   UNL A   1     -24.945  -1.041  35.448  0.00  0.00    +0.116 C 
ATOM     26  C   UNL A   1     -24.233  -1.161  34.275  0.00  0.00    +0.031 C 
ATOM     27  O   UNL A   1     -27.314   1.467  34.833  0.00  0.00    -0.273 OA
ATOM     28  O   UNL A   1     -22.982  -1.304  31.825  0.00  0.00    -0.296 OA
ENDBRANCH  16  17
ENDBRANCH   1  16
TORSDOF 4
ENDMDL
ENDMDL
