MODEL 1472
MODEL 1
REMARK VINA RESULT:    -8.387      0.000      0.000
REMARK INTER + INTRA:         -14.838
REMARK INTER:                 -12.800
REMARK INTRA:                  -2.038
REMARK UNBOUND:                -2.038
REMARK  Name = No_1472-gen_results/8p0m/2024-11-27-11-27-31/
REMARK  9 active torsions:
REMARK  status: ('A' for Active; 'I' for Inactive)
REMARK    1  A    between atoms: C_3  and  C_17
REMARK    2  A    between atoms: C_6  and  C_8
REMARK    3  A    between atoms: C_12  and  C_14
REMARK    4  A    between atoms: C_18  and  O_23
REMARK    5  A    between atoms: O_23  and  C_24
REMARK    6  A    between atoms: C_24  and  C_25
REMARK    7  A    between atoms: C_25  and  C_26
REMARK    8  A    between atoms: C_26  and  C_27
REMARK    9  A    between atoms: C_26  and  C_33
REMARK                            x       y       z     vdW  Elec       q    Type
REMARK                         _______ _______ _______ _____ _____    ______ ____
ROOT
ATOM      1  C   UNL A   1     -24.712   1.520  26.390  0.00  0.00    +0.035 A 
ATOM      2  C   UNL A   1     -24.815   1.260  27.777  0.00  0.00    +0.139 A 
ATOM      3  C   UNL A   1     -23.594   1.284  28.534  0.00  0.00    +0.037 A 
ATOM      4  C   UNL A   1     -22.384   1.619  27.878  0.00  0.00    +0.003 A 
ATOM      5  C   UNL A   1     -22.348   1.931  26.570  0.00  0.00    +0.000 A 
ATOM      6  C   UNL A   1     -23.507   1.873  25.842  0.00  0.00    +0.003 A 
ENDROOT
BRANCH   1   9
ATOM      7  C   UNL A   1     -27.840   2.672  24.849  0.00  0.00    +0.013 A 
ATOM      8  C   UNL A   1     -26.845   2.660  25.537  0.00  0.00    +0.058 A 
ATOM      9  C   UNL A   1     -26.016   1.545  25.580  0.00  0.00    +0.013 A 
ATOM     10  C   UNL A   1     -26.340   0.351  24.843  0.00  0.00    +0.001 A 
ATOM     11  C   UNL A   1     -27.519   0.443  24.093  0.00  0.00    +0.002 A 
ATOM     12  C   UNL A   1     -28.278   1.516  24.099  0.00  0.00    +0.018 A 
ATOM     13 CL   UNL A   1     -26.548   4.021  26.499  0.00  0.00    -0.082 Cl
BRANCH  12  14
ATOM     14  C   UNL A   1     -29.517   1.444  23.285  0.00  0.00    +0.082 A 
ATOM     15  N   UNL A   1     -30.224   0.501  23.476  0.00  0.00    -0.244 NA
ATOM     16  C   UNL A   1     -31.398   0.459  23.841  0.00  0.00    +0.099 A 
ATOM     17  C   UNL A   1     -32.012   1.621  24.106  0.00  0.00    +0.027 A 
ATOM     18  C   UNL A   1     -31.660   2.664  23.360  0.00  0.00    +0.083 A 
ATOM     19  C   UNL A   1     -30.803   2.589  22.530  0.00  0.00    +0.026 A 
BRANCH  18  20
ATOM     20  C   UNL A   1     -32.462   3.927  23.244  0.00  0.00    +0.388 C 
ATOM     21  O   UNL A   1     -32.457   4.822  23.989  0.00  0.00    -0.241 OA
ATOM     22  O   UNL A   1     -33.427   4.005  22.279  0.00  0.00    -0.241 OA
ENDBRANCH  18  20
ENDBRANCH  12  14
ENDBRANCH   1   9
BRANCH   2  23
ATOM     23  O   UNL A   1     -25.933   0.856  28.345  0.00  0.00    -0.475 OA
BRANCH  23  24
ATOM     24  C   UNL A   1     -26.307  -0.485  28.315  0.00  0.00    +0.206 C 
BRANCH  24  25
ATOM     25  C   UNL A   1     -26.841  -0.925  29.647  0.00  0.00    +0.056 C 
BRANCH  25  26
ATOM     26  C   UNL A   1     -25.805  -1.580  30.327  0.00  0.00    +0.048 C 
BRANCH  26  27
ATOM     27  C   UNL A   1     -25.518  -2.804  29.721  0.00  0.00    -0.018 A 
ATOM     28  C   UNL A   1     -24.273  -3.002  29.070  0.00  0.00    -0.004 A 
ATOM     29  C   UNL A   1     -23.937  -4.292  28.597  0.00  0.00    -0.000 A 
ATOM     30  C   UNL A   1     -24.847  -5.326  28.805  0.00  0.00    -0.000 A 
ATOM     31  C   UNL A   1     -26.021  -5.160  29.434  0.00  0.00    -0.000 A 
ATOM     32  C   UNL A   1     -26.330  -3.885  29.969  0.00  0.00    -0.004 A 
ENDBRANCH  26  27
BRANCH  26  33
ATOM     33  C   UNL A   1     -25.153  -1.125  31.444  0.00  0.00    -0.026 C 
ATOM     34  C   UNL A   1     -23.902  -1.295  31.761  0.00  0.00    -0.030 C 
ATOM     35  C   UNL A   1     -23.393  -0.928  33.035  0.00  0.00    +0.030 C 
ENDBRANCH  26  33
ENDBRANCH  25  26
ENDBRANCH  24  25
ENDBRANCH  23  24
ENDBRANCH   2  23
TORSDOF 9
ENDMDL
ENDMDL
