MODEL 1473
MODEL 1
REMARK VINA RESULT:    -5.239      0.000      0.000
REMARK INTER + INTRA:          -5.766
REMARK INTER:                  -5.546
REMARK INTRA:                  -0.221
REMARK UNBOUND:                -0.221
REMARK  Name = No_1473-gen_results/8p0m/2024-11-27-11-27-31/
REMARK  1 active torsions:
REMARK  status: ('A' for Active; 'I' for Inactive)
REMARK    1  A    between atoms: C_3  and  C_4
REMARK                            x       y       z     vdW  Elec       q    Type
REMARK                         _______ _______ _______ _____ _____    ______ ____
ROOT
ATOM      1  C   UNL A   1     -23.952  -4.067  28.685  0.00  0.00    +0.004 A 
ATOM      2  C   UNL A   1     -24.558  -4.904  28.890  0.00  0.00    -0.000 A 
ATOM      3  C   UNL A   1     -24.451  -2.792  29.031  0.00  0.00    +0.071 A 
ATOM      4  C   UNL A   1     -25.902  -5.009  29.486  0.00  0.00    -0.000 A 
ATOM      5  C   UNL A   1     -26.460  -3.784  29.851  0.00  0.00    -0.000 A 
ATOM      6  C   UNL A   1     -25.736  -2.648  29.679  0.00  0.00    +0.004 A 
ENDROOT
BRANCH   3   7
ATOM      7  C   UNL A   1     -23.682  -1.525  28.911  0.00  0.00    +0.419 C 
ATOM      8  F   UNL A   1     -22.547  -1.805  28.913  0.00  0.00    -0.166 F 
ATOM      9  F   UNL A   1     -23.906  -0.815  30.048  0.00  0.00    -0.166 F 
ATOM     10  F   UNL A   1     -24.054  -0.785  27.838  0.00  0.00    -0.166 F 
ENDBRANCH   3   7
TORSDOF 1
ENDMDL
ENDMDL
