MODEL 1474
MODEL 1
REMARK VINA RESULT:    -7.102      0.000      0.000
REMARK INTER + INTRA:          -8.808
REMARK INTER:                  -8.347
REMARK INTRA:                  -0.461
REMARK UNBOUND:                -0.461
REMARK  Name = No_1474-gen_results/8p0m/2024-11-27-11-27-31/
REMARK  3 active torsions:
REMARK  status: ('A' for Active; 'I' for Inactive)
REMARK    1  A    between atoms: C_2  and  C_7
REMARK    2  A    between atoms: C_7  and  C_8
REMARK    3  A    between atoms: C_7  and  C_14
REMARK                            x       y       z     vdW  Elec       q    Type
REMARK                         _______ _______ _______ _____ _____    ______ ____
ROOT
ATOM      1  C   UNL A   1     -24.463  -1.110  29.072  0.00  0.00    +0.123 C 
ENDROOT
BRANCH   1   3
ATOM      2  C   UNL A   1     -25.887  -2.970  29.587  0.00  0.00    -0.004 A 
ATOM      3  C   UNL A   1     -24.849  -2.546  29.135  0.00  0.00    -0.010 A 
ATOM      4  C   UNL A   1     -23.897  -3.404  28.597  0.00  0.00    -0.004 A 
ATOM      5  C   UNL A   1     -24.097  -4.830  28.602  0.00  0.00    -0.000 A 
ATOM      6  C   UNL A   1     -25.314  -5.236  29.166  0.00  0.00    -0.000 A 
ATOM      7  C   UNL A   1     -26.174  -4.385  29.677  0.00  0.00    -0.000 A 
ENDBRANCH   1   3
BRANCH   1   8
ATOM      8  C   UNL A   1     -23.948  -0.475  28.165  0.00  0.00    -0.010 A 
ATOM      9  C   UNL A   1     -22.639   0.246  28.480  0.00  0.00    -0.004 A 
ATOM     10  C   UNL A   1     -22.333   1.393  28.134  0.00  0.00    -0.000 A 
ATOM     11  C   UNL A   1     -22.940   1.849  26.851  0.00  0.00    -0.000 A 
ATOM     12  C   UNL A   1     -24.034   1.172  26.379  0.00  0.00    -0.000 A 
ATOM     13  C   UNL A   1     -24.601   0.101  27.073  0.00  0.00    -0.004 A 
ENDBRANCH   1   8
BRANCH   1  14
ATOM     14  C   UNL A   1     -24.945  -0.345  30.257  0.00  0.00    +0.249 C 
ATOM     15  N   UNL A   1     -24.405  -0.322  31.375  0.00  0.00    -0.203 NA
ATOM     16  O   UNL A   1     -26.017   0.398  30.060  0.00  0.00    -0.273 OA
ATOM     17  C   UNL A   1     -23.220  -1.131  31.655  0.00  0.00    +0.139 C 
ENDBRANCH   1  14
TORSDOF 3
ENDMDL
ENDMDL
