REMARK  Name = outputs/IAG933/test6/raw/output_1475_IAG933_linker_design_.xyz
REMARK  13 active torsions:
REMARK  status: ('A' for Active; 'I' for Inactive)
REMARK    1  A    between atoms: C_1  and  C_2
REMARK    2  A    between atoms: C_1  and  C_8
REMARK    3  A    between atoms: C_1  and  O_28
REMARK    4  A    between atoms: C_13  and  C_48
REMARK    5  A    between atoms: C_14  and  C_15
REMARK    6  A    between atoms: C_21  and  O_22
REMARK    7  A    between atoms: O_22  and  C_23
REMARK    8  A    between atoms: C_23  and  C_24
REMARK    9  A    between atoms: C_24  and  O_25
REMARK   10  A    between atoms: O_25  and  C_36
REMARK   11  A    between atoms: O_28  and  C_44
REMARK   12  A    between atoms: C_29  and  C_38
REMARK   13  A    between atoms: C_32  and  C_40
REMARK                            x       y       z     vdW  Elec       q    Type
REMARK                         _______ _______ _______ _____ _____    ______ ____
ROOT
ATOM      1  C   UNL A   1     -25.688   1.614  26.461  0.00  0.00    +0.038 C 
ATOM      2  C   UNL A   1     -26.250   2.920  26.395  0.00  0.00    +0.074 C 
ATOM      3  C   UNL A   1     -27.438   3.091  25.645  0.00  0.00    +0.106 C 
ATOM      4  N   UNL A   1     -28.075   2.089  25.003  0.00  0.00    -0.208 NA
ATOM      5  C   UNL A   1     -27.543   0.849  25.079  0.00  0.00    +0.253 C 
ATOM      6  C   UNL A   1     -26.354   0.576  25.777  0.00  0.00    +0.191 C 
ATOM      7  F   UNL A   1     -25.860  -0.681  25.795  0.00  0.00    -0.200 F 
ENDROOT
BRANCH   1  14
ATOM      8  C   UNL A   1     -23.151   2.406  25.496  0.00  0.00    +0.002 C 
ATOM      9  C   UNL A   1     -22.097   0.515  28.618  0.00  0.00    +0.085 C 
ATOM     10  C   UNL A   1     -23.236   1.408  26.646  0.00  0.00    +0.027 C 
ATOM     11  C   UNL A   1     -23.319   0.104  29.097  0.00  0.00    +0.196 C 
ATOM     12  N   UNL A   1     -24.381   0.367  28.372  0.00  0.00    -0.239 NA
ATOM     13  C   UNL A   1     -21.957   1.408  27.466  0.00  0.00    +0.012 C 
ATOM     14  C   UNL A   1     -24.544   1.479  27.468  0.00  0.00    +0.131 C 
BRANCH  11  15
ATOM     15  O   UNL A   1     -23.476  -0.564  30.225  0.00  0.00    -0.461 OA
BRANCH  15  16
ATOM     16  C   UNL A   1     -24.855  -1.012  30.143  0.00  0.00    +0.205 C 
BRANCH  16  17
ATOM     17  C   UNL A   1     -24.973  -2.505  29.788  0.00  0.00    +0.019 C 
ATOM     18  C   UNL A   1     -23.906  -3.173  29.146  0.00  0.00    -0.001 C 
ATOM     19  C   UNL A   1     -23.989  -4.549  28.853  0.00  0.00    -0.000 C 
ATOM     20  C   UNL A   1     -25.137  -5.280  29.205  0.00  0.00    -0.000 C 
ATOM     21  C   UNL A   1     -26.232  -4.611  29.784  0.00  0.00    -0.000 C 
ATOM     22  C   UNL A   1     -26.155  -3.232  30.065  0.00  0.00    -0.001 C 
ENDBRANCH  16  17
BRANCH  16  23
ATOM     23  C   UNL A   1     -25.387  -0.679  31.571  0.00  0.00    +0.117 C 
ATOM     24  C   UNL A   1     -25.189   0.773  32.028  0.00  0.00    +0.023 C 
ATOM     25  C   UNL A   1     -25.336   0.684  33.544  0.00  0.00    +0.020 C 
ATOM     26  C   UNL A   1     -24.829  -0.715  33.905  0.00  0.00    +0.089 C 
ATOM     27  N   UNL A   1     -24.758  -1.481  32.646  0.00  0.00    -0.215 NA
ENDBRANCH  16  23
ENDBRANCH  15  16
ENDBRANCH  11  15
ENDBRANCH   1  14
BRANCH   2  28
ATOM     28  C   UNL A   1     -25.642   4.093  27.123  0.00  0.00    +0.266 C 
ATOM     29  N   UNL A   1     -25.614   5.252  26.449  0.00  0.00    -0.200 NA
ATOM     30  C   UNL A   1     -25.026   6.479  26.963  0.00  0.00    +0.139 C 
ATOM     31  O   UNL A   1     -25.143   3.966  28.243  0.00  0.00    -0.268 OA
ENDBRANCH   2  28
BRANCH   5  32
ATOM     32  O   UNL A   1     -28.193  -0.208  24.477  0.00  0.00    -0.456 OA
BRANCH  32  33
ATOM     33  C   UNL A   1     -29.460   0.005  23.866  0.00  0.00    +0.241 C 
BRANCH  33  34
ATOM     34  C   UNL A   1     -30.065  -1.377  23.573  0.00  0.00    +0.208 C 
BRANCH  34  35
ATOM     35  O   UNL A   1     -30.729  -1.878  24.721  0.00  0.00    -0.280 OA
BRANCH  35  37
ATOM     36  C   UNL A   1     -31.237  -0.580  27.009  0.00  0.00    -0.020 C 
ATOM     37  C   UNL A   1     -31.122  -1.283  25.820  0.00  0.00    +0.062 C 
BRANCH  36  43
ATOM     38  C   UNL A   1     -32.182   1.902  26.095  0.00  0.00    +0.118 C 
ATOM     39  C   UNL A   1     -33.468   1.737  28.240  0.00  0.00    +0.066 C 
ATOM     40  C   UNL A   1     -30.650   0.865  29.008  0.00  0.00    +0.028 C 
ATOM     41  C   UNL A   1     -33.462   1.780  29.678  0.00  0.00    +0.016 C 
ATOM     42  C   UNL A   1     -32.285   2.107  30.426  0.00  0.00    -0.003 C 
ATOM     43  C   UNL A   1     -31.473   0.364  27.876  0.00  0.00    +0.095 C 
ATOM     44  C   UNL A   1     -30.179   3.245  29.654  0.00  0.00    +0.031 C 
ATOM     45  C   UNL A   1     -31.069   2.031  29.698  0.00  0.00    -0.021 C 
ATOM     46  N   UNL A   1     -32.410   1.312  27.435  0.00  0.00    -0.278 N 
BRANCH  40  48
ATOM     47  O   UNL A   1     -28.709  -0.393  28.502  0.00  0.00    -0.215 OA
ATOM     48  C   UNL A   1     -29.169   0.831  28.841  0.00  0.00    +0.210 C 
ENDBRANCH  40  48
ENDBRANCH  36  43
ENDBRANCH  35  37
ENDBRANCH  34  35
ENDBRANCH  33  34
ENDBRANCH  32  33
ENDBRANCH   5  32
TORSDOF 13
