MODEL 1475
MODEL 1
REMARK VINA RESULT:    -6.868      0.000      0.000
REMARK INTER + INTRA:         -12.875
REMARK INTER:                 -10.080
REMARK INTRA:                  -2.795
REMARK UNBOUND:                -2.795
REMARK  Name = No_1475-gen_results/8p0m/2024-11-27-11-27-31/
REMARK  8 active torsions:
REMARK  status: ('A' for Active; 'I' for Inactive)
REMARK    1  A    between atoms: C_1  and  C_3
REMARK    2  A    between atoms: C_8  and  C_13
REMARK    3  A    between atoms: C_13  and  C_14
REMARK    4  A    between atoms: C_13  and  C_15
REMARK    5  A    between atoms: C_14  and  N_17
REMARK    6  A    between atoms: N_17  and  C_18
REMARK    7  A    between atoms: C_19  and  C_20
REMARK    8  A    between atoms: C_20  and  C_21
REMARK                            x       y       z     vdW  Elec       q    Type
REMARK                         _______ _______ _______ _____ _____    ______ ____
ROOT
ATOM      1  C   UNL A   1     -25.547  -1.303  28.875  0.00  0.00    -0.000 A 
ATOM      2  C   UNL A   1     -26.426  -0.913  29.306  0.00  0.00    -0.000 A 
ATOM      3  C   UNL A   1     -26.837   0.491  29.009  0.00  0.00    -0.000 A 
ATOM      4  C   UNL A   1     -26.055   1.177  28.067  0.00  0.00    -0.004 A 
ATOM      5  C   UNL A   1     -25.240   0.503  27.250  0.00  0.00    -0.019 A 
ATOM      6  C   UNL A   1     -25.040  -0.859  27.546  0.00  0.00    -0.004 A 
ENDROOT
BRANCH   1   7
ATOM      7  C   UNL A   1     -25.283  -2.699  29.247  0.00  0.00    -0.000 A 
ATOM      8  C   UNL A   1     -24.147  -3.301  28.750  0.00  0.00    -0.000 A 
ATOM      9  C   UNL A   1     -24.064  -4.600  28.613  0.00  0.00    -0.000 A 
ATOM     10  C   UNL A   1     -26.309  -3.617  29.703  0.00  0.00    -0.000 A 
ATOM     11  C   UNL A   1     -26.204  -4.979  29.714  0.00  0.00    -0.000 A 
ATOM     12  C   UNL A   1     -24.981  -5.489  29.195  0.00  0.00    +0.000 A 
ENDBRANCH   1   7
BRANCH   5  13
ATOM     13  C   UNL A   1     -24.692   1.116  26.038  0.00  0.00    +0.063 C 
BRANCH  13  14
ATOM     14  C   UNL A   1     -24.958   0.557  24.779  0.00  0.00    +0.115 C 
ATOM     15  N   UNL A   1     -26.274   0.361  24.470  0.00  0.00    -0.131 NA
ENDBRANCH  13  14
BRANCH  13  16
ATOM     16  C   UNL A   1     -23.618   2.145  26.130  0.00  0.00    +0.118 C 
BRANCH  16  17
ATOM     17  N   UNL A   1     -22.741   2.189  27.178  0.00  0.00    -0.236 NA
BRANCH  17  18
ATOM     18  C   UNL A   1     -21.597   1.463  27.299  0.00  0.00    +0.076 C 
ATOM     19  C   UNL A   1     -21.550   0.495  28.457  0.00  0.00    -0.004 C 
BRANCH  19  20
ATOM     20  C   UNL A   1     -22.485   0.643  29.495  0.00  0.00    +0.053 C 
BRANCH  20  21
ATOM     21  C   UNL A   1     -22.498  -0.355  30.473  0.00  0.00    -0.026 C 
ATOM     22  C   UNL A   1     -23.191  -0.300  31.331  0.00  0.00    -0.030 C 
ATOM     23  C   UNL A   1     -23.141  -1.345  32.429  0.00  0.00    +0.030 C 
ENDBRANCH  20  21
ENDBRANCH  19  20
ENDBRANCH  17  18
ENDBRANCH  16  17
ENDBRANCH  13  16
ENDBRANCH   5  13
TORSDOF 8
ENDMDL
ENDMDL
