MODEL 1476
MODEL 1
REMARK VINA RESULT:    -5.763      0.000      0.000
REMARK INTER + INTRA:          -6.733
REMARK INTER:                  -6.436
REMARK INTRA:                  -0.297
REMARK UNBOUND:                -0.297
REMARK  Name = No_1476-gen_results/8p0m/2024-11-27-11-27-31/
REMARK  2 active torsions:
REMARK  status: ('A' for Active; 'I' for Inactive)
REMARK    1  A    between atoms: C_2  and  C_11
REMARK    2  A    between atoms: C_3  and  C_7
REMARK                            x       y       z     vdW  Elec       q    Type
REMARK                         _______ _______ _______ _____ _____    ______ ____
ROOT
ATOM      1  C   UNL A   1     -28.249 -11.794  31.679  0.00  0.00    +0.010 A 
ATOM      2  C   UNL A   1     -28.258 -11.247  32.580  0.00  0.00    +0.080 A 
ATOM      3  C   UNL A   1     -29.161 -11.267  30.664  0.00  0.00    +0.072 A 
ATOM      4  C   UNL A   1     -29.932 -10.151  30.884  0.00  0.00    +0.004 A 
ATOM      5  C   UNL A   1     -28.947 -10.058  33.082  0.00  0.00    +0.007 A 
ATOM      6  C   UNL A   1     -29.833  -9.540  32.107  0.00  0.00    +0.000 A 
ENDROOT
BRANCH   3   7
ATOM      7  C   UNL A   1     -29.259 -11.880  29.308  0.00  0.00    +0.419 C 
ATOM      8  F   UNL A   1     -28.325 -11.674  28.672  0.00  0.00    -0.166 F 
ATOM      9  F   UNL A   1     -30.346 -11.368  28.596  0.00  0.00    -0.166 F 
ATOM     10  F   UNL A   1     -29.513 -13.254  29.594  0.00  0.00    -0.166 F 
ENDBRANCH   3   7
BRANCH   2  11
ATOM     11  C   UNL A   1     -27.208 -11.692  33.744  0.00  0.00    +0.388 C 
ATOM     12  O   UNL A   1     -26.702 -12.821  33.779  0.00  0.00    -0.241 OA
ATOM     13  O   UNL A   1     -26.835 -10.863  34.617  0.00  0.00    -0.241 OA
ENDBRANCH   2  11
TORSDOF 2
ENDMDL
ENDMDL
