MODEL 147
MODEL 1
REMARK VINA RESULT:    -5.027      0.000      0.000
REMARK INTER + INTRA:          -5.027
REMARK INTER:                  -5.027
REMARK INTRA:                   0.000
REMARK UNBOUND:                 0.000
REMARK  Name = No_147-gen_results/8p0m/2024-11-27-11-27-31/
REMARK  0 active torsions:
REMARK  status: ('A' for Active; 'I' for Inactive)
REMARK                            x       y       z     vdW  Elec       q    Type
REMARK                         _______ _______ _______ _____ _____    ______ ____
ROOT
ATOM      1  C   UNL A   1     -10.481  -9.297  19.205  0.00  0.00    +0.042 A 
ATOM      2  C   UNL A   1      -9.720  -9.112  20.127  0.00  0.00    +0.003 A 
ATOM      3  C   UNL A   1      -8.425  -9.618  20.103  0.00  0.00    +0.000 A 
ATOM      4  C   UNL A   1      -7.963 -10.418  18.998  0.00  0.00    +0.003 A 
ATOM      5  C   UNL A   1      -8.914 -10.603  17.987  0.00  0.00    +0.042 A 
ATOM      6  C   UNL A   1     -10.132 -10.117  18.065  0.00  0.00    +0.196 A 
ATOM      7  O   UNL A   1     -11.008 -10.375  17.056  0.00  0.00    -0.287 OA
ENDROOT
TORSDOF 0
ENDMDL
ENDMDL
