REMARK  Name = outputs/IAG933/test6/raw/output_148_IAG933_linker_design_.xyz
REMARK  14 active torsions:
REMARK  status: ('A' for Active; 'I' for Inactive)
REMARK    1  A    between atoms: C_1  and  C_2
REMARK    2  A    between atoms: C_1  and  C_8
REMARK    3  A    between atoms: C_9  and  C_39
REMARK    4  A    between atoms: C_13  and  C_42
REMARK    5  A    between atoms: C_14  and  C_15
REMARK    6  A    between atoms: C_21  and  O_22
REMARK    7  A    between atoms: O_22  and  C_23
REMARK    8  A    between atoms: C_23  and  C_24
REMARK    9  A    between atoms: C_31  and  C_32
REMARK   10  A    between atoms: C_32  and  C_41
REMARK   11  A    between atoms: C_38  and  C_39
REMARK   12  A    between atoms: C_39  and  C_45
REMARK   13  A    between atoms: C_41  and  C_43
REMARK   14  A    between atoms: C_47  and  N_48
REMARK                            x       y       z     vdW  Elec       q    Type
REMARK                         _______ _______ _______ _____ _____    ______ ____
ROOT
ATOM      1  C   UNL A   1     -25.066   2.042  31.103  0.00  0.00    +0.094 C 
ENDROOT
BRANCH   1   4
ATOM      2  N   UNL A   1     -24.222   1.470  28.554  0.00  0.00    -0.255 N 
ATOM      3  O   UNL A   1     -26.825   1.660  29.587  0.00  0.00    -0.275 OA
ATOM      4  C   UNL A   1     -25.529   1.789  29.688  0.00  0.00    +0.231 C 
ATOM      5  C   UNL A   1     -21.799   1.871  28.043  0.00  0.00    -0.010 C 
ATOM      6  C   UNL A   1     -24.486   1.268  27.423  0.00  0.00    +0.105 C 
ATOM      7  C   UNL A   1     -23.317   1.341  26.226  0.00  0.00    +0.029 C 
ATOM      8  C   UNL A   1     -22.092   1.960  26.794  0.00  0.00    +0.029 C 
ATOM      9  C   UNL A   1     -22.883   1.526  29.041  0.00  0.00    +0.063 C 
BRANCH   6  10
ATOM     10  C   UNL A   1     -25.688   1.614  26.461  0.00  0.00    +0.034 C 
ATOM     11  C   UNL A   1     -26.250   2.920  26.395  0.00  0.00    +0.074 C 
ATOM     12  C   UNL A   1     -27.438   3.091  25.645  0.00  0.00    +0.106 C 
ATOM     13  N   UNL A   1     -28.075   2.089  25.003  0.00  0.00    -0.208 NA
ATOM     14  C   UNL A   1     -27.543   0.849  25.079  0.00  0.00    +0.253 C 
ATOM     15  C   UNL A   1     -26.354   0.576  25.777  0.00  0.00    +0.191 C 
ATOM     16  F   UNL A   1     -25.860  -0.681  25.795  0.00  0.00    -0.200 F 
BRANCH  11  17
ATOM     17  C   UNL A   1     -25.642   4.093  27.123  0.00  0.00    +0.266 C 
ATOM     18  N   UNL A   1     -25.614   5.252  26.449  0.00  0.00    -0.200 NA
ATOM     19  C   UNL A   1     -25.026   6.479  26.963  0.00  0.00    +0.139 C 
ATOM     20  O   UNL A   1     -25.143   3.966  28.243  0.00  0.00    -0.268 OA
ENDBRANCH  11  17
BRANCH  14  21
ATOM     21  O   UNL A   1     -28.193  -0.208  24.477  0.00  0.00    -0.456 OA
BRANCH  21  22
ATOM     22  C   UNL A   1     -29.460   0.005  23.866  0.00  0.00    +0.243 C 
BRANCH  22  23
ATOM     23  C   UNL A   1     -30.065  -1.377  23.573  0.00  0.00    +0.229 C 
ATOM     24  O   UNL A   1     -30.729  -1.878  24.721  0.00  0.00    -0.216 OA
ENDBRANCH  22  23
ENDBRANCH  21  22
ENDBRANCH  14  21
ENDBRANCH   6  10
ENDBRANCH   1   4
BRANCH   1  26
ATOM     25  C   UNL A   1     -25.387  -0.679  31.571  0.00  0.00    +0.078 C 
ATOM     26  C   UNL A   1     -25.189   0.773  32.028  0.00  0.00    +0.028 C 
ATOM     27  C   UNL A   1     -25.336   0.684  33.544  0.00  0.00    +0.021 C 
ATOM     28  C   UNL A   1     -24.829  -0.715  33.905  0.00  0.00    +0.089 C 
ATOM     29  N   UNL A   1     -24.758  -1.481  32.646  0.00  0.00    -0.219 NA
BRANCH  25  30
ATOM     30  C   UNL A   1     -24.855  -1.012  30.143  0.00  0.00    +0.044 C 
BRANCH  30  31
ATOM     31  C   UNL A   1     -24.973  -2.505  29.788  0.00  0.00    -0.021 C 
ATOM     32  C   UNL A   1     -23.906  -3.173  29.146  0.00  0.00    -0.004 C 
ATOM     33  C   UNL A   1     -23.989  -4.549  28.853  0.00  0.00    -0.000 C 
ATOM     34  C   UNL A   1     -25.137  -5.280  29.205  0.00  0.00    -0.000 C 
ATOM     35  C   UNL A   1     -26.232  -4.611  29.784  0.00  0.00    -0.000 C 
ATOM     36  C   UNL A   1     -26.155  -3.232  30.065  0.00  0.00    -0.004 C 
ENDBRANCH  30  31
ENDBRANCH  25  30
ENDBRANCH   1  26
BRANCH   1  38
ATOM     37  C   UNL A   1     -26.036   4.811  31.779  0.00  0.00    +0.073 C 
ATOM     38  C   UNL A   1     -25.789   3.409  31.686  0.00  0.00    +0.081 C 
ATOM     39  N   UNL A   1     -26.882   3.909  31.503  0.00  0.00    -0.272 NA
BRANCH  39  41
ATOM     40  C   UNL A   1     -27.109   4.786  33.867  0.00  0.00    +0.019 C 
ATOM     41  C   UNL A   1     -27.805   3.775  32.990  0.00  0.00    +0.072 C 
ENDBRANCH  39  41
BRANCH  37  42
ATOM     42  C   UNL A   1     -26.115   5.883  30.968  0.00  0.00    +0.022 C 
BRANCH  42  43
ATOM     43  C   UNL A   1     -24.849   6.986  30.914  0.00  0.00    +0.031 C 
BRANCH  43  49
ATOM     44  C   UNL A   1     -25.321   8.867  32.506  0.00  0.00    -0.001 C 
ATOM     45  C   UNL A   1     -24.508   6.692  33.444  0.00  0.00    +0.191 C 
ATOM     46  C   UNL A   1     -24.274   7.363  34.554  0.00  0.00    +0.037 C 
ATOM     47  C   UNL A   1     -24.567   9.165  36.161  0.00  0.00    +0.031 C 
ATOM     48  C   UNL A   1     -25.178   9.480  33.757  0.00  0.00    -0.004 C 
ATOM     49  C   UNL A   1     -24.901   7.557  32.303  0.00  0.00    +0.017 C 
ATOM     50  O   UNL A   1     -24.452   5.309  33.685  0.00  0.00    -0.287 OA
ATOM     51  C   UNL A   1     -24.653   8.677  34.756  0.00  0.00    -0.019 C 
ENDBRANCH  43  49
ENDBRANCH  42  43
ENDBRANCH  37  42
ENDBRANCH   1  38
TORSDOF 14
