REMARK  Name = outputs/IAG933/test6/raw/output_1481_IAG933_linker_design_.xyz
REMARK  11 active torsions:
REMARK  status: ('A' for Active; 'I' for Inactive)
REMARK    1  A    between atoms: C_1  and  C_2
REMARK    2  A    between atoms: C_1  and  C_8
REMARK    3  A    between atoms: C_1  and  C_41
REMARK    4  A    between atoms: C_13  and  C_39
REMARK    5  A    between atoms: C_14  and  C_15
REMARK    6  A    between atoms: C_21  and  O_22
REMARK    7  A    between atoms: O_22  and  C_23
REMARK    8  A    between atoms: C_23  and  C_24
REMARK    9  A    between atoms: O_29  and  C_31
REMARK   10  A    between atoms: C_33  and  C_41
REMARK   11  A    between atoms: N_38  and  C_41
REMARK                            x       y       z     vdW  Elec       q    Type
REMARK                         _______ _______ _______ _____ _____    ______ ____
ROOT
ATOM      1  F   UNL A   1     -22.763   0.572  30.095  0.00  0.00    -0.216 F 
ATOM      2  C   UNL A   1     -23.297   1.393  26.918  0.00  0.00    +0.171 C 
ATOM      3  C   UNL A   1     -23.208   0.663  28.991  0.00  0.00    +0.258 C 
ATOM      4  C   UNL A   1     -22.315   0.912  27.901  0.00  0.00    +0.237 C 
ATOM      5  F   UNL A   1     -21.106   1.545  27.939  0.00  0.00    -0.230 F 
ATOM      6  N   UNL A   1     -24.456   0.672  28.534  0.00  0.00    -0.236 NA
ATOM      7  C   UNL A   1     -24.533   1.256  27.220  0.00  0.00    +0.115 C 
ENDROOT
BRANCH   7   8
ATOM      8  C   UNL A   1     -25.688   1.614  26.461  0.00  0.00    +0.033 C 
ATOM      9  C   UNL A   1     -26.250   2.920  26.395  0.00  0.00    +0.074 C 
ATOM     10  C   UNL A   1     -27.438   3.091  25.645  0.00  0.00    +0.106 C 
ATOM     11  N   UNL A   1     -28.075   2.089  25.003  0.00  0.00    -0.208 NA
ATOM     12  C   UNL A   1     -27.543   0.849  25.079  0.00  0.00    +0.253 C 
ATOM     13  C   UNL A   1     -26.354   0.576  25.777  0.00  0.00    +0.190 C 
ATOM     14  F   UNL A   1     -25.860  -0.681  25.795  0.00  0.00    -0.200 F 
BRANCH   9  15
ATOM     15  C   UNL A   1     -25.642   4.093  27.123  0.00  0.00    +0.266 C 
ATOM     16  N   UNL A   1     -25.614   5.252  26.449  0.00  0.00    -0.200 NA
ATOM     17  C   UNL A   1     -25.026   6.479  26.963  0.00  0.00    +0.139 C 
ATOM     18  O   UNL A   1     -25.143   3.966  28.243  0.00  0.00    -0.268 OA
ENDBRANCH   9  15
BRANCH  12  19
ATOM     19  O   UNL A   1     -28.193  -0.208  24.477  0.00  0.00    -0.456 OA
BRANCH  19  20
ATOM     20  C   UNL A   1     -29.460   0.005  23.866  0.00  0.00    +0.243 C 
BRANCH  20  21
ATOM     21  C   UNL A   1     -30.065  -1.377  23.573  0.00  0.00    +0.229 C 
ATOM     22  O   UNL A   1     -30.729  -1.878  24.721  0.00  0.00    -0.216 OA
ENDBRANCH  20  21
ENDBRANCH  19  20
ENDBRANCH  12  19
ENDBRANCH   7   8
BRANCH   2  24
ATOM     23  C   UNL A   1     -21.375   2.094  25.509  0.00  0.00    +0.174 C 
ATOM     24  O   UNL A   1     -22.680   1.643  25.727  0.00  0.00    -0.349 OA
ENDBRANCH   2  24
BRANCH   6  25
ATOM     25  C   UNL A   1     -25.529  -0.136  29.084  0.00  0.00    +0.096 C 
BRANCH  25  26
ATOM     26  C   UNL A   1     -26.752   0.779  29.209  0.00  0.00    +0.035 C 
ATOM     27  C   UNL A   1     -27.206   3.073  30.680  0.00  0.00    +0.276 C 
ATOM     28  C   UNL A   1     -26.944   1.959  29.860  0.00  0.00    -0.059 C 
ATOM     29  O   UNL A   1     -28.222   3.430  31.331  0.00  0.00    -0.274 OA
ENDBRANCH  25  26
BRANCH  25  30
ATOM     30  C   UNL A   1     -24.855  -1.012  30.143  0.00  0.00    +0.058 C 
BRANCH  30  31
ATOM     31  C   UNL A   1     -24.973  -2.505  29.788  0.00  0.00    -0.019 C 
ATOM     32  C   UNL A   1     -23.906  -3.173  29.146  0.00  0.00    -0.004 C 
ATOM     33  C   UNL A   1     -23.989  -4.549  28.853  0.00  0.00    -0.000 C 
ATOM     34  C   UNL A   1     -25.137  -5.280  29.205  0.00  0.00    -0.000 C 
ATOM     35  C   UNL A   1     -26.232  -4.611  29.784  0.00  0.00    -0.000 C 
ATOM     36  C   UNL A   1     -26.155  -3.232  30.065  0.00  0.00    -0.004 C 
ENDBRANCH  30  31
BRANCH  30  37
ATOM     37  C   UNL A   1     -25.387  -0.679  31.571  0.00  0.00    +0.079 C 
ATOM     38  C   UNL A   1     -25.189   0.773  32.028  0.00  0.00    +0.019 C 
ATOM     39  C   UNL A   1     -25.336   0.684  33.544  0.00  0.00    +0.020 C 
ATOM     40  C   UNL A   1     -24.829  -0.715  33.905  0.00  0.00    +0.089 C 
ATOM     41  N   UNL A   1     -24.758  -1.481  32.646  0.00  0.00    -0.219 NA
ENDBRANCH  30  37
ENDBRANCH  25  30
ENDBRANCH   6  25
TORSDOF 11
