MODEL 1481
MODEL 1
REMARK VINA RESULT:    -8.484      0.000      0.000
REMARK INTER + INTRA:          -8.484
REMARK INTER:                  -8.484
REMARK INTRA:                   0.000
REMARK UNBOUND:                 0.000
REMARK  Name = No_1481-gen_results/8p0m/2024-11-27-11-27-31/
REMARK  0 active torsions:
REMARK  status: ('A' for Active; 'I' for Inactive)
REMARK                            x       y       z     vdW  Elec       q    Type
REMARK                         _______ _______ _______ _____ _____    ______ ____
ROOT
ATOM      1  C   UNL A   1     -22.732  -0.238  29.881  0.00  0.00    -0.024 A 
ATOM      2  C   UNL A   1     -21.878  -0.176  29.267  0.00  0.00    -0.004 A 
ATOM      3  C   UNL A   1     -23.877   0.512  29.450  0.00  0.00    -0.011 A 
ATOM      4  C   UNL A   1     -23.842   1.377  28.433  0.00  0.00    -0.003 A 
ATOM      5  C   UNL A   1     -24.967   2.120  28.055  0.00  0.00    -0.000 C 
ATOM      6  C   UNL A   1     -21.566   0.650  28.127  0.00  0.00    -0.000 A 
ATOM      7  C   UNL A   1     -22.669   1.423  27.715  0.00  0.00    -0.000 A 
ATOM      8  C   UNL A   1     -25.701   2.736  28.662  0.00  0.00    -0.001 C 
ATOM      9  C   UNL A   1     -25.493   2.759  30.147  0.00  0.00    -0.008 C 
ATOM     10  C   UNL A   1     -26.079   1.671  30.785  0.00  0.00    -0.042 C 
ATOM     11  C   UNL A   1     -25.765   0.366  30.463  0.00  0.00    +0.042 C 
ATOM     12  C   UNL A   1     -24.977   0.257  30.186  0.00  0.00    +0.084 C 
ATOM     13  C   UNL A   1     -26.949  -0.563  30.866  0.00  0.00    +0.031 C 
ATOM     14  C   UNL A   1     -27.094  -1.916  30.166  0.00  0.00    -0.033 C 
ATOM     15  C   UNL A   1     -26.046  -2.659  30.124  0.00  0.00    -0.034 C 
ATOM     16  C   UNL A   1     -26.070  -3.891  29.398  0.00  0.00    +0.023 C 
ATOM     17  C   UNL A   1     -24.987  -4.855  29.344  0.00  0.00    +0.004 C 
ATOM     18  N   UNL A   1     -24.394  -1.091  30.458  0.00  0.00    -0.268 NA
ATOM     19  C   UNL A   1     -25.124  -2.096  29.781  0.00  0.00    +0.076 C 
ATOM     20  C   UNL A   1     -23.921  -1.409  31.655  0.00  0.00    +0.077 C 
ATOM     21  C   UNL A   1     -23.866  -2.975  29.246  0.00  0.00    +0.020 C 
ATOM     22  C   UNL A   1     -24.065  -4.203  28.634  0.00  0.00    +0.002 C 
ATOM     23  C   UNL A   1     -22.710  -1.136  30.994  0.00  0.00    +0.043 C 
ATOM     24  C   UNL A   1     -27.491   1.936  30.823  0.00  0.00    +0.026 C 
ENDROOT
TORSDOF 0
ENDMDL
ENDMDL
