MODEL 1483
MODEL 1
REMARK VINA RESULT:    -6.221      0.000      0.000
REMARK INTER + INTRA:          -6.650
REMARK INTER:                  -6.585
REMARK INTRA:                  -0.065
REMARK UNBOUND:                -0.065
REMARK  Name = No_1483-gen_results/8p0m/2024-11-27-11-27-31/
REMARK  1 active torsions:
REMARK  status: ('A' for Active; 'I' for Inactive)
REMARK    1  A    between atoms: C_5  and  C_11
REMARK                            x       y       z     vdW  Elec       q    Type
REMARK                         _______ _______ _______ _____ _____    ______ ____
ROOT
ATOM      1  C   UNL A   1     -30.864  -9.804  29.507  0.00  0.00    +0.099 A 
ATOM      2  C   UNL A   1     -30.120 -10.307  30.317  0.00  0.00    +0.019 A 
ATOM      3  C   UNL A   1     -29.956  -9.878  31.623  0.00  0.00    +0.002 A 
ATOM      4  C   UNL A   1     -29.019 -10.406  32.585  0.00  0.00    +0.005 A 
ATOM      5  C   UNL A   1     -28.174 -11.472  32.191  0.00  0.00    +0.057 A 
ATOM      6  C   UNL A   1     -28.299 -11.917  30.831  0.00  0.00    +0.005 A 
ATOM      7  C   UNL A   1     -29.176 -11.384  29.927  0.00  0.00    +0.003 A 
ATOM      8  N   UNL A   1     -30.888 -10.306  28.173  0.00  0.00    -0.242 NA
ATOM      9  C   UNL A   1     -29.930 -11.186  27.716  0.00  0.00    +0.099 A 
ATOM     10  C   UNL A   1     -29.074 -11.773  28.600  0.00  0.00    +0.021 A 
ENDROOT
BRANCH   5  11
ATOM     11  C   UNL A   1     -27.249 -12.100  33.133  0.00  0.00    +0.284 C 
ATOM     12  N   UNL A   1     -27.426 -12.254  34.349  0.00  0.00    -0.084 NA
ATOM     13  O   UNL A   1     -26.380 -12.960  32.576  0.00  0.00    -0.267 OA
ENDBRANCH   5  11
TORSDOF 1
ENDMDL
ENDMDL
