REMARK  Name = outputs/IAG933/test6/raw/output_1484_IAG933_linker_design_.xyz
REMARK  13 active torsions:
REMARK  status: ('A' for Active; 'I' for Inactive)
REMARK    1  A    between atoms: C_1  and  C_2
REMARK    2  A    between atoms: C_1  and  C_8
REMARK    3  A    between atoms: C_9  and  N_32
REMARK    4  A    between atoms: C_13  and  O_29
REMARK    5  A    between atoms: C_14  and  C_15
REMARK    6  A    between atoms: C_21  and  O_22
REMARK    7  A    between atoms: O_22  and  C_23
REMARK    8  A    between atoms: C_23  and  C_24
REMARK    9  A    between atoms: O_29  and  C_45
REMARK   10  A    between atoms: N_32  and  C_35
REMARK   11  A    between atoms: N_32  and  C_44
REMARK   12  A    between atoms: C_39  and  C_43
REMARK   13  A    between atoms: C_39  and  C_44
REMARK                            x       y       z     vdW  Elec       q    Type
REMARK                         _______ _______ _______ _____ _____    ______ ____
ROOT
ATOM      1  C   UNL A   1     -22.769   2.066  26.063  0.00  0.00    +0.362 C 
ATOM      2  C   UNL A   1     -20.840   1.771  27.338  0.00  0.00    +0.178 C 
ATOM      3  O   UNL A   1     -23.359   2.408  24.945  0.00  0.00    -0.246 OA
ATOM      4  C   UNL A   1     -21.509   1.594  28.541  0.00  0.00    +0.018 C 
ATOM      5  O   UNL A   1     -21.425   2.087  26.190  0.00  0.00    -0.419 OA
ATOM      6  C   UNL A   1     -22.898   1.619  28.476  0.00  0.00    +0.078 C 
ATOM      7  C   UNL A   1     -23.529   1.651  27.224  0.00  0.00    +0.268 C 
ENDROOT
BRANCH   7   8
ATOM      8  O   UNL A   1     -24.830   1.129  27.078  0.00  0.00    -0.465 OA
BRANCH   8   9
ATOM      9  C   UNL A   1     -25.688   1.614  26.461  0.00  0.00    +0.177 C 
ATOM     10  C   UNL A   1     -26.250   2.920  26.395  0.00  0.00    +0.111 C 
ATOM     11  C   UNL A   1     -27.438   3.091  25.645  0.00  0.00    +0.110 C 
ATOM     12  N   UNL A   1     -28.075   2.089  25.003  0.00  0.00    -0.208 NA
ATOM     13  C   UNL A   1     -27.543   0.849  25.079  0.00  0.00    +0.256 C 
ATOM     14  C   UNL A   1     -26.354   0.576  25.777  0.00  0.00    +0.227 C 
ATOM     15  F   UNL A   1     -25.860  -0.681  25.795  0.00  0.00    -0.196 F 
BRANCH  10  16
ATOM     16  C   UNL A   1     -25.642   4.093  27.123  0.00  0.00    +0.269 C 
ATOM     17  N   UNL A   1     -25.614   5.252  26.449  0.00  0.00    -0.200 NA
ATOM     18  C   UNL A   1     -25.026   6.479  26.963  0.00  0.00    +0.139 C 
ATOM     19  O   UNL A   1     -25.143   3.966  28.243  0.00  0.00    -0.268 OA
ENDBRANCH  10  16
BRANCH  13  20
ATOM     20  O   UNL A   1     -28.193  -0.208  24.477  0.00  0.00    -0.456 OA
BRANCH  20  21
ATOM     21  C   UNL A   1     -29.460   0.005  23.866  0.00  0.00    +0.243 C 
BRANCH  21  22
ATOM     22  C   UNL A   1     -30.065  -1.377  23.573  0.00  0.00    +0.229 C 
ATOM     23  O   UNL A   1     -30.729  -1.878  24.721  0.00  0.00    -0.216 OA
ENDBRANCH  21  22
ENDBRANCH  20  21
ENDBRANCH  13  20
ENDBRANCH   8   9
ENDBRANCH   7   8
BRANCH   6  24
ATOM     24  C   UNL A   1     -23.540   1.583  29.852  0.00  0.00    +0.026 C 
BRANCH  24  25
ATOM     25  C   UNL A   1     -24.268   2.602  30.590  0.00  0.00    +0.072 C 
BRANCH  25  26
ATOM     26  N   UNL A   1     -25.442   2.049  31.353  0.00  0.00    -0.274 NA
BRANCH  26  31
ATOM     27  C   UNL A   1     -27.102   5.100  29.916  0.00  0.00    +0.034 C 
ATOM     28  C   UNL A   1     -27.444   3.575  30.196  0.00  0.00    +0.019 C 
ATOM     29  C   UNL A   1     -27.046   3.571  32.898  0.00  0.00    +0.048 C 
ATOM     30  C   UNL A   1     -26.930   5.145  32.986  0.00  0.00    +0.143 C 
ATOM     31  C   UNL A   1     -26.784   2.878  31.471  0.00  0.00    +0.060 C 
ATOM     32  C   UNL A   1     -27.662   6.209  30.868  0.00  0.00    +0.142 C 
ATOM     33  O   UNL A   1     -27.943   5.839  32.229  0.00  0.00    -0.354 OA
ENDBRANCH  26  31
BRANCH  26  35
ATOM     34  C   UNL A   1     -25.387  -0.679  31.571  0.00  0.00    +0.092 C 
ATOM     35  C   UNL A   1     -25.189   0.773  32.028  0.00  0.00    +0.075 C 
ATOM     36  C   UNL A   1     -25.336   0.684  33.544  0.00  0.00    +0.036 C 
ATOM     37  C   UNL A   1     -24.829  -0.715  33.905  0.00  0.00    +0.090 C 
ATOM     38  N   UNL A   1     -24.758  -1.481  32.646  0.00  0.00    -0.218 NA
BRANCH  34  39
ATOM     39  C   UNL A   1     -24.855  -1.012  30.143  0.00  0.00    +0.045 C 
BRANCH  39  40
ATOM     40  C   UNL A   1     -24.973  -2.505  29.788  0.00  0.00    -0.021 C 
ATOM     41  C   UNL A   1     -23.906  -3.173  29.146  0.00  0.00    -0.004 C 
ATOM     42  C   UNL A   1     -23.989  -4.549  28.853  0.00  0.00    -0.000 C 
ATOM     43  C   UNL A   1     -25.137  -5.280  29.205  0.00  0.00    -0.000 C 
ATOM     44  C   UNL A   1     -26.232  -4.611  29.784  0.00  0.00    -0.000 C 
ATOM     45  C   UNL A   1     -26.155  -3.232  30.065  0.00  0.00    -0.004 C 
ENDBRANCH  39  40
ENDBRANCH  34  39
ENDBRANCH  26  35
ENDBRANCH  25  26
ENDBRANCH  24  25
ENDBRANCH   6  24
TORSDOF 13
