MODEL 1485
MODEL 1
REMARK VINA RESULT:    -8.642      0.000      0.000
REMARK INTER + INTRA:         -11.810
REMARK INTER:                 -10.663
REMARK INTRA:                  -1.147
REMARK UNBOUND:                -1.147
REMARK  Name = No_1485-gen_results/8p0m/2024-11-27-11-27-31/
REMARK  4 active torsions:
REMARK  status: ('A' for Active; 'I' for Inactive)
REMARK    1  A    between atoms: C_1  and  C_2
REMARK    2  A    between atoms: C_1  and  C_8
REMARK    3  A    between atoms: C_8  and  C_9
REMARK    4  A    between atoms: C_11  and  C_12
REMARK                            x       y       z     vdW  Elec       q    Type
REMARK                         _______ _______ _______ _____ _____    ______ ____
ROOT
ATOM      1  C   UNL A   1     -26.646   0.551  24.155  0.00  0.00    +0.031 C 
ENDROOT
BRANCH   1   2
ATOM      2  C   UNL A   1     -27.831   0.398  23.971  0.00  0.00    -0.022 A 
ATOM      3  C   UNL A   1     -28.457  -0.833  24.001  0.00  0.00    -0.003 A 
ATOM      4  C   UNL A   1     -29.857  -1.078  23.711  0.00  0.00    +0.016 A 
ATOM      5  C   UNL A   1     -30.683   0.017  23.375  0.00  0.00    +0.068 A 
ATOM      6  C   UNL A   1     -30.039   1.305  23.326  0.00  0.00    -0.003 A 
ATOM      7  C   UNL A   1     -28.701   1.508  23.569  0.00  0.00    -0.007 A 
ATOM      8  C   UNL A   1     -30.912   2.464  22.858  0.00  0.00    +0.058 C 
ATOM      9  C   UNL A   1     -31.744   2.226  21.756  0.00  0.00    +0.035 A 
ATOM     10  C   UNL A   1     -31.828   3.177  20.723  0.00  0.00    +0.100 A 
ATOM     11  C   UNL A   1     -32.568   1.074  21.713  0.00  0.00    +0.151 A 
ATOM     12  N   UNL A   1     -33.642   1.127  20.862  0.00  0.00    -0.207 NA
ATOM     13  N   UNL A   1     -32.763   2.922  19.727  0.00  0.00    -0.223 NA
ATOM     14  C   UNL A   1     -33.657   1.951  19.879  0.00  0.00    +0.200 A 
ATOM     15  N   UNL A   1     -32.268   0.139  22.706  0.00  0.00    -0.195 NA
ENDBRANCH   1   2
BRANCH   1  16
ATOM     16  C   UNL A   1     -26.056  -0.312  25.243  0.00  0.00    +0.031 C 
BRANCH  16  17
ATOM     17  C   UNL A   1     -25.337   0.112  26.006  0.00  0.00    -0.022 A 
ATOM     18  C   UNL A   1     -25.082  -0.349  27.311  0.00  0.00    -0.004 A 
ATOM     19  C   UNL A   1     -24.342  -0.002  27.984  0.00  0.00    -0.000 A 
ATOM     20  C   UNL A   1     -23.298   1.058  27.658  0.00  0.00    -0.000 A 
ATOM     21  C   UNL A   1     -23.455   1.595  26.320  0.00  0.00    -0.000 A 
ATOM     22  C   UNL A   1     -24.364   1.131  25.545  0.00  0.00    -0.004 A 
BRANCH  19  23
ATOM     23  C   UNL A   1     -24.103  -0.470  29.423  0.00  0.00    -0.000 A 
ATOM     24  C   UNL A   1     -25.262  -0.821  30.116  0.00  0.00    -0.000 A 
ATOM     25  C   UNL A   1     -25.033  -1.163  31.468  0.00  0.00    -0.000 A 
ATOM     26  C   UNL A   1     -23.813  -1.123  32.089  0.00  0.00    +0.000 A 
ATOM     27  C   UNL A   1     -22.712  -0.761  31.362  0.00  0.00    -0.000 A 
ATOM     28  C   UNL A   1     -22.849  -0.355  30.030  0.00  0.00    -0.000 A 
ENDBRANCH  19  23
ENDBRANCH  16  17
ENDBRANCH   1  16
TORSDOF 4
ENDMDL
ENDMDL
