REMARK  Name = No_1485-gen_results/8p0m/2024-11-27-11-27-31/
REMARK  4 active torsions:
REMARK  status: ('A' for Active; 'I' for Inactive)
REMARK    1  A    between atoms: C_1  and  C_2
REMARK    2  A    between atoms: C_1  and  C_8
REMARK    3  A    between atoms: C_8  and  C_9
REMARK    4  A    between atoms: C_11  and  C_12
REMARK                            x       y       z     vdW  Elec       q    Type
REMARK                         _______ _______ _______ _____ _____    ______ ____
ROOT
ATOM      1  C   UNL A   1     -28.016  -0.814  28.878  0.00  0.00    +0.031 C 
ENDROOT
BRANCH   1   2
ATOM      2  C   UNL A   1     -27.064  -0.119  28.608  0.00  0.00    -0.022 A 
ATOM      3  C   UNL A   1     -27.001   0.691  27.491  0.00  0.00    -0.003 A 
ATOM      4  C   UNL A   1     -25.855   1.482  27.083  0.00  0.00    +0.016 A 
ATOM      5  C   UNL A   1     -24.690   1.453  27.881  0.00  0.00    +0.068 A 
ATOM      6  C   UNL A   1     -24.738   0.601  29.042  0.00  0.00    -0.003 A 
ATOM      7  C   UNL A   1     -25.823  -0.169  29.389  0.00  0.00    -0.007 A 
ATOM      8  C   UNL A   1     -23.442   0.491  29.837  0.00  0.00    +0.058 C 
ATOM      9  C   UNL A   1     -22.258   0.348  29.102  0.00  0.00    +0.035 A 
ATOM     10  C   UNL A   1     -21.300  -0.603  29.495  0.00  0.00    +0.100 A 
ATOM     11  C   UNL A   1     -21.978   1.213  28.014  0.00  0.00    +0.151 A 
ATOM     12  N   UNL A   1     -20.662   1.311  27.640  0.00  0.00    -0.207 NA
ATOM     13  N   UNL A   1     -20.104  -0.601  28.787  0.00  0.00    -0.223 NA
ATOM     14  C   UNL A   1     -19.825   0.388  27.945  0.00  0.00    +0.200 A 
ATOM     15  N   UNL A   1     -23.071   1.990  27.627  0.00  0.00    -0.195 NA
ENDBRANCH   1   2
BRANCH   1  16
ATOM     16  C   UNL A   1     -28.712  -0.463  30.169  0.00  0.00    +0.031 C 
BRANCH  16  17
ATOM     17  C   UNL A   1     -28.779   0.607  30.530  0.00  0.00    -0.022 A 
ATOM     18  C   UNL A   1     -28.459   1.784  29.828  0.00  0.00    -0.004 A 
ATOM     19  C   UNL A   1     -28.612   2.783  30.141  0.00  0.00    -0.000 A 
ATOM     20  C   UNL A   1     -29.307   3.193  31.433  0.00  0.00    -0.000 A 
ATOM     21  C   UNL A   1     -29.701   2.050  32.235  0.00  0.00    -0.000 A 
ATOM     22  C   UNL A   1     -29.498   0.861  31.801  0.00  0.00    -0.004 A 
BRANCH  19  23
ATOM     23  C   UNL A   1     -28.213   4.061  29.397  0.00  0.00    -0.000 A 
ATOM     24  C   UNL A   1     -27.640   3.844  28.143  0.00  0.00    -0.000 A 
ATOM     25  C   UNL A   1     -27.195   5.026  27.510  0.00  0.00    -0.000 A 
ATOM     26  C   UNL A   1     -27.260   6.279  28.059  0.00  0.00    +0.000 A 
ATOM     27  C   UNL A   1     -27.822   6.431  29.297  0.00  0.00    -0.000 A 
ATOM     28  C   UNL A   1     -28.243   5.311  30.022  0.00  0.00    -0.000 A 
ENDBRANCH  19  23
ENDBRANCH  16  17
ENDBRANCH   1  16
TORSDOF 4
