MODEL 1486
MODEL 1
REMARK VINA RESULT:    -7.586      0.000      0.000
REMARK INTER + INTRA:         -10.592
REMARK INTER:                  -9.359
REMARK INTRA:                  -1.233
REMARK UNBOUND:                -1.233
REMARK  Name = No_1486-gen_results/8p0m/2024-11-27-11-27-31/
REMARK  4 active torsions:
REMARK  status: ('A' for Active; 'I' for Inactive)
REMARK    1  A    between atoms: C_3  and  C_8
REMARK    2  A    between atoms: C_5  and  C_24
REMARK    3  A    between atoms: C_9  and  C_16
REMARK    4  A    between atoms: C_25  and  C_26
REMARK                            x       y       z     vdW  Elec       q    Type
REMARK                         _______ _______ _______ _____ _____    ______ ____
ROOT
ATOM      1  N   UNL A   1     -23.487  -3.001  28.547  0.00  0.00    -0.150 NA
ATOM      2  C   UNL A   1     -24.072  -2.293  29.083  0.00  0.00    +0.103 A 
ATOM      3  C   UNL A   1     -24.154  -1.369  29.473  0.00  0.00    +0.019 A 
ATOM      4  C   UNL A   1     -25.230  -0.648  30.267  0.00  0.00    +0.002 A 
ATOM      5  C   UNL A   1     -26.224  -1.492  30.676  0.00  0.00    -0.000 A 
ATOM      6  C   UNL A   1     -26.151  -2.818  30.325  0.00  0.00    +0.002 A 
ATOM      7  C   UNL A   1     -25.107  -3.239  29.603  0.00  0.00    +0.054 A 
ATOM      8  C   UNL A   1     -24.862  -4.639  29.123  0.00  0.00    +0.307 C 
ATOM      9  N   UNL A   1     -23.706  -4.369  28.471  0.00  0.00    -0.135 NA
ATOM     10  F   UNL A   1     -25.475  -5.652  29.201  0.00  0.00    -0.203 F 
ENDROOT
BRANCH   3  11
ATOM     11  C   UNL A   1     -23.121  -0.213  29.104  0.00  0.00    +0.002 A 
ATOM     12  C   UNL A   1     -23.571   0.547  28.048  0.00  0.00    -0.000 A 
ATOM     13  C   UNL A   1     -22.593   1.075  27.183  0.00  0.00    -0.000 A 
ATOM     14  C   UNL A   1     -21.241   1.228  27.633  0.00  0.00    -0.000 A 
ATOM     15  C   UNL A   1     -21.762  -0.530  29.140  0.00  0.00    +0.000 A 
ATOM     16  C   UNL A   1     -20.813   0.373  28.524  0.00  0.00    +0.000 A 
BRANCH  12  17
ATOM     17  C   UNL A   1     -24.950   0.819  27.661  0.00  0.00    -0.004 A 
ATOM     18  C   UNL A   1     -25.805   1.697  27.959  0.00  0.00    -0.022 A 
ATOM     19  C   UNL A   1     -25.492   2.535  29.141  0.00  0.00    +0.031 C 
ATOM     20  C   UNL A   1     -25.344  -0.065  26.635  0.00  0.00    -0.000 A 
ATOM     21  C   UNL A   1     -26.603   0.163  26.002  0.00  0.00    -0.000 A 
ATOM     22  C   UNL A   1     -27.469   1.175  26.370  0.00  0.00    -0.000 A 
ATOM     23  C   UNL A   1     -27.074   1.970  27.413  0.00  0.00    -0.004 A 
ENDBRANCH  12  17
ENDBRANCH   3  11
BRANCH   5  24
ATOM     24  C   UNL A   1     -27.356  -0.982  31.530  0.00  0.00    -0.002 C 
ATOM     25  C   UNL A   1     -28.339  -0.620  30.978  0.00  0.00    +0.009 C 
BRANCH  25  26
ATOM     26  C   UNL A   1     -28.687  -0.395  29.769  0.00  0.00    +0.208 C 
ATOM     27  O   UNL A   1     -29.706  -1.070  29.169  0.00  0.00    -0.215 OA
ENDBRANCH  25  26
ENDBRANCH   5  24
TORSDOF 4
ENDMDL
ENDMDL
