REMARK  Name = outputs/IAG933/test6/raw/output_1486_IAG933_linker_design_.xyz
REMARK  12 active torsions:
REMARK  status: ('A' for Active; 'I' for Inactive)
REMARK    1  A    between atoms: C_1  and  C_2
REMARK    2  A    between atoms: C_1  and  C_8
REMARK    3  A    between atoms: C_1  and  N_45
REMARK    4  A    between atoms: C_13  and  C_28
REMARK    5  A    between atoms: C_14  and  C_15
REMARK    6  A    between atoms: C_21  and  O_22
REMARK    7  A    between atoms: O_22  and  C_23
REMARK    8  A    between atoms: C_23  and  C_24
REMARK    9  A    between atoms: N_29  and  C_37
REMARK   10  A    between atoms: C_33  and  C_37
REMARK   11  A    between atoms: C_33  and  N_45
REMARK   12  A    between atoms: C_34  and  C_42
REMARK                            x       y       z     vdW  Elec       q    Type
REMARK                         _______ _______ _______ _____ _____    ______ ____
ROOT
ATOM      1  O   UNL A   1     -22.833   0.273  29.798  0.00  0.00    -0.270 OA
ATOM      2  C   UNL A   1     -23.820   0.542  28.970  0.00  0.00    +0.251 C 
ATOM      3  N   UNL A   1     -25.166   0.146  29.284  0.00  0.00    -0.271 N 
ENDROOT
BRANCH   2   6
ATOM      4  C   UNL A   1     -24.228   1.447  26.564  0.00  0.00    -0.005 C 
ATOM      5  C   UNL A   1     -23.657   1.831  25.358  0.00  0.00    +0.036 C 
ATOM      6  C   UNL A   1     -23.396   1.170  27.701  0.00  0.00    +0.102 C 
ATOM      7  O   UNL A   1     -21.592   2.154  26.385  0.00  0.00    -0.443 OA
ATOM      8  C   UNL A   1     -22.020   1.525  27.533  0.00  0.00    +0.355 C 
ATOM      9  C   UNL A   1     -22.401   2.276  25.358  0.00  0.00    +0.175 C 
ATOM     10  F   UNL A   1     -21.043   1.261  28.457  0.00  0.00    -0.183 F 
BRANCH   4  11
ATOM     11  C   UNL A   1     -25.688   1.614  26.461  0.00  0.00    +0.092 C 
ATOM     12  C   UNL A   1     -26.250   2.920  26.395  0.00  0.00    +0.059 C 
ATOM     13  C   UNL A   1     -27.438   3.091  25.645  0.00  0.00    +0.102 C 
ATOM     14  N   UNL A   1     -28.075   2.089  25.003  0.00  0.00    -0.212 NA
ATOM     15  C   UNL A   1     -27.543   0.849  25.079  0.00  0.00    +0.234 C 
ATOM     16  C   UNL A   1     -26.354   0.576  25.777  0.00  0.00    +0.244 C 
ATOM     17  F   UNL A   1     -25.860  -0.681  25.795  0.00  0.00    -0.227 F 
BRANCH  12  18
ATOM     18  C   UNL A   1     -25.642   4.093  27.123  0.00  0.00    +0.263 C 
ATOM     19  N   UNL A   1     -25.614   5.252  26.449  0.00  0.00    -0.200 NA
ATOM     20  C   UNL A   1     -25.026   6.479  26.963  0.00  0.00    +0.139 C 
ATOM     21  O   UNL A   1     -25.143   3.966  28.243  0.00  0.00    -0.269 OA
ENDBRANCH  12  18
BRANCH  15  22
ATOM     22  O   UNL A   1     -28.193  -0.208  24.477  0.00  0.00    -0.459 OA
BRANCH  22  23
ATOM     23  C   UNL A   1     -29.460   0.005  23.866  0.00  0.00    +0.242 C 
BRANCH  23  24
ATOM     24  C   UNL A   1     -30.065  -1.377  23.573  0.00  0.00    +0.229 C 
ATOM     25  O   UNL A   1     -30.729  -1.878  24.721  0.00  0.00    -0.216 OA
ENDBRANCH  23  24
ENDBRANCH  22  23
ENDBRANCH  15  22
ENDBRANCH   4  11
ENDBRANCH   2   6
BRANCH   3  26
ATOM     26  C   UNL A   1     -24.855  -1.012  30.143  0.00  0.00    +0.114 C 
BRANCH  26  27
ATOM     27  C   UNL A   1     -24.973  -2.505  29.788  0.00  0.00    -0.003 C 
ATOM     28  C   UNL A   1     -23.906  -3.173  29.146  0.00  0.00    -0.003 C 
ATOM     29  C   UNL A   1     -23.989  -4.549  28.853  0.00  0.00    -0.000 C 
ATOM     30  C   UNL A   1     -25.137  -5.280  29.205  0.00  0.00    -0.000 C 
ATOM     31  C   UNL A   1     -26.232  -4.611  29.784  0.00  0.00    -0.000 C 
ATOM     32  C   UNL A   1     -26.155  -3.232  30.065  0.00  0.00    -0.003 C 
ENDBRANCH  26  27
BRANCH  26  33
ATOM     33  C   UNL A   1     -25.387  -0.679  31.571  0.00  0.00    +0.095 C 
ATOM     34  C   UNL A   1     -25.189   0.773  32.028  0.00  0.00    +0.021 C 
ATOM     35  C   UNL A   1     -25.336   0.684  33.544  0.00  0.00    +0.020 C 
ATOM     36  C   UNL A   1     -24.829  -0.715  33.905  0.00  0.00    +0.089 C 
ATOM     37  N   UNL A   1     -24.758  -1.481  32.646  0.00  0.00    -0.217 NA
ENDBRANCH  26  33
ENDBRANCH   3  26
BRANCH   3  38
ATOM     38  C   UNL A   1     -26.283   1.338  29.319  0.00  0.00    +0.114 C 
BRANCH  38  39
ATOM     39  C   UNL A   1     -26.760   2.815  30.085  0.00  0.00    +0.123 C 
BRANCH  39  40
ATOM     40  N   UNL A   1     -25.916   3.918  30.807  0.00  0.00    -0.159 NA
ATOM     41  O   UNL A   1     -26.340   5.174  30.912  0.00  0.00    -0.249 OA
ATOM     42  C   UNL A   1     -24.584   4.554  32.787  0.00  0.00    +0.165 C 
ATOM     43  O   UNL A   1     -24.712   5.984  32.532  0.00  0.00    -0.324 OA
ATOM     44  C   UNL A   1     -24.779   3.442  31.618  0.00  0.00    +0.133 C 
ATOM     45  C   UNL A   1     -25.555   6.305  31.440  0.00  0.00    +0.313 C 
ENDBRANCH  39  40
ENDBRANCH  38  39
ENDBRANCH   3  38
TORSDOF 12
