REMARK  Name = outputs/IAG933/test6/raw/output_1487_IAG933_linker_design_.xyz
REMARK  11 active torsions:
REMARK  status: ('A' for Active; 'I' for Inactive)
REMARK    1  A    between atoms: C_1  and  C_2
REMARK    2  A    between atoms: C_1  and  C_8
REMARK    3  A    between atoms: C_1  and  N_43
REMARK    4  A    between atoms: C_13  and  C_38
REMARK    5  A    between atoms: C_14  and  C_15
REMARK    6  A    between atoms: C_21  and  O_22
REMARK    7  A    between atoms: O_22  and  C_23
REMARK    8  A    between atoms: C_23  and  C_24
REMARK    9  A    between atoms: N_30  and  C_44
REMARK   10  A    between atoms: N_43  and  C_44
REMARK   11  A    between atoms: N_43  and  C_45
REMARK                            x       y       z     vdW  Elec       q    Type
REMARK                         _______ _______ _______ _____ _____    ______ ____
ROOT
ATOM      1  C   UNL A   1     -22.088   1.591  27.398  0.00  0.00    +0.173 C 
ATOM      2  F   UNL A   1     -19.895   1.935  28.192  0.00  0.00    -0.201 F 
ATOM      3  C   UNL A   1     -23.402   1.113  27.723  0.00  0.00    +0.039 C 
ATOM      4  O   UNL A   1     -23.530   2.307  24.531  0.00  0.00    -0.249 OA
ATOM      5  C   UNL A   1     -21.043   1.314  28.242  0.00  0.00    +0.174 C 
ATOM      6  C   UNL A   1     -22.521  -0.118  29.531  0.00  0.00    +0.017 C 
ATOM      7  C   UNL A   1     -24.230   1.629  26.694  0.00  0.00    +0.133 C 
ATOM      8  C   UNL A   1     -21.262   0.320  29.221  0.00  0.00    +0.034 C 
ATOM      9  O   UNL A   1     -22.029   2.276  26.265  0.00  0.00    -0.422 OA
ATOM     10  C   UNL A   1     -23.620   0.380  28.806  0.00  0.00    +0.049 C 
ATOM     11  C   UNL A   1     -23.321   2.161  25.836  0.00  0.00    +0.326 C 
ENDROOT
BRANCH   7  12
ATOM     12  C   UNL A   1     -25.688   1.614  26.461  0.00  0.00    +0.085 C 
ATOM     13  C   UNL A   1     -26.250   2.920  26.395  0.00  0.00    +0.056 C 
ATOM     14  C   UNL A   1     -27.438   3.091  25.645  0.00  0.00    +0.102 C 
ATOM     15  N   UNL A   1     -28.075   2.089  25.003  0.00  0.00    -0.212 NA
ATOM     16  C   UNL A   1     -27.543   0.849  25.079  0.00  0.00    +0.234 C 
ATOM     17  C   UNL A   1     -26.354   0.576  25.777  0.00  0.00    +0.241 C 
ATOM     18  F   UNL A   1     -25.860  -0.681  25.795  0.00  0.00    -0.227 F 
BRANCH  13  19
ATOM     19  C   UNL A   1     -25.642   4.093  27.123  0.00  0.00    +0.263 C 
ATOM     20  N   UNL A   1     -25.614   5.252  26.449  0.00  0.00    -0.200 NA
ATOM     21  C   UNL A   1     -25.026   6.479  26.963  0.00  0.00    +0.139 C 
ATOM     22  O   UNL A   1     -25.143   3.966  28.243  0.00  0.00    -0.269 OA
ENDBRANCH  13  19
BRANCH  16  23
ATOM     23  O   UNL A   1     -28.193  -0.208  24.477  0.00  0.00    -0.459 OA
BRANCH  23  24
ATOM     24  C   UNL A   1     -29.460   0.005  23.866  0.00  0.00    +0.242 C 
BRANCH  24  25
ATOM     25  C   UNL A   1     -30.065  -1.377  23.573  0.00  0.00    +0.229 C 
ATOM     26  O   UNL A   1     -30.729  -1.878  24.721  0.00  0.00    -0.216 OA
ENDBRANCH  24  25
ENDBRANCH  23  24
ENDBRANCH  16  23
ENDBRANCH   7  12
BRANCH  10  27
ATOM     27  N   UNL A   1     -24.923   0.076  29.219  0.00  0.00    -0.290 N 
BRANCH  27  28
ATOM     28  C   UNL A   1     -24.855  -1.012  30.143  0.00  0.00    +0.112 C 
BRANCH  28  29
ATOM     29  C   UNL A   1     -24.973  -2.505  29.788  0.00  0.00    -0.003 C 
ATOM     30  C   UNL A   1     -23.906  -3.173  29.146  0.00  0.00    -0.003 C 
ATOM     31  C   UNL A   1     -23.989  -4.549  28.853  0.00  0.00    -0.000 C 
ATOM     32  C   UNL A   1     -25.137  -5.280  29.205  0.00  0.00    -0.000 C 
ATOM     33  C   UNL A   1     -26.232  -4.611  29.784  0.00  0.00    -0.000 C 
ATOM     34  C   UNL A   1     -26.155  -3.232  30.065  0.00  0.00    -0.003 C 
ENDBRANCH  28  29
BRANCH  28  35
ATOM     35  C   UNL A   1     -25.387  -0.679  31.571  0.00  0.00    +0.095 C 
ATOM     36  C   UNL A   1     -25.189   0.773  32.028  0.00  0.00    +0.021 C 
ATOM     37  C   UNL A   1     -25.336   0.684  33.544  0.00  0.00    +0.020 C 
ATOM     38  C   UNL A   1     -24.829  -0.715  33.905  0.00  0.00    +0.089 C 
ATOM     39  N   UNL A   1     -24.758  -1.481  32.646  0.00  0.00    -0.217 NA
ENDBRANCH  28  35
ENDBRANCH  27  28
BRANCH  27  40
ATOM     40  C   UNL A   1     -25.820   1.142  29.341  0.00  0.00    +0.169 C 
BRANCH  40  41
ATOM     41  N   UNL A   1     -27.170   1.059  29.167  0.00  0.00    -0.252 NA
ATOM     42  C   UNL A   1     -29.665   1.255  28.149  0.00  0.00    -0.028 C 
ATOM     43  C   UNL A   1     -28.841   0.019  27.772  0.00  0.00    -0.013 C 
ATOM     44  C   UNL A   1     -27.963   2.242  29.780  0.00  0.00    +0.079 C 
ATOM     45  C   UNL A   1     -29.398   2.117  29.362  0.00  0.00    +0.043 C 
ATOM     46  C   UNL A   1     -27.595  -0.262  28.624  0.00  0.00    +0.100 C 
ENDBRANCH  40  41
ENDBRANCH  27  40
ENDBRANCH  10  27
TORSDOF 11
