MODEL 1487
MODEL 1
REMARK VINA RESULT:    -6.561      0.000      0.000
REMARK INTER + INTRA:          -7.849
REMARK INTER:                  -7.329
REMARK INTRA:                  -0.520
REMARK UNBOUND:                -0.520
REMARK  Name = No_1487-gen_results/8p0m/2024-11-27-11-27-31/
REMARK  2 active torsions:
REMARK  status: ('A' for Active; 'I' for Inactive)
REMARK    1  A    between atoms: C_7  and  C_8
REMARK    2  A    between atoms: C_13  and  N_14
REMARK                            x       y       z     vdW  Elec       q    Type
REMARK                         _______ _______ _______ _____ _____    ______ ____
ROOT
ATOM      1  C   UNL A   1     -24.469  -1.403  28.753  0.00  0.00    +0.014 A 
ATOM      2  C   UNL A   1     -24.380  -2.660  28.439  0.00  0.00    +0.001 A 
ATOM      3  C   UNL A   1     -25.161  -3.661  29.007  0.00  0.00    +0.000 A 
ATOM      4  C   UNL A   1     -26.095  -3.313  30.035  0.00  0.00    +0.001 A 
ATOM      5  C   UNL A   1     -26.159  -1.991  30.450  0.00  0.00    +0.015 A 
ATOM      6  C   UNL A   1     -25.427  -0.996  29.813  0.00  0.00    +0.049 A 
ENDROOT
BRANCH   1  13
ATOM      7 CL   UNL A   1     -21.910  -0.378  29.705  0.00  0.00    -0.082 Cl
ATOM      8  C   UNL A   1     -22.572   0.238  28.687  0.00  0.00    +0.057 A 
ATOM      9  C   UNL A   1     -21.974   1.230  27.973  0.00  0.00    +0.011 A 
ATOM     10  C   UNL A   1     -22.588   1.877  26.807  0.00  0.00    +0.001 A 
ATOM     11  C   UNL A   1     -23.848   1.349  26.385  0.00  0.00    -0.004 A 
ATOM     12  C   UNL A   1     -24.386   0.293  27.049  0.00  0.00    -0.021 A 
ATOM     13  C   UNL A   1     -23.782  -0.273  28.129  0.00  0.00    +0.008 A 
ATOM     14  C   UNL A   1     -25.684  -0.168  26.452  0.00  0.00    +0.031 C 
ENDBRANCH   1  13
BRANCH   6  15
ATOM     15  N   UNL A   1     -25.594   0.311  30.209  0.00  0.00    -0.293 N 
ATOM     16  C   UNL A   1     -26.174   1.301  29.776  0.00  0.00    +0.094 C 
ATOM     17  C   UNL A   1     -26.172   2.593  30.287  0.00  0.00    +0.040 C 
ATOM     18  C   UNL A   1     -24.842   0.735  31.430  0.00  0.00    +0.183 C 
ATOM     19  N   UNL A   1     -24.732   1.900  31.900  0.00  0.00    -0.197 NA
ATOM     20  C   UNL A   1     -25.361   2.894  31.347  0.00  0.00    +0.092 C 
ENDBRANCH   6  15
TORSDOF 2
ENDMDL
ENDMDL
