MODEL 1488
MODEL 1
REMARK VINA RESULT:    -5.572      0.000      0.000
REMARK INTER + INTRA:          -6.858
REMARK INTER:                  -6.549
REMARK INTRA:                  -0.309
REMARK UNBOUND:                -0.309
REMARK  Name = No_1488-gen_results/8p0m/2024-11-27-11-27-31/
REMARK  3 active torsions:
REMARK  status: ('A' for Active; 'I' for Inactive)
REMARK    1  A    between atoms: C_4  and  C_7
REMARK    2  A    between atoms: C_8  and  C_9
REMARK    3  A    between atoms: C_9  and  C_10
REMARK                            x       y       z     vdW  Elec       q    Type
REMARK                         _______ _______ _______ _____ _____    ______ ____
ROOT
ATOM      1  C   UNL A   1     -24.304  -5.074  28.699  0.00  0.00    -0.000 A 
ATOM      2  C   UNL A   1     -25.258  -5.219  29.122  0.00  0.00    -0.000 A 
ATOM      3  C   UNL A   1     -23.924  -3.666  28.579  0.00  0.00    -0.000 A 
ATOM      4  C   UNL A   1     -24.548  -2.812  29.049  0.00  0.00    -0.000 A 
ATOM      5  C   UNL A   1     -26.231  -4.342  29.745  0.00  0.00    -0.000 A 
ATOM      6  C   UNL A   1     -25.798  -2.991  29.651  0.00  0.00    -0.000 A 
ENDROOT
BRANCH   4   7
ATOM      7  C   UNL A   1     -24.140  -1.320  28.972  0.00  0.00    -0.004 C 
ATOM      8  C   UNL A   1     -24.691  -0.459  28.202  0.00  0.00    -0.021 C 
BRANCH   8   9
ATOM      9  C   UNL A   1     -25.369  -0.576  27.261  0.00  0.00    +0.052 C 
BRANCH   9  10
ATOM     10  C   UNL A   1     -25.158   0.054  26.017  0.00  0.00    -0.021 C 
ATOM     11  C   UNL A   1     -25.605  -0.350  24.799  0.00  0.00    -0.005 C 
ENDBRANCH   9  10
ENDBRANCH   8   9
ENDBRANCH   4   7
TORSDOF 3
ENDMDL
ENDMDL
