MODEL 1489
MODEL 1
REMARK VINA RESULT:    -7.521      0.000      0.000
REMARK INTER + INTRA:         -12.002
REMARK INTER:                 -10.598
REMARK INTRA:                  -1.404
REMARK UNBOUND:                -1.404
REMARK  Name = No_1489-gen_results/8p0m/2024-11-27-11-27-31/
REMARK  7 active torsions:
REMARK  status: ('A' for Active; 'I' for Inactive)
REMARK    1  A    between atoms: C_1  and  C_2
REMARK    2  A    between atoms: C_1  and  N_8
REMARK    3  A    between atoms: C_6  and  C_21
REMARK    4  A    between atoms: N_8  and  C_9
REMARK    5  A    between atoms: N_8  and  C_15
REMARK    6  A    between atoms: C_11  and  C_24
REMARK    7  A    between atoms: C_15  and  C_16
REMARK                            x       y       z     vdW  Elec       q    Type
REMARK                         _______ _______ _______ _____ _____    ______ ____
ROOT
ATOM      1  C   UNL A   1     -24.435   2.270  27.097  0.00  0.00    +0.048 A 
ATOM      2  C   UNL A   1     -24.308   1.391  28.023  0.00  0.00    +0.011 A 
ATOM      3  C   UNL A   1     -23.034   0.736  28.372  0.00  0.00    -0.008 A 
ATOM      4  C   UNL A   1     -21.945   1.104  27.588  0.00  0.00    -0.003 A 
ATOM      5  C   UNL A   1     -23.145   2.637  26.300  0.00  0.00    +0.015 A 
ATOM      6  C   UNL A   1     -21.955   2.015  26.620  0.00  0.00    +0.001 A 
ENDROOT
BRANCH   3   7
ATOM      7  C   UNL A   1     -22.991  -0.260  29.456  0.00  0.00    +0.066 C 
ATOM      8  N   UNL A   1     -23.633  -0.032  30.461  0.00  0.00    -0.259 NA
ATOM      9  C   UNL A   1     -24.097   1.019  30.836  0.00  0.00    +0.075 C 
ATOM     10  C   UNL A   1     -24.953   1.130  32.120  0.00  0.00    +0.036 C 
ATOM     11  C   UNL A   1     -24.685   0.163  32.978  0.00  0.00    +0.092 C 
ATOM     12  C   UNL A   1     -23.778  -1.114  31.496  0.00  0.00    +0.132 C 
ATOM     13  N   UNL A   1     -24.401  -1.063  32.622  0.00  0.00    -0.203 NA
ATOM     14  C   UNL A   1     -21.538  -0.532  29.601  0.00  0.00    +0.021 C 
ATOM     15  C   UNL A   1     -23.652  -1.579  28.758  0.00  0.00    +0.019 C 
ATOM     16  C   UNL A   1     -24.257  -2.313  29.359  0.00  0.00    +0.004 C 
ATOM     17  C   UNL A   1     -24.827  -3.564  28.843  0.00  0.00    +0.000 C 
ATOM     18  C   UNL A   1     -24.507  -2.132  30.830  0.00  0.00    +0.034 C 
ENDBRANCH   3   7
BRANCH   1  19
ATOM     19  N   UNL A   1     -25.340   2.742  26.777  0.00  0.00    -0.294 N 
BRANCH  19  20
ATOM     20  C   UNL A   1     -25.937   2.720  25.526  0.00  0.00    +0.119 C 
BRANCH  20  21
ATOM     21  C   UNL A   1     -26.772   1.881  25.277  0.00  0.00    +0.008 A 
ATOM     22  C   UNL A   1     -26.473   0.638  24.753  0.00  0.00    +0.056 A 
ATOM     23  C   UNL A   1     -27.441  -0.371  24.366  0.00  0.00    +0.018 A 
ATOM     24  C   UNL A   1     -28.816  -0.096  24.536  0.00  0.00    +0.042 A 
ATOM     25  C   UNL A   1     -29.141   1.203  25.068  0.00  0.00    +0.086 A 
ATOM     26  C   UNL A   1     -28.207   2.158  25.394  0.00  0.00    +0.005 A 
ATOM     27 BR   UNL A   1     -30.143  -1.262  24.010  0.00  0.00    -0.049 Br
ATOM     28 CL   UNL A   1     -24.876   0.124  24.513  0.00  0.00    -0.083 Cl
BRANCH  25  29
ATOM     29  C   UNL A   1     -30.638   1.529  25.168  0.00  0.00    +0.388 C 
ATOM     30  O   UNL A   1     -31.055   2.211  24.444  0.00  0.00    -0.240 OA
ATOM     31  O   UNL A   1     -31.079   1.362  26.414  0.00  0.00    -0.240 OA
ENDBRANCH  25  29
ENDBRANCH  20  21
ENDBRANCH  19  20
BRANCH  19  32
ATOM     32  C   UNL A   1     -26.313   3.460  27.808  0.00  0.00    +0.207 C 
BRANCH  32  33
ATOM     33  C   UNL A   1     -25.936   4.640  28.159  0.00  0.00    +0.385 C 
ATOM     34  O   UNL A   1     -25.670   4.596  29.318  0.00  0.00    -0.244 OA
ATOM     35  O   UNL A   1     -25.569   5.500  27.476  0.00  0.00    -0.244 OA
ENDBRANCH  32  33
ENDBRANCH  19  32
ENDBRANCH   1  19
TORSDOF 7
ENDMDL
ENDMDL
