MODEL 148
MODEL 1
REMARK VINA RESULT:    -6.415      0.000      0.000
REMARK INTER + INTRA:          -7.546
REMARK INTER:                  -7.165
REMARK INTRA:                  -0.381
REMARK UNBOUND:                -0.381
REMARK  Name = No_148-gen_results/8p0m/2024-11-27-11-27-31/
REMARK  2 active torsions:
REMARK  status: ('A' for Active; 'I' for Inactive)
REMARK    1  A    between atoms: C_3  and  C_7
REMARK    2  A    between atoms: N_8  and  C_10
REMARK                            x       y       z     vdW  Elec       q    Type
REMARK                         _______ _______ _______ _____ _____    ______ ____
ROOT
ATOM      1  C   UNL A   1     -25.125  -1.270  29.017  0.00  0.00    +0.269 C 
ATOM      2  N   UNL A   1     -24.830  -0.636  29.841  0.00  0.00    -0.175 NA
ATOM      3  O   UNL A   1     -25.096  -0.752  27.763  0.00  0.00    -0.268 OA
ENDROOT
BRANCH   1   6
ATOM      4  C   UNL A   1     -26.181  -3.522  29.644  0.00  0.00    +0.005 A 
ATOM      5  C   UNL A   1     -26.107  -4.572  29.616  0.00  0.00    +0.000 A 
ATOM      6  C   UNL A   1     -25.123  -2.771  29.086  0.00  0.00    +0.055 A 
ATOM      7  C   UNL A   1     -24.013  -3.376  28.529  0.00  0.00    +0.005 A 
ATOM      8  C   UNL A   1     -25.050  -5.455  29.086  0.00  0.00    +0.000 A 
ATOM      9  C   UNL A   1     -24.016  -4.777  28.542  0.00  0.00    +0.000 A 
ENDBRANCH   1   6
BRANCH   2  10
ATOM     10  C   UNL A   1     -24.840  -1.045  31.280  0.00  0.00    +0.074 A 
ATOM     11  C   UNL A   1     -25.506  -0.674  32.053  0.00  0.00    +0.017 A 
ATOM     12  C   UNL A   1     -25.483  -0.459  33.295  0.00  0.00    +0.001 A 
ATOM     13  C   UNL A   1     -24.177  -0.933  33.881  0.00  0.00    +0.000 A 
ATOM     14  C   UNL A   1     -23.396  -1.283  31.706  0.00  0.00    +0.017 A 
ATOM     15  C   UNL A   1     -23.211  -1.294  33.052  0.00  0.00    +0.001 A 
ENDBRANCH   2  10
TORSDOF 2
ENDMDL
ENDMDL
