REMARK  Name = outputs/IAG933/test6/raw/output_149_IAG933_linker_design_.xyz
REMARK  12 active torsions:
REMARK  status: ('A' for Active; 'I' for Inactive)
REMARK    1  A    between atoms: C_1  and  C_2
REMARK    2  A    between atoms: C_1  and  C_8
REMARK    3  A    between atoms: C_1  and  N_29
REMARK    4  A    between atoms: C_13  and  C_33
REMARK    5  A    between atoms: C_14  and  C_15
REMARK    6  A    between atoms: C_21  and  O_22
REMARK    7  A    between atoms: O_22  and  C_23
REMARK    8  A    between atoms: C_23  and  C_24
REMARK    9  A    between atoms: C_28  and  C_30
REMARK   10  A    between atoms: C_28  and  N_36
REMARK   11  A    between atoms: N_29  and  C_33
REMARK   12  A    between atoms: C_33  and  C_35
REMARK                            x       y       z     vdW  Elec       q    Type
REMARK                         _______ _______ _______ _____ _____    ______ ____
ROOT
ATOM      1  C   UNL A   1     -25.010   1.215  27.784  0.00  0.00    +0.101 C 
ENDROOT
BRANCH   1   4
ATOM      2  O   UNL A   1     -21.530   1.905  26.556  0.00  0.00    -0.246 OA
ATOM      3  O   UNL A   1     -23.358   2.045  25.356  0.00  0.00    -0.245 OA
ATOM      4  C   UNL A   1     -23.546   0.964  27.557  0.00  0.00    +0.188 C 
ATOM      5  C   UNL A   1     -21.317   0.426  28.398  0.00  0.00    +0.320 C 
ATOM      6  O   UNL A   1     -22.744  -0.668  29.368  0.00  0.00    -0.286 OA
ATOM      7  O   UNL A   1     -20.790   1.282  27.485  0.00  0.00    -0.262 OA
ATOM      8  C   UNL A   1     -22.534   0.223  28.461  0.00  0.00    +0.241 C 
ATOM      9  C   UNL A   1     -22.827   1.648  26.501  0.00  0.00    +0.373 C 
ATOM     10  N   UNL A   1     -20.411  -0.148  29.029  0.00  0.00    -0.081 NA
ENDBRANCH   1   4
BRANCH   1  11
ATOM     11  C   UNL A   1     -25.688   1.614  26.461  0.00  0.00    +0.089 C 
ATOM     12  C   UNL A   1     -26.250   2.920  26.395  0.00  0.00    +0.056 C 
ATOM     13  C   UNL A   1     -27.438   3.091  25.645  0.00  0.00    +0.102 C 
ATOM     14  N   UNL A   1     -28.075   2.089  25.003  0.00  0.00    -0.212 NA
ATOM     15  C   UNL A   1     -27.543   0.849  25.079  0.00  0.00    +0.234 C 
ATOM     16  C   UNL A   1     -26.354   0.576  25.777  0.00  0.00    +0.242 C 
ATOM     17  F   UNL A   1     -25.860  -0.681  25.795  0.00  0.00    -0.227 F 
BRANCH  12  18
ATOM     18  C   UNL A   1     -25.642   4.093  27.123  0.00  0.00    +0.263 C 
ATOM     19  N   UNL A   1     -25.614   5.252  26.449  0.00  0.00    -0.200 NA
ATOM     20  C   UNL A   1     -25.026   6.479  26.963  0.00  0.00    +0.139 C 
ATOM     21  O   UNL A   1     -25.143   3.966  28.243  0.00  0.00    -0.269 OA
ENDBRANCH  12  18
BRANCH  15  22
ATOM     22  O   UNL A   1     -28.193  -0.208  24.477  0.00  0.00    -0.459 OA
BRANCH  22  23
ATOM     23  C   UNL A   1     -29.460   0.005  23.866  0.00  0.00    +0.242 C 
BRANCH  23  24
ATOM     24  C   UNL A   1     -30.065  -1.377  23.573  0.00  0.00    +0.229 C 
ATOM     25  O   UNL A   1     -30.729  -1.878  24.721  0.00  0.00    -0.216 OA
ENDBRANCH  23  24
ENDBRANCH  22  23
ENDBRANCH  15  22
ENDBRANCH   1  11
BRANCH   1  26
ATOM     26  N   UNL A   1     -25.284   0.166  29.063  0.00  0.00    -0.275 N 
ATOM     27  C   UNL A   1     -26.574   0.540  29.339  0.00  0.00    +0.244 C 
ATOM     28  O   UNL A   1     -27.370  -0.350  28.947  0.00  0.00    -0.273 OA
BRANCH  26  29
ATOM     29  C   UNL A   1     -24.855  -1.012  30.143  0.00  0.00    +0.114 C 
BRANCH  29  30
ATOM     30  C   UNL A   1     -24.973  -2.505  29.788  0.00  0.00    -0.003 C 
ATOM     31  C   UNL A   1     -23.906  -3.173  29.146  0.00  0.00    -0.003 C 
ATOM     32  C   UNL A   1     -23.989  -4.549  28.853  0.00  0.00    -0.000 C 
ATOM     33  C   UNL A   1     -25.137  -5.280  29.205  0.00  0.00    -0.000 C 
ATOM     34  C   UNL A   1     -26.232  -4.611  29.784  0.00  0.00    -0.000 C 
ATOM     35  C   UNL A   1     -26.155  -3.232  30.065  0.00  0.00    -0.003 C 
ENDBRANCH  29  30
BRANCH  29  36
ATOM     36  C   UNL A   1     -25.387  -0.679  31.571  0.00  0.00    +0.095 C 
ATOM     37  C   UNL A   1     -25.189   0.773  32.028  0.00  0.00    +0.021 C 
ATOM     38  C   UNL A   1     -25.336   0.684  33.544  0.00  0.00    +0.020 C 
ATOM     39  C   UNL A   1     -24.829  -0.715  33.905  0.00  0.00    +0.089 C 
ATOM     40  N   UNL A   1     -24.758  -1.481  32.646  0.00  0.00    -0.217 NA
ENDBRANCH  29  36
ENDBRANCH  26  29
BRANCH  27  41
ATOM     41  C   UNL A   1     -27.092   1.821  29.864  0.00  0.00    +0.174 C 
BRANCH  41  43
ATOM     42  C   UNL A   1     -26.759   3.881  31.392  0.00  0.00    +0.108 C 
ATOM     43  N   UNL A   1     -26.488   2.997  30.261  0.00  0.00    -0.207 NA
ENDBRANCH  41  43
ENDBRANCH  27  41
ENDBRANCH   1  26
TORSDOF 12
