MODEL 1492
MODEL 1
REMARK VINA RESULT:    -6.548      0.000      0.000
REMARK INTER + INTRA:          -7.251
REMARK INTER:                  -6.931
REMARK INTRA:                  -0.320
REMARK UNBOUND:                -0.320
REMARK  Name = No_1492-gen_results/8p0m/2024-11-27-11-27-31/
REMARK  1 active torsions:
REMARK  status: ('A' for Active; 'I' for Inactive)
REMARK    1  A    between atoms: C_3  and  C_7
REMARK                            x       y       z     vdW  Elec       q    Type
REMARK                         _______ _______ _______ _____ _____    ______ ____
ROOT
ATOM      1  C   UNL A   1     -21.928  -0.271  29.072  0.00  0.00    +0.011 A 
ATOM      2  C   UNL A   1     -22.568  -1.231  29.435  0.00  0.00    +0.001 A 
ATOM      3  C   UNL A   1     -23.817  -1.566  28.916  0.00  0.00    +0.000 A 
ATOM      4  C   UNL A   1     -24.428  -0.698  27.928  0.00  0.00    +0.001 A 
ATOM      5  C   UNL A   1     -23.665   0.408  27.553  0.00  0.00    +0.011 A 
ATOM      6  C   UNL A   1     -22.493   0.656  28.105  0.00  0.00    +0.058 A 
ATOM      7 CL   UNL A   1     -21.702   2.095  27.501  0.00  0.00    -0.082 Cl
ENDROOT
BRANCH   3   8
ATOM      8  C   UNL A   1     -24.669  -2.735  29.305  0.00  0.00    +0.000 A 
ATOM      9  C   UNL A   1     -24.337  -3.956  28.994  0.00  0.00    +0.000 A 
ATOM     10  C   UNL A   1     -25.187  -5.022  29.187  0.00  0.00    +0.000 A 
ATOM     11  C   UNL A   1     -26.484  -4.895  29.689  0.00  0.00    +0.000 A 
ATOM     12  C   UNL A   1     -26.029  -2.519  29.816  0.00  0.00    +0.000 A 
ATOM     13  C   UNL A   1     -26.900  -3.625  30.040  0.00  0.00    +0.000 A 
ENDBRANCH   3   8
TORSDOF 1
ENDMDL
ENDMDL
