REMARK  Name = outputs/IAG933/test6/raw/output_1492_IAG933_linker_design_.xyz
REMARK  16 active torsions:
REMARK  status: ('A' for Active; 'I' for Inactive)
REMARK    1  A    between atoms: C_1  and  C_2
REMARK    2  A    between atoms: C_1  and  C_8
REMARK    3  A    between atoms: C_1  and  C_48
REMARK    4  A    between atoms: C_13  and  C_30
REMARK    5  A    between atoms: C_14  and  C_15
REMARK    6  A    between atoms: C_21  and  O_22
REMARK    7  A    between atoms: O_22  and  C_23
REMARK    8  A    between atoms: C_23  and  C_24
REMARK    9  A    between atoms: O_29  and  C_39
REMARK   10  A    between atoms: O_29  and  C_46
REMARK   11  A    between atoms: O_36  and  C_43
REMARK   12  A    between atoms: C_37  and  C_39
REMARK   13  A    between atoms: C_37  and  C_47
REMARK   14  A    between atoms: C_38  and  N_42
REMARK   15  A    between atoms: C_38  and  C_46
REMARK   16  A    between atoms: C_45  and  C_47
REMARK                            x       y       z     vdW  Elec       q    Type
REMARK                         _______ _______ _______ _____ _____    ______ ____
ROOT
ATOM      1  C   UNL A   1     -24.801   1.244  27.528  0.00  0.00    -0.011 C 
ATOM      2  C   UNL A   1     -21.858   0.817  28.951  0.00  0.00    +0.250 C 
ATOM      3  N   UNL A   1     -22.941   0.023  29.560  0.00  0.00    -0.245 NA
ATOM      4  C   UNL A   1     -21.933   1.452  28.002  0.00  0.00    +0.199 C 
ATOM      5  C   UNL A   1     -23.286   1.388  27.247  0.00  0.00    +0.165 C 
ATOM      6  O   UNL A   1     -20.947   0.862  27.987  0.00  0.00    -0.328 OA
ATOM      7  C   UNL A   1     -25.337   0.548  28.434  0.00  0.00    -0.014 C 
ATOM      8  C   UNL A   1     -24.348  -0.005  29.327  0.00  0.00    +0.057 C 
ENDROOT
BRANCH   1   9
ATOM      9  C   UNL A   1     -25.688   1.614  26.461  0.00  0.00    +0.090 C 
ATOM     10  C   UNL A   1     -26.250   2.920  26.395  0.00  0.00    +0.059 C 
ATOM     11  C   UNL A   1     -27.438   3.091  25.645  0.00  0.00    +0.102 C 
ATOM     12  N   UNL A   1     -28.075   2.089  25.003  0.00  0.00    -0.212 NA
ATOM     13  C   UNL A   1     -27.543   0.849  25.079  0.00  0.00    +0.234 C 
ATOM     14  C   UNL A   1     -26.354   0.576  25.777  0.00  0.00    +0.244 C 
ATOM     15  F   UNL A   1     -25.860  -0.681  25.795  0.00  0.00    -0.227 F 
BRANCH  10  16
ATOM     16  C   UNL A   1     -25.642   4.093  27.123  0.00  0.00    +0.263 C 
ATOM     17  N   UNL A   1     -25.614   5.252  26.449  0.00  0.00    -0.200 NA
ATOM     18  C   UNL A   1     -25.026   6.479  26.963  0.00  0.00    +0.139 C 
ATOM     19  O   UNL A   1     -25.143   3.966  28.243  0.00  0.00    -0.269 OA
ENDBRANCH  10  16
BRANCH  13  20
ATOM     20  O   UNL A   1     -28.193  -0.208  24.477  0.00  0.00    -0.459 OA
BRANCH  20  21
ATOM     21  C   UNL A   1     -29.460   0.005  23.866  0.00  0.00    +0.242 C 
BRANCH  21  22
ATOM     22  C   UNL A   1     -30.065  -1.377  23.573  0.00  0.00    +0.229 C 
ATOM     23  O   UNL A   1     -30.729  -1.878  24.721  0.00  0.00    -0.216 OA
ENDBRANCH  21  22
ENDBRANCH  20  21
ENDBRANCH  13  20
ENDBRANCH   1   9
BRANCH   5  25
ATOM     24  C   UNL A   1     -22.994   1.787  24.808  0.00  0.00    +0.175 C 
ATOM     25  O   UNL A   1     -22.826   1.025  26.005  0.00  0.00    -0.347 OA
ENDBRANCH   5  25
BRANCH   8  26
ATOM     26  C   UNL A   1     -24.855  -1.012  30.143  0.00  0.00    +0.078 C 
BRANCH  26  27
ATOM     27  C   UNL A   1     -24.973  -2.505  29.788  0.00  0.00    -0.016 C 
ATOM     28  C   UNL A   1     -23.906  -3.173  29.146  0.00  0.00    -0.004 C 
ATOM     29  C   UNL A   1     -23.989  -4.549  28.853  0.00  0.00    -0.000 C 
ATOM     30  C   UNL A   1     -25.137  -5.280  29.205  0.00  0.00    -0.000 C 
ATOM     31  C   UNL A   1     -26.232  -4.611  29.784  0.00  0.00    -0.000 C 
ATOM     32  C   UNL A   1     -26.155  -3.232  30.065  0.00  0.00    -0.004 C 
ENDBRANCH  26  27
BRANCH  26  33
ATOM     33  C   UNL A   1     -25.387  -0.679  31.571  0.00  0.00    +0.082 C 
ATOM     34  C   UNL A   1     -25.189   0.773  32.028  0.00  0.00    +0.020 C 
ATOM     35  C   UNL A   1     -25.336   0.684  33.544  0.00  0.00    +0.020 C 
ATOM     36  C   UNL A   1     -24.829  -0.715  33.905  0.00  0.00    +0.089 C 
ATOM     37  N   UNL A   1     -24.758  -1.481  32.646  0.00  0.00    -0.219 NA
ENDBRANCH  26  33
ENDBRANCH   8  26
BRANCH   7  38
ATOM     38  C   UNL A   1     -26.983   0.095  28.589  0.00  0.00    +0.030 C 
BRANCH  38  39
ATOM     39  C   UNL A   1     -28.101   0.138  29.084  0.00  0.00    +0.037 C 
BRANCH  39  40
ATOM     40  C   UNL A   1     -29.203   1.193  29.009  0.00  0.00    +0.143 C 
BRANCH  40  41
ATOM     41  O   UNL A   1     -28.797   2.284  29.798  0.00  0.00    -0.352 OA
BRANCH  41  42
ATOM     42  C   UNL A   1     -28.748   3.564  29.162  0.00  0.00    +0.161 C 
BRANCH  42  43
ATOM     43  C   UNL A   1     -28.329   4.672  30.136  0.00  0.00    +0.122 C 
BRANCH  43  48
ATOM     44  C   UNL A   1     -25.290   5.990  31.002  0.00  0.00    +0.109 C 
ATOM     45  C   UNL A   1     -25.335   4.930  31.822  0.00  0.00    +0.039 C 
ATOM     46  C   UNL A   1     -26.337   4.179  31.444  0.00  0.00    +0.092 C 
ATOM     47  N   UNL A   1     -26.322   5.930  30.166  0.00  0.00    -0.147 NA
ATOM     48  N   UNL A   1     -27.044   4.887  30.559  0.00  0.00    -0.201 NA
ENDBRANCH  43  48
ENDBRANCH  42  43
ENDBRANCH  41  42
ENDBRANCH  40  41
ENDBRANCH  39  40
ENDBRANCH  38  39
ENDBRANCH   7  38
TORSDOF 16
