MODEL 1494
MODEL 1
REMARK VINA RESULT:    -6.453      0.000      0.000
REMARK INTER + INTRA:          -7.307
REMARK INTER:                  -7.207
REMARK INTRA:                  -0.100
REMARK UNBOUND:                -0.100
REMARK  Name = No_1494-gen_results/8p0m/2024-11-27-11-27-31/
REMARK  2 active torsions:
REMARK  status: ('A' for Active; 'I' for Inactive)
REMARK    1  A    between atoms: C_7  and  C_11
REMARK    2  A    between atoms: C_9  and  C_15
REMARK                            x       y       z     vdW  Elec       q    Type
REMARK                         _______ _______ _______ _____ _____    ______ ____
ROOT
ATOM      1  C   UNL A   1     -23.756   0.382  27.987  0.00  0.00    +0.004 A 
ATOM      2  C   UNL A   1     -24.658   0.003  27.593  0.00  0.00    +0.000 A 
ATOM      3  C   UNL A   1     -22.884  -0.655  28.553  0.00  0.00    +0.000 A 
ATOM      4  C   UNL A   1     -21.504  -0.339  28.967  0.00  0.00    -0.000 A 
ATOM      5  C   UNL A   1     -20.823   0.678  28.261  0.00  0.00    -0.000 A 
ATOM      6  C   UNL A   1     -21.573   1.500  27.356  0.00  0.00    +0.004 A 
ATOM      7  C   UNL A   1     -22.869   1.274  27.137  0.00  0.00    +0.071 A 
ATOM      8  C   UNL A   1     -25.461  -0.972  28.026  0.00  0.00    +0.003 A 
ATOM      9  C   UNL A   1     -24.753  -1.913  28.859  0.00  0.00    +0.042 A 
ATOM     10  C   UNL A   1     -23.432  -1.724  29.216  0.00  0.00    +0.003 A 
ENDROOT
BRANCH   7  11
ATOM     11  C   UNL A   1     -23.495   2.290  26.184  0.00  0.00    +0.419 C 
ATOM     12  F   UNL A   1     -24.408   1.853  25.547  0.00  0.00    -0.166 F 
ATOM     13  F   UNL A   1     -23.937   3.321  27.028  0.00  0.00    -0.166 F 
ATOM     14  F   UNL A   1     -22.618   2.747  25.286  0.00  0.00    -0.166 F 
ENDBRANCH   7  11
BRANCH   9  15
ATOM     15  C   UNL A   1     -25.534  -3.114  29.450  0.00  0.00    +0.234 C 
ATOM     16  O   UNL A   1     -25.524  -4.173  29.180  0.00  0.00    -0.283 OA
ENDBRANCH   9  15
TORSDOF 2
ENDMDL
ENDMDL
