MODEL 1495
MODEL 1
REMARK VINA RESULT:    -5.777      0.000      0.000
REMARK INTER + INTRA:         -11.649
REMARK INTER:                  -8.141
REMARK INTRA:                  -3.508
REMARK UNBOUND:                -3.508
REMARK  Name = No_1495-gen_results/8p0m/2024-11-27-11-27-31/
REMARK  7 active torsions:
REMARK  status: ('A' for Active; 'I' for Inactive)
REMARK    1  A    between atoms: C_10  and  C_11
REMARK    2  A    between atoms: C_11  and  C_13
REMARK    3  A    between atoms: C_13  and  C_14
REMARK    4  A    between atoms: C_14  and  C_15
REMARK    5  A    between atoms: C_15  and  C_17
REMARK    6  A    between atoms: C_16  and  C_18
REMARK    7  A    between atoms: C_19  and  C_20
REMARK                            x       y       z     vdW  Elec       q    Type
REMARK                         _______ _______ _______ _____ _____    ______ ____
ROOT
ATOM      1  C   UNL A   1     -24.888  -2.245  28.592  0.00  0.00    +0.022 C 
ATOM      2  C   UNL A   1     -24.855  -3.334  28.752  0.00  0.00    +0.005 C 
ENDROOT
BRANCH   1  12
ATOM      3  C   UNL A   1     -23.306   1.144  27.640  0.00  0.00    -0.026 A 
ATOM      4  C   UNL A   1     -22.295   1.008  27.903  0.00  0.00    -0.005 A 
ATOM      5  C   UNL A   1     -23.564   2.062  26.567  0.00  0.00    +0.026 C 
ATOM      6  C   UNL A   1     -24.912   2.177  25.974  0.00  0.00    +0.005 C 
ATOM      7  C   UNL A   1     -25.760   1.054  25.979  0.00  0.00    +0.005 C 
ATOM      8  C   UNL A   1     -25.377  -0.086  26.714  0.00  0.00    +0.026 C 
ATOM      9  C   UNL A   1     -24.210  -0.115  27.384  0.00  0.00    -0.030 A 
ATOM     10  C   UNL A   1     -21.939   0.123  29.128  0.00  0.00    -0.001 A 
ATOM     11  C   UNL A   1     -22.764  -1.022  29.260  0.00  0.00    -0.005 A 
ATOM     12  C   UNL A   1     -23.988  -1.208  28.403  0.00  0.00    -0.027 A 
ENDBRANCH   1  12
BRANCH   1  13
ATOM     13  C   UNL A   1     -25.928  -1.623  29.742  0.00  0.00    +0.009 C 
BRANCH  13  14
ATOM     14  C   UNL A   1     -25.652  -1.702  31.143  0.00  0.00    +0.022 C 
BRANCH  14  15
ATOM     15  C   UNL A   1     -25.327  -0.706  31.831  0.00  0.00    -0.044 C 
ATOM     16  C   UNL A   1     -26.040   0.579  31.792  0.00  0.00    -0.009 C 
BRANCH  15  17
ATOM     17  C   UNL A   1     -24.299  -0.777  32.865  0.00  0.00    +0.022 C 
ATOM     18  C   UNL A   1     -23.085  -1.261  32.634  0.00  0.00    +0.005 C 
ENDBRANCH  15  17
BRANCH  16  19
ATOM     19  C   UNL A   1     -25.652   1.510  31.574  0.00  0.00    -0.001 C 
ATOM     20  C   UNL A   1     -25.239   2.031  30.228  0.00  0.00    -0.000 C 
BRANCH  20  21
ATOM     21  C   UNL A   1     -25.627   3.246  29.759  0.00  0.00    -0.005 C 
ATOM     22  C   UNL A   1     -26.911   3.430  29.231  0.00  0.00    -0.026 C 
ATOM     23  C   UNL A   1     -27.566   2.238  28.752  0.00  0.00    +0.031 C 
ENDBRANCH  20  21
ENDBRANCH  16  19
ENDBRANCH  14  15
ENDBRANCH  13  14
ENDBRANCH   1  13
TORSDOF 7
ENDMDL
ENDMDL
