REMARK  Name = outputs/IAG933/test6/raw/output_1495_IAG933_linker_design_.xyz
REMARK  13 active torsions:
REMARK  status: ('A' for Active; 'I' for Inactive)
REMARK    1  A    between atoms: C_1  and  C_2
REMARK    2  A    between atoms: C_1  and  C_8
REMARK    3  A    between atoms: C_1  and  N_33
REMARK    4  A    between atoms: C_9  and  N_34
REMARK    5  A    between atoms: C_13  and  C_41
REMARK    6  A    between atoms: C_14  and  C_15
REMARK    7  A    between atoms: C_21  and  O_22
REMARK    8  A    between atoms: O_22  and  C_23
REMARK    9  A    between atoms: C_23  and  C_24
REMARK   10  A    between atoms: C_28  and  C_29
REMARK   11  A    between atoms: O_32  and  C_37
REMARK   12  A    between atoms: N_34  and  C_39
REMARK   13  A    between atoms: C_37  and  C_39
REMARK                            x       y       z     vdW  Elec       q    Type
REMARK                         _______ _______ _______ _____ _____    ______ ____
ROOT
ATOM      1  C   UNL A   1     -23.381   1.389  27.970  0.00  0.00    +0.054 C 
ATOM      2  C   UNL A   1     -22.024   1.475  27.810  0.00  0.00    +0.044 C 
ATOM      3  C   UNL A   1     -23.470   1.967  25.579  0.00  0.00    +0.229 C 
ATOM      4  O   UNL A   1     -22.139   2.096  25.590  0.00  0.00    -0.468 OA
ATOM      5  C   UNL A   1     -21.390   1.830  26.665  0.00  0.00    +0.173 C 
ATOM      6  C   UNL A   1     -24.212   1.626  26.728  0.00  0.00    +0.011 C 
ENDROOT
BRANCH   6   7
ATOM      7  C   UNL A   1     -25.688   1.614  26.461  0.00  0.00    +0.092 C 
ATOM      8  C   UNL A   1     -26.250   2.920  26.395  0.00  0.00    +0.059 C 
ATOM      9  C   UNL A   1     -27.438   3.091  25.645  0.00  0.00    +0.102 C 
ATOM     10  N   UNL A   1     -28.075   2.089  25.003  0.00  0.00    -0.212 NA
ATOM     11  C   UNL A   1     -27.543   0.849  25.079  0.00  0.00    +0.234 C 
ATOM     12  C   UNL A   1     -26.354   0.576  25.777  0.00  0.00    +0.244 C 
ATOM     13  F   UNL A   1     -25.860  -0.681  25.795  0.00  0.00    -0.227 F 
BRANCH   8  14
ATOM     14  C   UNL A   1     -25.642   4.093  27.123  0.00  0.00    +0.263 C 
ATOM     15  N   UNL A   1     -25.614   5.252  26.449  0.00  0.00    -0.200 NA
ATOM     16  C   UNL A   1     -25.026   6.479  26.963  0.00  0.00    +0.139 C 
ATOM     17  O   UNL A   1     -25.143   3.966  28.243  0.00  0.00    -0.269 OA
ENDBRANCH   8  14
BRANCH  11  18
ATOM     18  O   UNL A   1     -28.193  -0.208  24.477  0.00  0.00    -0.459 OA
BRANCH  18  19
ATOM     19  C   UNL A   1     -29.460   0.005  23.866  0.00  0.00    +0.242 C 
BRANCH  19  20
ATOM     20  C   UNL A   1     -30.065  -1.377  23.573  0.00  0.00    +0.229 C 
ATOM     21  O   UNL A   1     -30.729  -1.878  24.721  0.00  0.00    -0.216 OA
ENDBRANCH  19  20
ENDBRANCH  18  19
ENDBRANCH  11  18
ENDBRANCH   6   7
BRANCH   1  22
ATOM     22  C   UNL A   1     -23.553   1.068  29.517  0.00  0.00    +0.265 C 
ATOM     23  O   UNL A   1     -23.248   1.911  30.370  0.00  0.00    -0.268 OA
ATOM     24  N   UNL A   1     -23.839  -0.156  29.773  0.00  0.00    -0.198 NA
BRANCH  24  25
ATOM     25  C   UNL A   1     -24.855  -1.012  30.143  0.00  0.00    +0.135 C 
BRANCH  25  26
ATOM     26  C   UNL A   1     -24.973  -2.505  29.788  0.00  0.00    -0.001 C 
ATOM     27  C   UNL A   1     -23.906  -3.173  29.146  0.00  0.00    -0.003 C 
ATOM     28  C   UNL A   1     -23.989  -4.549  28.853  0.00  0.00    -0.000 C 
ATOM     29  C   UNL A   1     -25.137  -5.280  29.205  0.00  0.00    -0.000 C 
ATOM     30  C   UNL A   1     -26.232  -4.611  29.784  0.00  0.00    -0.000 C 
ATOM     31  C   UNL A   1     -26.155  -3.232  30.065  0.00  0.00    -0.003 C 
ENDBRANCH  25  26
BRANCH  25  32
ATOM     32  C   UNL A   1     -25.387  -0.679  31.571  0.00  0.00    +0.113 C 
ATOM     33  C   UNL A   1     -25.189   0.773  32.028  0.00  0.00    +0.092 C 
ATOM     34  C   UNL A   1     -25.336   0.684  33.544  0.00  0.00    +0.038 C 
ATOM     35  C   UNL A   1     -24.829  -0.715  33.905  0.00  0.00    +0.090 C 
ATOM     36  N   UNL A   1     -24.758  -1.481  32.646  0.00  0.00    -0.216 NA
BRANCH  33  37
ATOM     37  N   UNL A   1     -25.540   2.084  31.563  0.00  0.00    -0.215 NA
BRANCH  37  38
ATOM     38  C   UNL A   1     -25.863   3.191  32.407  0.00  0.00    +0.121 C 
BRANCH  38  39
ATOM     39  C   UNL A   1     -25.634   4.416  31.538  0.00  0.00    +0.161 C 
BRANCH  39  40
ATOM     40  O   UNL A   1     -26.822   4.583  30.741  0.00  0.00    -0.350 OA
ATOM     41  C   UNL A   1     -27.676   3.467  30.419  0.00  0.00    +0.174 C 
ENDBRANCH  39  40
ENDBRANCH  38  39
ENDBRANCH  37  38
ENDBRANCH  33  37
ENDBRANCH  25  32
ENDBRANCH  24  25
ENDBRANCH   1  22
TORSDOF 13
