MODEL 1496
MODEL 1
REMARK VINA RESULT:    -4.297      0.000      0.000
REMARK INTER + INTRA:          -5.320
REMARK INTER:                  -5.051
REMARK INTRA:                  -0.269
REMARK UNBOUND:                -0.269
REMARK  Name = No_1496-gen_results/8p0m/2024-11-27-11-27-31/
REMARK  3 active torsions:
REMARK  status: ('A' for Active; 'I' for Inactive)
REMARK    1  A    between atoms: C_1  and  C_2
REMARK    2  A    between atoms: C_3  and  C_4
REMARK    3  A    between atoms: C_6  and  C_7
REMARK                            x       y       z     vdW  Elec       q    Type
REMARK                         _______ _______ _______ _____ _____    ______ ____
ROOT
ATOM      1  C   UNL A   1     -24.774  -2.976  28.600  0.00  0.00    -0.026 C 
ATOM      2  C   UNL A   1     -24.216  -1.584  28.801  0.00  0.00    -0.005 C 
ENDROOT
BRANCH   1   3
ATOM      3  C   UNL A   1     -24.144  -3.764  28.905  0.00  0.00    +0.026 C 
ATOM      4  C   UNL A   1     -24.805  -5.157  29.027  0.00  0.00    +0.005 C 
ENDBRANCH   1   3
BRANCH   2   5
ATOM      5  C   UNL A   1     -22.881  -1.429  29.230  0.00  0.00    -0.000 C 
ATOM      6  C   UNL A   1     -22.125  -0.250  28.882  0.00  0.00    -0.000 C 
BRANCH   6   7
ATOM      7  C   UNL A   1     -22.783   0.779  28.227  0.00  0.00    -0.000 C 
ATOM      8  C   UNL A   1     -22.077   1.669  27.410  0.00  0.00    -0.000 C 
ENDBRANCH   6   7
ENDBRANCH   2   5
TORSDOF 3
ENDMDL
ENDMDL
