MODEL 1497
MODEL 1
REMARK VINA RESULT:    -7.679      0.000      0.000
REMARK INTER + INTRA:          -7.679
REMARK INTER:                  -7.679
REMARK INTRA:                   0.000
REMARK UNBOUND:                 0.000
REMARK  Name = No_1497-gen_results/8p0m/2024-11-27-11-27-31/
REMARK  0 active torsions:
REMARK  status: ('A' for Active; 'I' for Inactive)
REMARK                            x       y       z     vdW  Elec       q    Type
REMARK                         _______ _______ _______ _____ _____    ______ ____
ROOT
ATOM      1  C   UNL A   1     -24.075  -1.451  29.897  0.00  0.00    +0.026 C 
ATOM      2  C   UNL A   1     -23.327  -0.733  29.275  0.00  0.00    -0.026 A 
ATOM      3  C   UNL A   1     -21.950  -0.803  29.365  0.00  0.00    -0.002 A 
ATOM      4  C   UNL A   1     -21.013   0.084  28.701  0.00  0.00    +0.029 A 
ATOM      5  C   UNL A   1     -21.518   1.112  27.875  0.00  0.00    +0.140 A 
ATOM      6  C   UNL A   1     -22.953   1.204  27.784  0.00  0.00    +0.025 A 
ATOM      7  C   UNL A   1     -23.823   0.375  28.452  0.00  0.00    -0.024 A 
ATOM      8  C   UNL A   1     -24.921  -2.371  29.074  0.00  0.00    +0.004 C 
ATOM      9  C   UNL A   1     -25.921  -3.182  29.721  0.00  0.00    +0.000 C 
ATOM     10  F   UNL A   1     -20.746   1.910  27.254  0.00  0.00    -0.204 F 
ATOM     11  C   UNL A   1     -25.933  -4.292  29.849  0.00  0.00    +0.000 C 
ATOM     12  C   UNL A   1     -24.863  -5.079  29.251  0.00  0.00    +0.000 C 
ATOM     13  C   UNL A   1     -24.100  -4.501  28.266  0.00  0.00    +0.000 C 
ATOM     14  C   UNL A   1     -23.970  -3.373  28.406  0.00  0.00    +0.000 C 
ATOM     15  C   UNL A   1     -25.631  -1.593  27.891  0.00  0.00    +0.005 C 
ATOM     16  C   UNL A   1     -24.815  -0.412  27.374  0.00  0.00    +0.026 C 
ENDROOT
TORSDOF 0
ENDMDL
ENDMDL
