REMARK  Name = No_1497-gen_results/8p0m/2024-11-27-11-27-31/
REMARK  0 active torsions:
REMARK  status: ('A' for Active; 'I' for Inactive)
REMARK                            x       y       z     vdW  Elec       q    Type
REMARK                         _______ _______ _______ _____ _____    ______ ____
ROOT
ATOM      1  C   UNL A   1     -28.016  -0.814  28.878  0.00  0.00    +0.026 C 
ATOM      2  C   UNL A   1     -27.064  -0.119  28.608  0.00  0.00    -0.026 A 
ATOM      3  C   UNL A   1     -27.001   0.691  27.491  0.00  0.00    -0.002 A 
ATOM      4  C   UNL A   1     -25.855   1.482  27.083  0.00  0.00    +0.029 A 
ATOM      5  C   UNL A   1     -24.690   1.453  27.881  0.00  0.00    +0.140 A 
ATOM      6  C   UNL A   1     -24.738   0.601  29.042  0.00  0.00    +0.025 A 
ATOM      7  C   UNL A   1     -25.823  -0.169  29.389  0.00  0.00    -0.024 A 
ATOM      8  C   UNL A   1     -28.735  -0.464  30.142  0.00  0.00    +0.004 C 
ATOM      9  C   UNL A   1     -29.811  -1.305  30.601  0.00  0.00    +0.000 C 
ATOM     10  F   UNL A   1     -23.660   2.138  27.584  0.00  0.00    -0.204 F 
ATOM     11  C   UNL A   1     -30.902  -1.067  30.648  0.00  0.00    +0.000 C 
ATOM     12  C   UNL A   1     -31.345   0.269  30.271  0.00  0.00    +0.000 C 
ATOM     13  C   UNL A   1     -30.415   1.278  30.230  0.00  0.00    +0.000 C 
ATOM     14  C   UNL A   1     -29.374   0.914  29.924  0.00  0.00    +0.000 C 
ATOM     15  C   UNL A   1     -27.722  -0.285  31.347  0.00  0.00    +0.005 C 
ATOM     16  C   UNL A   1     -26.356   0.235  30.912  0.00  0.00    +0.026 C 
ENDROOT
TORSDOF 0
