MODEL 1498
MODEL 1
REMARK VINA RESULT:    -7.118      0.000      0.000
REMARK INTER + INTRA:          -9.656
REMARK INTER:                  -8.782
REMARK INTRA:                  -0.874
REMARK UNBOUND:                -0.874
REMARK  Name = No_1498-gen_results/8p0m/2024-11-27-11-27-31/
REMARK  4 active torsions:
REMARK  status: ('A' for Active; 'I' for Inactive)
REMARK    1  A    between atoms: C_3  and  C_8
REMARK    2  A    between atoms: C_6  and  O_7
REMARK    3  A    between atoms: O_7  and  C_14
REMARK    4  A    between atoms: C_15  and  C_20
REMARK                            x       y       z     vdW  Elec       q    Type
REMARK                         _______ _______ _______ _____ _____    ______ ____
ROOT
ATOM      1  O   UNL A   1     -23.665   1.621  29.660  0.00  0.00    -0.453 OA
ENDROOT
BRANCH   1   2
ATOM      2  C   UNL A   1     -23.947   0.804  30.736  0.00  0.00    +0.148 A 
ATOM      3  C   UNL A   1     -23.223  -0.402  30.664  0.00  0.00    +0.114 A 
ATOM      4  C   UNL A   1     -23.338  -1.222  31.746  0.00  0.00    +0.009 A 
ATOM      5  C   UNL A   1     -24.214  -0.903  32.819  0.00  0.00    -0.002 A 
ATOM      6  C   UNL A   1     -24.850   0.307  32.849  0.00  0.00    -0.001 A 
ATOM      7  C   UNL A   1     -24.691   1.207  31.806  0.00  0.00    +0.019 A 
ATOM      8  C   UNL A   1     -25.732   0.678  33.993  0.00  0.00    +0.141 C 
ATOM      9  N   UNL A   1     -26.151   1.673  34.156  0.00  0.00    -0.200 NA
ATOM     10  C   UNL A   1     -26.113   2.737  33.396  0.00  0.00    +0.246 C 
ATOM     11  C   UNL A   1     -25.328   2.503  32.014  0.00  0.00    +0.116 C 
ATOM     12  O   UNL A   1     -26.657   3.896  33.500  0.00  0.00    -0.273 OA
BRANCH   3  13
ATOM     13  C   UNL A   1     -22.327  -0.727  29.596  0.00  0.00    +0.391 C 
ATOM     14  O   UNL A   1     -21.268  -0.282  29.544  0.00  0.00    -0.240 OA
ATOM     15  O   UNL A   1     -22.627  -1.745  28.826  0.00  0.00    -0.240 OA
ENDBRANCH   3  13
ENDBRANCH   1   2
BRANCH   1  21
ATOM     16  C   UNL A   1     -23.900   1.708  27.211  0.00  0.00    +0.092 A 
ATOM     17  C   UNL A   1     -24.583   1.609  26.218  0.00  0.00    +0.015 A 
ATOM     18  C   UNL A   1     -25.960   1.435  26.309  0.00  0.00    +0.001 A 
ATOM     19  C   UNL A   1     -26.610   1.322  27.589  0.00  0.00    +0.003 A 
ATOM     20  C   UNL A   1     -25.741   1.423  28.684  0.00  0.00    +0.038 A 
ATOM     21  C   UNL A   1     -24.444   1.570  28.544  0.00  0.00    +0.156 A 
ATOM     22 CL   UNL A   1     -22.191   1.875  27.069  0.00  0.00    -0.079 Cl
BRANCH  18  23
ATOM     23  C   UNL A   1     -26.918   1.311  25.149  0.00  0.00    +0.000 A 
ATOM     24  C   UNL A   1     -27.520   2.382  24.662  0.00  0.00    +0.000 A 
ATOM     25  C   UNL A   1     -28.491   2.246  23.603  0.00  0.00    +0.000 A 
ATOM     26  C   UNL A   1     -28.907   0.984  23.143  0.00  0.00    +0.000 A 
ATOM     27  C   UNL A   1     -27.359   0.027  24.702  0.00  0.00    +0.000 A 
ATOM     28  C   UNL A   1     -28.338  -0.095  23.662  0.00  0.00    +0.000 A 
ENDBRANCH  18  23
ENDBRANCH   1  21
TORSDOF 4
ENDMDL
ENDMDL
