REMARK  Name = outputs/IAG933/test6/raw/output_1498_IAG933_linker_design_.xyz
REMARK  12 active torsions:
REMARK  status: ('A' for Active; 'I' for Inactive)
REMARK    1  A    between atoms: C_1  and  C_2
REMARK    2  A    between atoms: C_1  and  C_8
REMARK    3  A    between atoms: C_1  and  C_39
REMARK    4  A    between atoms: C_13  and  C_40
REMARK    5  A    between atoms: C_14  and  C_15
REMARK    6  A    between atoms: C_21  and  O_22
REMARK    7  A    between atoms: O_22  and  C_23
REMARK    8  A    between atoms: C_23  and  C_24
REMARK    9  A    between atoms: C_29  and  C_31
REMARK   10  A    between atoms: N_30  and  C_42
REMARK   11  A    between atoms: C_31  and  C_42
REMARK   12  A    between atoms: C_35  and  C_44
REMARK                            x       y       z     vdW  Elec       q    Type
REMARK                         _______ _______ _______ _____ _____    ______ ____
ROOT
ATOM      1  N   UNL A   1     -25.590   0.647  28.482  0.00  0.00    -0.329 N 
ATOM      2  C   UNL A   1     -23.248   0.261  28.715  0.00  0.00    +0.107 A 
ATOM      3  N   UNL A   1     -22.020  -0.123  29.347  0.00  0.00    -0.127 NA
ATOM      4  C   UNL A   1     -23.368   1.060  27.577  0.00  0.00    +0.098 A 
ATOM      5  C   UNL A   1     -24.536  -0.024  29.101  0.00  0.00    +0.059 A 
ATOM      6  C   UNL A   1     -24.753   1.238  27.456  0.00  0.00    +0.051 A 
ENDROOT
BRANCH   6   7
ATOM      7  C   UNL A   1     -25.688   1.614  26.461  0.00  0.00    +0.108 C 
ATOM      8  C   UNL A   1     -26.250   2.920  26.395  0.00  0.00    +0.060 C 
ATOM      9  C   UNL A   1     -27.438   3.091  25.645  0.00  0.00    +0.102 C 
ATOM     10  N   UNL A   1     -28.075   2.089  25.003  0.00  0.00    -0.212 NA
ATOM     11  C   UNL A   1     -27.543   0.849  25.079  0.00  0.00    +0.234 C 
ATOM     12  C   UNL A   1     -26.354   0.576  25.777  0.00  0.00    +0.245 C 
ATOM     13  F   UNL A   1     -25.860  -0.681  25.795  0.00  0.00    -0.227 F 
BRANCH   8  14
ATOM     14  C   UNL A   1     -25.642   4.093  27.123  0.00  0.00    +0.263 C 
ATOM     15  N   UNL A   1     -25.614   5.252  26.449  0.00  0.00    -0.200 NA
ATOM     16  C   UNL A   1     -25.026   6.479  26.963  0.00  0.00    +0.139 C 
ATOM     17  O   UNL A   1     -25.143   3.966  28.243  0.00  0.00    -0.269 OA
ENDBRANCH   8  14
BRANCH  11  18
ATOM     18  O   UNL A   1     -28.193  -0.208  24.477  0.00  0.00    -0.459 OA
BRANCH  18  19
ATOM     19  C   UNL A   1     -29.460   0.005  23.866  0.00  0.00    +0.242 C 
BRANCH  19  20
ATOM     20  C   UNL A   1     -30.065  -1.377  23.573  0.00  0.00    +0.229 C 
ATOM     21  O   UNL A   1     -30.729  -1.878  24.721  0.00  0.00    -0.216 OA
ENDBRANCH  19  20
ENDBRANCH  18  19
ENDBRANCH  11  18
ENDBRANCH   6   7
BRANCH   4  24
ATOM     22  O   UNL A   1     -22.556   2.332  25.740  0.00  0.00    -0.254 OA
ATOM     23  F   UNL A   1     -21.124   1.448  27.290  0.00  0.00    -0.159 F 
ATOM     24  C   UNL A   1     -22.402   1.659  26.786  0.00  0.00    +0.336 C 
ENDBRANCH   4  24
BRANCH   5  25
ATOM     25  C   UNL A   1     -24.855  -1.012  30.143  0.00  0.00    +0.078 C 
BRANCH  25  26
ATOM     26  C   UNL A   1     -24.973  -2.505  29.788  0.00  0.00    -0.016 C 
ATOM     27  C   UNL A   1     -23.906  -3.173  29.146  0.00  0.00    -0.004 C 
ATOM     28  C   UNL A   1     -23.989  -4.549  28.853  0.00  0.00    -0.000 C 
ATOM     29  C   UNL A   1     -25.137  -5.280  29.205  0.00  0.00    -0.000 C 
ATOM     30  C   UNL A   1     -26.232  -4.611  29.784  0.00  0.00    -0.000 C 
ATOM     31  C   UNL A   1     -26.155  -3.232  30.065  0.00  0.00    -0.004 C 
ENDBRANCH  25  26
BRANCH  25  32
ATOM     32  C   UNL A   1     -25.387  -0.679  31.571  0.00  0.00    +0.082 C 
ATOM     33  C   UNL A   1     -25.189   0.773  32.028  0.00  0.00    +0.020 C 
ATOM     34  C   UNL A   1     -25.336   0.684  33.544  0.00  0.00    +0.020 C 
ATOM     35  C   UNL A   1     -24.829  -0.715  33.905  0.00  0.00    +0.089 C 
ATOM     36  N   UNL A   1     -24.758  -1.481  32.646  0.00  0.00    -0.219 NA
ENDBRANCH  25  32
ENDBRANCH   5  25
BRANCH   1  37
ATOM     37  C   UNL A   1     -26.630   0.898  28.982  0.00  0.00    +0.138 C 
BRANCH  37  38
ATOM     38  C   UNL A   1     -27.489   1.302  29.688  0.00  0.00    +0.175 C 
ATOM     39  O   UNL A   1     -28.471   0.282  29.390  0.00  0.00    -0.221 OA
BRANCH  38  41
ATOM     40  C   UNL A   1     -29.613   3.698  31.860  0.00  0.00    -0.031 C 
ATOM     41  C   UNL A   1     -27.930   2.735  29.763  0.00  0.00    +0.037 C 
ATOM     42  C   UNL A   1     -30.151   3.301  30.475  0.00  0.00    -0.031 C 
ATOM     43  C   UNL A   1     -27.272   3.535  30.952  0.00  0.00    +0.008 C 
ATOM     44  C   UNL A   1     -28.160   3.387  32.256  0.00  0.00    +0.026 C 
ATOM     45  C   UNL A   1     -29.417   2.592  29.359  0.00  0.00    +0.028 C 
ENDBRANCH  38  41
ENDBRANCH  37  38
ENDBRANCH   1  37
TORSDOF 12
