MODEL 14
MODEL 1
REMARK VINA RESULT:    -7.751      0.000      0.000
REMARK INTER + INTRA:         -10.685
REMARK INTER:                  -9.110
REMARK INTRA:                  -1.574
REMARK UNBOUND:                -1.574
REMARK  Name = No_14-gen_results/8p0m/2024-11-27-11-27-31/
REMARK  3 active torsions:
REMARK  status: ('A' for Active; 'I' for Inactive)
REMARK    1  A    between atoms: C_2  and  C_7
REMARK    2  A    between atoms: C_3  and  C_20
REMARK    3  A    between atoms: C_8  and  C_9
REMARK                            x       y       z     vdW  Elec       q    Type
REMARK                         _______ _______ _______ _____ _____    ______ ____
ROOT
ATOM      1  C   UNL A   1     -23.292  -0.818  29.505  0.00  0.00    +0.053 C 
ATOM      2  C   UNL A   1     -24.039  -1.596  28.707  0.00  0.00    +0.050 C 
ATOM      3  C   UNL A   1     -24.749  -0.882  27.637  0.00  0.00    -0.022 C 
ATOM      4  C   UNL A   1     -22.235   0.025  29.059  0.00  0.00    +0.033 C 
ATOM      5  C   UNL A   1     -22.639   1.198  28.492  0.00  0.00    -0.026 C 
ATOM      6  C   UNL A   1     -23.375   1.171  27.239  0.00  0.00    -0.005 C 
ATOM      7  C   UNL A   1     -24.637   0.428  27.143  0.00  0.00    -0.005 C 
ENDROOT
BRANCH   1   9
ATOM      8  N   UNL A   1     -23.046  -1.340  31.676  0.00  0.00    -0.248 NA
ATOM      9  C   UNL A   1     -23.629  -0.803  30.968  0.00  0.00    +0.060 A 
ATOM     10  C   UNL A   1     -24.714   0.060  31.271  0.00  0.00    +0.013 A 
ATOM     11  C   UNL A   1     -25.092   0.166  32.642  0.00  0.00    +0.003 A 
ATOM     12  C   UNL A   1     -24.330  -0.533  33.546  0.00  0.00    +0.021 A 
ATOM     13  C   UNL A   1     -23.276  -1.271  33.106  0.00  0.00    +0.098 A 
BRANCH  10  14
ATOM     14  C   UNL A   1     -25.509   0.885  30.305  0.00  0.00    -0.003 C 
ATOM     15  C   UNL A   1     -25.638   2.083  30.380  0.00  0.00    -0.026 C 
ATOM     16  C   UNL A   1     -26.328   2.865  29.421  0.00  0.00    +0.031 C 
ENDBRANCH  10  14
ENDBRANCH   1   9
BRANCH   2  17
ATOM     17  C   UNL A   1     -24.437  -2.843  29.078  0.00  0.00    -0.018 A 
ATOM     18  C   UNL A   1     -23.894  -3.976  28.720  0.00  0.00    -0.004 A 
ATOM     19  C   UNL A   1     -24.513  -5.117  28.806  0.00  0.00    -0.000 A 
ATOM     20  C   UNL A   1     -25.788  -5.179  29.464  0.00  0.00    -0.000 A 
ATOM     21  C   UNL A   1     -26.485  -4.044  29.708  0.00  0.00    -0.000 A 
ATOM     22  C   UNL A   1     -25.858  -2.884  29.458  0.00  0.00    -0.004 A 
ENDBRANCH   2  17
TORSDOF 3
ENDMDL
ENDMDL
