REMARK  Name = outputs/IAG933/test6/raw/output_15_IAG933_linker_design_.xyz
REMARK  11 active torsions:
REMARK  status: ('A' for Active; 'I' for Inactive)
REMARK    1  A    between atoms: C_1  and  C_2
REMARK    2  A    between atoms: C_13  and  C_31
REMARK    3  A    between atoms: C_14  and  C_15
REMARK    4  A    between atoms: C_21  and  O_22
REMARK    5  A    between atoms: O_22  and  C_23
REMARK    6  A    between atoms: C_23  and  C_24
REMARK    7  A    between atoms: C_30  and  C_42
REMARK    8  A    between atoms: C_31  and  N_34
REMARK    9  A    between atoms: C_33  and  C_41
REMARK   10  A    between atoms: N_34  and  C_36
REMARK   11  A    between atoms: C_37  and  C_41
REMARK                            x       y       z     vdW  Elec       q    Type
REMARK                         _______ _______ _______ _____ _____    ______ ____
ROOT
ATOM      1  C   UNL A   1     -21.295   0.845  27.615  0.00  0.00    +0.190 C 
ATOM      2  O   UNL A   1     -20.848   1.615  26.678  0.00  0.00    -0.290 OA
ATOM      3  C   UNL A   1     -22.593   0.876  27.598  0.00  0.00    +0.081 C 
ATOM      4  C   UNL A   1     -22.047  -0.482  29.363  0.00  0.00    -0.019 C 
ATOM      5  C   UNL A   1     -23.023   0.125  28.702  0.00  0.00    +0.006 C 
ATOM      6  C   UNL A   1     -20.895  -0.062  28.747  0.00  0.00    +0.096 C 
ENDROOT
BRANCH   5  13
ATOM      7  C   UNL A   1     -24.855  -1.012  30.143  0.00  0.00    +0.059 C 
ATOM      8  C   UNL A   1     -25.387  -0.679  31.571  0.00  0.00    +0.080 C 
ATOM      9  C   UNL A   1     -25.189   0.773  32.028  0.00  0.00    +0.035 C 
ATOM     10  C   UNL A   1     -25.336   0.684  33.544  0.00  0.00    +0.022 C 
ATOM     11  C   UNL A   1     -24.829  -0.715  33.905  0.00  0.00    +0.089 C 
ATOM     12  N   UNL A   1     -24.758  -1.481  32.646  0.00  0.00    -0.219 NA
ATOM     13  C   UNL A   1     -24.473   0.135  29.159  0.00  0.00    +0.101 C 
ATOM     14  C   UNL A   1     -25.079   1.778  30.885  0.00  0.00    +0.086 C 
ATOM     15  N   UNL A   1     -24.783   1.576  29.464  0.00  0.00    -0.215 NA
BRANCH   7  16
ATOM     16  C   UNL A   1     -24.973  -2.505  29.788  0.00  0.00    -0.019 C 
ATOM     17  C   UNL A   1     -23.906  -3.173  29.146  0.00  0.00    -0.004 C 
ATOM     18  C   UNL A   1     -23.989  -4.549  28.853  0.00  0.00    -0.000 C 
ATOM     19  C   UNL A   1     -25.137  -5.280  29.205  0.00  0.00    -0.000 C 
ATOM     20  C   UNL A   1     -26.232  -4.611  29.784  0.00  0.00    -0.000 C 
ATOM     21  C   UNL A   1     -26.155  -3.232  30.065  0.00  0.00    -0.004 C 
ENDBRANCH   7  16
BRANCH  14  22
ATOM     22  C   UNL A   1     -24.470   3.167  31.323  0.00  0.00    +0.131 C 
BRANCH  22  24
ATOM     23  O   UNL A   1     -26.240   4.558  31.768  0.00  0.00    -0.246 OA
ATOM     24  C   UNL A   1     -25.107   4.254  32.078  0.00  0.00    +0.366 C 
ATOM     25  O   UNL A   1     -24.442   4.870  32.919  0.00  0.00    -0.246 OA
ENDBRANCH  22  24
ENDBRANCH  14  22
ENDBRANCH   5  13
BRANCH   3  26
ATOM     26  N   UNL A   1     -23.374   1.477  26.680  0.00  0.00    -0.300 N 
ATOM     27  C   UNL A   1     -23.191   2.134  25.409  0.00  0.00    +0.113 C 
BRANCH  26  28
ATOM     28  C   UNL A   1     -24.629   1.360  27.159  0.00  0.00    +0.120 C 
BRANCH  28  29
ATOM     29  C   UNL A   1     -25.688   1.614  26.461  0.00  0.00    +0.036 C 
ATOM     30  C   UNL A   1     -26.250   2.920  26.395  0.00  0.00    +0.074 C 
ATOM     31  C   UNL A   1     -27.438   3.091  25.645  0.00  0.00    +0.106 C 
ATOM     32  N   UNL A   1     -28.075   2.089  25.003  0.00  0.00    -0.208 NA
ATOM     33  C   UNL A   1     -27.543   0.849  25.079  0.00  0.00    +0.253 C 
ATOM     34  C   UNL A   1     -26.354   0.576  25.777  0.00  0.00    +0.191 C 
ATOM     35  F   UNL A   1     -25.860  -0.681  25.795  0.00  0.00    -0.200 F 
BRANCH  30  36
ATOM     36  C   UNL A   1     -25.642   4.093  27.123  0.00  0.00    +0.266 C 
ATOM     37  N   UNL A   1     -25.614   5.252  26.449  0.00  0.00    -0.200 NA
ATOM     38  C   UNL A   1     -25.026   6.479  26.963  0.00  0.00    +0.139 C 
ATOM     39  O   UNL A   1     -25.143   3.966  28.243  0.00  0.00    -0.268 OA
ENDBRANCH  30  36
BRANCH  33  40
ATOM     40  O   UNL A   1     -28.193  -0.208  24.477  0.00  0.00    -0.456 OA
BRANCH  40  41
ATOM     41  C   UNL A   1     -29.460   0.005  23.866  0.00  0.00    +0.243 C 
BRANCH  41  42
ATOM     42  C   UNL A   1     -30.065  -1.377  23.573  0.00  0.00    +0.229 C 
ATOM     43  O   UNL A   1     -30.729  -1.878  24.721  0.00  0.00    -0.216 OA
ENDBRANCH  41  42
ENDBRANCH  40  41
ENDBRANCH  33  40
ENDBRANCH  28  29
ENDBRANCH  26  28
ENDBRANCH   3  26
TORSDOF 11
