REMARK  Name = outputs/IAG933/test6/raw/output_150_IAG933_linker_design_.xyz
REMARK  13 active torsions:
REMARK  status: ('A' for Active; 'I' for Inactive)
REMARK    1  A    between atoms: C_1  and  C_2
REMARK    2  A    between atoms: C_1  and  C_8
REMARK    3  A    between atoms: C_1  and  C_30
REMARK    4  A    between atoms: C_13  and  C_38
REMARK    5  A    between atoms: C_14  and  C_15
REMARK    6  A    between atoms: C_21  and  O_22
REMARK    7  A    between atoms: O_22  and  C_23
REMARK    8  A    between atoms: C_23  and  C_24
REMARK    9  A    between atoms: C_28  and  C_39
REMARK   10  A    between atoms: N_29  and  C_41
REMARK   11  A    between atoms: C_31  and  C_42
REMARK   12  A    between atoms: C_35  and  C_37
REMARK   13  A    between atoms: C_41  and  C_43
REMARK                            x       y       z     vdW  Elec       q    Type
REMARK                         _______ _______ _______ _____ _____    ______ ____
ROOT
ATOM      1  C   UNL A   1     -24.416   0.108  29.312  0.00  0.00    -0.013 C 
ATOM      2  C   UNL A   1     -25.356   0.838  28.572  0.00  0.00    +0.048 C 
ATOM      3  C   UNL A   1     -23.051   0.377  29.158  0.00  0.00    -0.006 C 
ATOM      4  C   UNL A   1     -23.521   1.500  27.056  0.00  0.00    -0.027 C 
ATOM      5  C   UNL A   1     -24.866   1.362  27.403  0.00  0.00    -0.015 C 
ATOM      6  C   UNL A   1     -22.607   1.023  27.964  0.00  0.00    +0.006 C 
ENDROOT
BRANCH   5   7
ATOM      7  C   UNL A   1     -25.688   1.614  26.461  0.00  0.00    +0.092 C 
ATOM      8  C   UNL A   1     -26.250   2.920  26.395  0.00  0.00    +0.059 C 
ATOM      9  C   UNL A   1     -27.438   3.091  25.645  0.00  0.00    +0.102 C 
ATOM     10  N   UNL A   1     -28.075   2.089  25.003  0.00  0.00    -0.212 NA
ATOM     11  C   UNL A   1     -27.543   0.849  25.079  0.00  0.00    +0.234 C 
ATOM     12  C   UNL A   1     -26.354   0.576  25.777  0.00  0.00    +0.244 C 
ATOM     13  F   UNL A   1     -25.860  -0.681  25.795  0.00  0.00    -0.227 F 
BRANCH   8  14
ATOM     14  C   UNL A   1     -25.642   4.093  27.123  0.00  0.00    +0.263 C 
ATOM     15  N   UNL A   1     -25.614   5.252  26.449  0.00  0.00    -0.200 NA
ATOM     16  C   UNL A   1     -25.026   6.479  26.963  0.00  0.00    +0.139 C 
ATOM     17  O   UNL A   1     -25.143   3.966  28.243  0.00  0.00    -0.269 OA
ENDBRANCH   8  14
BRANCH  11  18
ATOM     18  O   UNL A   1     -28.193  -0.208  24.477  0.00  0.00    -0.459 OA
BRANCH  18  19
ATOM     19  C   UNL A   1     -29.460   0.005  23.866  0.00  0.00    +0.242 C 
BRANCH  19  20
ATOM     20  C   UNL A   1     -30.065  -1.377  23.573  0.00  0.00    +0.229 C 
ATOM     21  O   UNL A   1     -30.729  -1.878  24.721  0.00  0.00    -0.216 OA
ENDBRANCH  19  20
ENDBRANCH  18  19
ENDBRANCH  11  18
ENDBRANCH   5   7
BRANCH   2  24
ATOM     22  N   UNL A   1     -27.242   2.032  29.612  0.00  0.00    -0.199 NA
ATOM     23  O   UNL A   1     -27.311  -0.071  28.718  0.00  0.00    -0.268 OA
ATOM     24  C   UNL A   1     -26.728   0.954  28.942  0.00  0.00    +0.264 C 
BRANCH  22  25
ATOM     25  C   UNL A   1     -28.003   3.250  29.593  0.00  0.00    +0.151 C 
BRANCH  25  27
ATOM     26  O   UNL A   1     -27.490   5.609  29.898  0.00  0.00    -0.218 OA
ATOM     27  C   UNL A   1     -27.085   4.282  30.232  0.00  0.00    +0.205 C 
ENDBRANCH  25  27
ENDBRANCH  22  25
ENDBRANCH   2  24
BRANCH   6  28
ATOM     28  C   UNL A   1     -21.137   1.107  27.447  0.00  0.00    +0.208 C 
ATOM     29  O   UNL A   1     -20.655   2.361  27.895  0.00  0.00    -0.215 OA
ENDBRANCH   6  28
BRANCH   4  31
ATOM     30  C   UNL A   1     -22.970   1.049  24.549  0.00  0.00    +0.005 C 
ATOM     31  C   UNL A   1     -22.966   2.053  25.728  0.00  0.00    +0.026 C 
ENDBRANCH   4  31
BRANCH   1  32
ATOM     32  C   UNL A   1     -24.855  -1.012  30.143  0.00  0.00    +0.061 C 
BRANCH  32  33
ATOM     33  C   UNL A   1     -24.973  -2.505  29.788  0.00  0.00    -0.017 C 
ATOM     34  C   UNL A   1     -23.906  -3.173  29.146  0.00  0.00    -0.004 C 
ATOM     35  C   UNL A   1     -23.989  -4.549  28.853  0.00  0.00    -0.000 C 
ATOM     36  C   UNL A   1     -25.137  -5.280  29.205  0.00  0.00    -0.000 C 
ATOM     37  C   UNL A   1     -26.232  -4.611  29.784  0.00  0.00    -0.000 C 
ATOM     38  C   UNL A   1     -26.155  -3.232  30.065  0.00  0.00    -0.004 C 
ENDBRANCH  32  33
BRANCH  32  39
ATOM     39  C   UNL A   1     -25.387  -0.679  31.571  0.00  0.00    +0.081 C 
ATOM     40  C   UNL A   1     -25.189   0.773  32.028  0.00  0.00    +0.019 C 
ATOM     41  C   UNL A   1     -25.336   0.684  33.544  0.00  0.00    +0.020 C 
ATOM     42  C   UNL A   1     -24.829  -0.715  33.905  0.00  0.00    +0.089 C 
ATOM     43  N   UNL A   1     -24.758  -1.481  32.646  0.00  0.00    -0.219 NA
ENDBRANCH  32  39
ENDBRANCH   1  32
TORSDOF 13
