MODEL 1500
MODEL 1
REMARK VINA RESULT:    -6.028      0.000      0.000
REMARK INTER + INTRA:          -7.943
REMARK INTER:                  -7.437
REMARK INTRA:                  -0.506
REMARK UNBOUND:                -0.506
REMARK  Name = No_1500-gen_results/8p0m/2024-11-27-11-27-31/
REMARK  4 active torsions:
REMARK  status: ('A' for Active; 'I' for Inactive)
REMARK    1  A    between atoms: C_3  and  C_7
REMARK    2  A    between atoms: C_7  and  C_8
REMARK    3  A    between atoms: C_9  and  C_10
REMARK    4  A    between atoms: C_10  and  C_11
REMARK                            x       y       z     vdW  Elec       q    Type
REMARK                         _______ _______ _______ _____ _____    ______ ____
ROOT
ATOM      1  C   UNL A   1     -24.681  -1.211  29.717  0.00  0.00    +0.052 C 
ENDROOT
BRANCH   1   4
ATOM      2  C   UNL A   1     -26.070  -3.328  29.915  0.00  0.00    -0.004 A 
ATOM      3  C   UNL A   1     -26.175  -4.336  29.627  0.00  0.00    -0.000 A 
ATOM      4  C   UNL A   1     -24.831  -2.707  29.429  0.00  0.00    -0.018 A 
ATOM      5  C   UNL A   1     -23.860  -3.409  28.844  0.00  0.00    -0.004 A 
ATOM      6  C   UNL A   1     -25.275  -5.290  29.025  0.00  0.00    -0.000 A 
ATOM      7  C   UNL A   1     -24.120  -4.700  28.603  0.00  0.00    -0.000 A 
ENDBRANCH   1   4
BRANCH   1   8
ATOM      8  C   UNL A   1     -24.207  -0.361  28.646  0.00  0.00    -0.026 C 
ATOM      9  C   UNL A   1     -22.990   0.230  28.678  0.00  0.00    -0.026 C 
BRANCH   9  10
ATOM     10  C   UNL A   1     -22.616   1.157  27.659  0.00  0.00    +0.051 C 
BRANCH  10  11
ATOM     11  C   UNL A   1     -23.467   2.284  27.336  0.00  0.00    -0.026 C 
ATOM     12  C   UNL A   1     -23.550   2.665  25.999  0.00  0.00    -0.030 C 
ATOM     13  C   UNL A   1     -22.590   2.206  25.091  0.00  0.00    +0.030 C 
ENDBRANCH  10  11
ENDBRANCH   9  10
ENDBRANCH   1   8
TORSDOF 4
ENDMDL
ENDMDL
