MODEL 1501
MODEL 1
REMARK VINA RESULT:    -6.143      0.000      0.000
REMARK INTER + INTRA:          -6.845
REMARK INTER:                  -6.502
REMARK INTRA:                  -0.343
REMARK UNBOUND:                -0.343
REMARK  Name = No_1501-gen_results/8p0m/2024-11-27-11-27-31/
REMARK  1 active torsions:
REMARK  status: ('A' for Active; 'I' for Inactive)
REMARK    1  A    between atoms: N_4  and  C_6
REMARK                            x       y       z     vdW  Elec       q    Type
REMARK                         _______ _______ _______ _____ _____    ______ ____
ROOT
ATOM      1  C   UNL A   1     -24.650   0.754  30.865  0.00  0.00    +0.088 C 
ATOM      2  C   UNL A   1     -23.647   0.629  31.160  0.00  0.00    +0.047 C 
ATOM      3  C   UNL A   1     -25.142  -0.211  29.808  0.00  0.00    +0.230 C 
ATOM      4  N   UNL A   1     -24.982  -1.500  30.013  0.00  0.00    -0.256 N 
ATOM      5  C   UNL A   1     -23.156  -0.745  31.752  0.00  0.00    +0.181 C 
ATOM      6  C   UNL A   1     -24.072  -1.910  31.130  0.00  0.00    +0.133 C 
ATOM      7  O   UNL A   1     -26.090   0.036  28.990  0.00  0.00    -0.275 OA
ATOM      8  F   UNL A   1     -22.292  -1.066  32.536  0.00  0.00    -0.235 F 
ENDROOT
BRANCH   4   9
ATOM      9  C   UNL A   1     -25.366  -2.510  29.179  0.00  0.00    +0.054 A 
ATOM     10  C   UNL A   1     -26.162  -3.590  29.769  0.00  0.00    +0.015 A 
ATOM     11  C   UNL A   1     -25.910  -4.880  29.380  0.00  0.00    +0.001 A 
ATOM     12  C   UNL A   1     -24.194  -3.218  28.584  0.00  0.00    +0.015 A 
ATOM     13  C   UNL A   1     -25.001  -5.288  29.248  0.00  0.00    +0.000 A 
ATOM     14  C   UNL A   1     -24.018  -4.534  28.562  0.00  0.00    +0.001 A 
ENDBRANCH   4   9
TORSDOF 1
ENDMDL
ENDMDL
