MODEL 1502
MODEL 1
REMARK VINA RESULT:    -5.397      0.000      0.000
REMARK INTER + INTRA:          -6.393
REMARK INTER:                  -6.027
REMARK INTRA:                  -0.365
REMARK UNBOUND:                -0.365
REMARK  Name = No_1502-gen_results/8p0m/2024-11-27-11-27-31/
REMARK  2 active torsions:
REMARK  status: ('A' for Active; 'I' for Inactive)
REMARK    1  A    between atoms: C_2  and  C_8
REMARK    2  A    between atoms: C_8  and  N_9
REMARK                            x       y       z     vdW  Elec       q    Type
REMARK                         _______ _______ _______ _____ _____    ______ ____
ROOT
ATOM      1  C   UNL A   1     -24.495  -0.433  27.823  0.00  0.00    +0.008 A 
ATOM      2  C   UNL A   1     -23.710  -0.615  28.724  0.00  0.00    +0.056 A 
ATOM      3  C   UNL A   1     -22.518   0.072  28.850  0.00  0.00    +0.008 A 
ATOM      4  C   UNL A   1     -22.222   1.076  27.886  0.00  0.00    +0.042 A 
ATOM      5  C   UNL A   1     -23.206   1.360  27.001  0.00  0.00    +0.196 A 
ATOM      6  C   UNL A   1     -24.334   0.677  26.980  0.00  0.00    +0.042 A 
ATOM      7  O   UNL A   1     -22.947   2.359  26.112  0.00  0.00    -0.287 OA
ENDROOT
BRANCH   2   8
ATOM      8  C   UNL A   1     -24.111  -1.738  29.683  0.00  0.00    +0.268 C 
ATOM      9  O   UNL A   1     -23.490  -1.624  30.906  0.00  0.00    -0.268 OA
BRANCH   8  10
ATOM     10  N   UNL A   1     -25.163  -2.474  29.645  0.00  0.00    -0.184 NA
ATOM     11  C   UNL A   1     -25.194  -3.751  29.345  0.00  0.00    +0.030 C 
ATOM     12  C   UNL A   1     -26.299  -4.573  29.657  0.00  0.00    +0.044 C 
ATOM     13  C   UNL A   1     -24.080  -4.341  28.601  0.00  0.00    +0.044 C 
ENDBRANCH   8  10
ENDBRANCH   2   8
TORSDOF 2
ENDMDL
ENDMDL
