MODEL 1503
MODEL 1
REMARK VINA RESULT:    -6.439      0.000      0.000
REMARK INTER + INTRA:         -10.394
REMARK INTER:                  -9.073
REMARK INTRA:                  -1.321
REMARK UNBOUND:                -1.321
REMARK  Name = No_1503-gen_results/8p0m/2024-11-27-11-27-31/
REMARK  7 active torsions:
REMARK  status: ('A' for Active; 'I' for Inactive)
REMARK    1  A    between atoms: C_3  and  C_7
REMARK    2  A    between atoms: N_8  and  C_11
REMARK    3  A    between atoms: C_15  and  C_17
REMARK    4  A    between atoms: N_18  and  C_20
REMARK    5  A    between atoms: C_21  and  C_22
REMARK    6  A    between atoms: C_22  and  C_23
REMARK    7  A    between atoms: C_24  and  C_25
REMARK                            x       y       z     vdW  Elec       q    Type
REMARK                         _______ _______ _______ _____ _____    ______ ____
ROOT
ATOM      1  C   UNL A   1     -23.858   1.012  28.442  0.00  0.00    +0.054 A 
ATOM      2  C   UNL A   1     -23.316   2.185  27.967  0.00  0.00    +0.015 A 
ATOM      3  C   UNL A   1     -22.978   2.304  26.921  0.00  0.00    +0.001 A 
ATOM      4  C   UNL A   1     -23.459   1.447  25.856  0.00  0.00    +0.005 A 
ATOM      5  C   UNL A   1     -24.702   0.768  26.181  0.00  0.00    +0.057 A 
ATOM      6  C   UNL A   1     -24.740   0.359  27.600  0.00  0.00    +0.019 A 
ENDROOT
BRANCH   1   8
ATOM      7  C   UNL A   1     -23.279  -0.014  30.526  0.00  0.00    +0.253 C 
ATOM      8  N   UNL A   1     -23.091   0.150  29.356  0.00  0.00    -0.253 N 
ATOM      9  O   UNL A   1     -22.552  -0.806  31.233  0.00  0.00    -0.270 OA
ATOM     10  C   UNL A   1     -22.161  -0.664  28.557  0.00  0.00    +0.120 C 
BRANCH   7  13
ATOM     11  C   UNL A   1     -24.188   2.172  31.546  0.00  0.00    +0.004 A 
ATOM     12  C   UNL A   1     -25.043   2.606  31.983  0.00  0.00    +0.000 A 
ATOM     13  C   UNL A   1     -24.364   0.763  31.192  0.00  0.00    +0.054 A 
ATOM     14  C   UNL A   1     -25.548   0.100  31.401  0.00  0.00    +0.004 A 
ATOM     15  C   UNL A   1     -26.397   2.163  32.314  0.00  0.00    +0.000 A 
ATOM     16  C   UNL A   1     -26.578   0.801  31.974  0.00  0.00    +0.000 A 
ENDBRANCH   7  13
ENDBRANCH   1   8
BRANCH   5  17
ATOM     17  C   UNL A   1     -25.591   0.299  25.151  0.00  0.00    +0.269 C 
ATOM     18  N   UNL A   1     -26.723   0.958  24.936  0.00  0.00    -0.174 NA
ATOM     19  O   UNL A   1     -25.313  -0.661  24.458  0.00  0.00    -0.268 OA
BRANCH  18  20
ATOM     20  C   UNL A   1     -27.730   0.627  23.958  0.00  0.00    +0.085 C 
ATOM     21  C   UNL A   1     -28.638  -0.119  24.376  0.00  0.00    -0.004 C 
BRANCH  21  22
ATOM     22  C   UNL A   1     -29.638  -0.717  23.516  0.00  0.00    +0.045 C 
ATOM     23  C   UNL A   1     -28.985  -1.422  23.536  0.00  0.00    +0.009 C 
BRANCH  22  24
ATOM     24  C   UNL A   1     -31.038  -0.700  23.765  0.00  0.00    -0.022 C 
ATOM     25  C   UNL A   1     -31.754   0.352  23.214  0.00  0.00    -0.003 C 
BRANCH  25  26
ATOM     26  C   UNL A   1     -31.150   1.362  22.502  0.00  0.00    +0.012 C 
ATOM     27  C   UNL A   1     -31.194   2.674  22.980  0.00  0.00    +0.068 C 
ATOM     28 CL   UNL A   1     -30.922   2.819  23.497  0.00  0.00    -0.081 Cl
ENDBRANCH  25  26
ENDBRANCH  22  24
ENDBRANCH  21  22
ENDBRANCH  18  20
ENDBRANCH   5  17
TORSDOF 7
ENDMDL
ENDMDL
