REMARK  Name = outputs/IAG933/test6/raw/output_1504_IAG933_linker_design_.xyz
REMARK  13 active torsions:
REMARK  status: ('A' for Active; 'I' for Inactive)
REMARK    1  A    between atoms: C_1  and  C_2
REMARK    2  A    between atoms: C_1  and  C_8
REMARK    3  A    between atoms: C_9  and  C_35
REMARK    4  A    between atoms: C_13  and  C_38
REMARK    5  A    between atoms: C_14  and  C_15
REMARK    6  A    between atoms: C_21  and  O_22
REMARK    7  A    between atoms: O_22  and  C_23
REMARK    8  A    between atoms: C_23  and  C_24
REMARK    9  A    between atoms: N_28  and  C_40
REMARK   10  A    between atoms: C_29  and  C_34
REMARK   11  A    between atoms: C_31  and  C_41
REMARK   12  A    between atoms: C_35  and  C_40
REMARK   13  A    between atoms: C_38  and  N_39
REMARK                            x       y       z     vdW  Elec       q    Type
REMARK                         _______ _______ _______ _____ _____    ______ ____
ROOT
ATOM      1  C   UNL A   1     -22.750   1.884  26.363  0.00  0.00    +0.201 C 
ATOM      2  C   UNL A   1     -22.969   1.618  28.643  0.00  0.00    +0.234 C 
ATOM      3  N   UNL A   1     -21.609   1.552  28.253  0.00  0.00    -0.058 NA
ATOM      4  O   UNL A   1     -21.539   1.838  26.831  0.00  0.00    -0.250 OA
ATOM      5  N   UNL A   1     -23.563   1.584  27.362  0.00  0.00    -0.227 NA
ENDROOT
BRANCH   2   7
ATOM      6  N   UNL A   1     -25.143   2.358  29.839  0.00  0.00    -0.030 NA
ATOM      7  C   UNL A   1     -23.611   1.705  29.779  0.00  0.00    +0.246 C 
BRANCH   6   9
ATOM      8  N   UNL A   1     -26.646   3.785  30.778  0.00  0.00    +0.197 NA
ATOM      9  C   UNL A   1     -25.814   2.818  30.879  0.00  0.00    +0.433 C 
BRANCH   9  11
ATOM     10  O   UNL A   1     -24.528   3.510  32.622  0.00  0.00    -0.209 OA
ATOM     11  C   UNL A   1     -25.291   2.387  32.084  0.00  0.00    +0.268 C 
BRANCH  11  13
ATOM     12  C   UNL A   1     -25.387  -0.679  31.571  0.00  0.00    +0.080 C 
ATOM     13  C   UNL A   1     -25.189   0.773  32.028  0.00  0.00    +0.061 C 
ATOM     14  C   UNL A   1     -25.336   0.684  33.544  0.00  0.00    +0.023 C 
ATOM     15  C   UNL A   1     -24.829  -0.715  33.905  0.00  0.00    +0.089 C 
ATOM     16  N   UNL A   1     -24.758  -1.481  32.646  0.00  0.00    -0.219 NA
BRANCH  12  17
ATOM     17  C   UNL A   1     -24.855  -1.012  30.143  0.00  0.00    +0.044 C 
BRANCH  17  18
ATOM     18  C   UNL A   1     -24.973  -2.505  29.788  0.00  0.00    -0.021 C 
ATOM     19  C   UNL A   1     -23.906  -3.173  29.146  0.00  0.00    -0.004 C 
ATOM     20  C   UNL A   1     -23.989  -4.549  28.853  0.00  0.00    -0.000 C 
ATOM     21  C   UNL A   1     -25.137  -5.280  29.205  0.00  0.00    -0.000 C 
ATOM     22  C   UNL A   1     -26.232  -4.611  29.784  0.00  0.00    -0.000 C 
ATOM     23  C   UNL A   1     -26.155  -3.232  30.065  0.00  0.00    -0.004 C 
ENDBRANCH  17  18
ENDBRANCH  12  17
ENDBRANCH  11  13
ENDBRANCH   9  11
ENDBRANCH   6   9
ENDBRANCH   2   7
BRANCH   1  25
ATOM     24  C   UNL A   1     -22.666   0.915  24.020  0.00  0.00    +0.004 C 
ATOM     25  C   UNL A   1     -23.186   1.965  24.993  0.00  0.00    +0.049 C 
ENDBRANCH   1  25
BRANCH   5  26
ATOM     26  C   UNL A   1     -24.931   1.181  27.433  0.00  0.00    +0.084 C 
BRANCH  26  27
ATOM     27  C   UNL A   1     -25.688   1.614  26.461  0.00  0.00    +0.086 C 
ATOM     28  C   UNL A   1     -26.250   2.920  26.395  0.00  0.00    +0.056 C 
ATOM     29  C   UNL A   1     -27.438   3.091  25.645  0.00  0.00    +0.102 C 
ATOM     30  N   UNL A   1     -28.075   2.089  25.003  0.00  0.00    -0.212 NA
ATOM     31  C   UNL A   1     -27.543   0.849  25.079  0.00  0.00    +0.234 C 
ATOM     32  C   UNL A   1     -26.354   0.576  25.777  0.00  0.00    +0.241 C 
ATOM     33  F   UNL A   1     -25.860  -0.681  25.795  0.00  0.00    -0.227 F 
BRANCH  28  34
ATOM     34  C   UNL A   1     -25.642   4.093  27.123  0.00  0.00    +0.263 C 
ATOM     35  N   UNL A   1     -25.614   5.252  26.449  0.00  0.00    -0.200 NA
ATOM     36  C   UNL A   1     -25.026   6.479  26.963  0.00  0.00    +0.139 C 
ATOM     37  O   UNL A   1     -25.143   3.966  28.243  0.00  0.00    -0.269 OA
ENDBRANCH  28  34
BRANCH  31  38
ATOM     38  O   UNL A   1     -28.193  -0.208  24.477  0.00  0.00    -0.459 OA
BRANCH  38  39
ATOM     39  C   UNL A   1     -29.460   0.005  23.866  0.00  0.00    +0.242 C 
BRANCH  39  40
ATOM     40  C   UNL A   1     -30.065  -1.377  23.573  0.00  0.00    +0.229 C 
ATOM     41  O   UNL A   1     -30.729  -1.878  24.721  0.00  0.00    -0.216 OA
ENDBRANCH  39  40
ENDBRANCH  38  39
ENDBRANCH  31  38
ENDBRANCH  26  27
ENDBRANCH   5  26
TORSDOF 13
