MODEL 1504
MODEL 1
REMARK VINA RESULT:    -6.485      0.000      0.000
REMARK INTER + INTRA:          -6.262
REMARK INTER:                  -6.864
REMARK INTRA:                   0.602
REMARK UNBOUND:                 0.602
REMARK  Name = No_1504-gen_results/8p0m/2024-11-27-11-27-31/
REMARK  1 active torsions:
REMARK  status: ('A' for Active; 'I' for Inactive)
REMARK    1  A    between atoms: C_2  and  C_7
REMARK                            x       y       z     vdW  Elec       q    Type
REMARK                         _______ _______ _______ _____ _____    ______ ____
ROOT
ATOM      1  C   UNL A   1     -25.390  -1.462  29.642  0.00  0.00    +0.249 C 
ATOM      2  O   UNL A   1     -26.035  -1.034  30.514  0.00  0.00    -0.270 OA
ATOM      3  N   UNL A   1     -25.401  -2.898  29.396  0.00  0.00    -0.276 N 
ATOM      4  C   UNL A   1     -26.033  -3.651  29.648  0.00  0.00    +0.094 C 
ATOM      5  C   UNL A   1     -26.176  -4.730  29.689  0.00  0.00    +0.022 C 
ATOM      6  C   UNL A   1     -25.034  -5.451  28.970  0.00  0.00    +0.004 C 
ATOM      7  C   UNL A   1     -23.970  -4.653  28.548  0.00  0.00    +0.022 C 
ATOM      8  C   UNL A   1     -24.094  -3.340  28.723  0.00  0.00    +0.094 C 
ENDROOT
BRANCH   1  10
ATOM      9  C   UNL A   1     -23.093  -0.939  29.763  0.00  0.00    +0.004 A 
ATOM     10  C   UNL A   1     -23.970  -0.818  29.192  0.00  0.00    +0.054 A 
ATOM     11  C   UNL A   1     -21.871  -0.217  29.240  0.00  0.00    +0.000 A 
ATOM     12  C   UNL A   1     -22.004   0.660  28.143  0.00  0.00    +0.000 A 
ATOM     13  C   UNL A   1     -24.377   0.044  28.059  0.00  0.00    +0.004 A 
ATOM     14  C   UNL A   1     -23.281   0.728  27.555  0.00  0.00    +0.000 A 
ENDBRANCH   1  10
TORSDOF 1
ENDMDL
ENDMDL
