REMARK  Name = No_1506-gen_results/8p0m/2024-11-27-11-27-31/
REMARK  1 active torsions:
REMARK  status: ('A' for Active; 'I' for Inactive)
REMARK    1  A    between atoms: C_5  and  C_10
REMARK                            x       y       z     vdW  Elec       q    Type
REMARK                         _______ _______ _______ _____ _____    ______ ____
ROOT
ATOM      1  C   UNL A   1     -28.016  -0.814  28.878  0.00  0.00    +0.097 C 
ATOM      2  C   UNL A   1     -27.064  -0.119  28.608  0.00  0.00    +0.011 A 
ATOM      3  C   UNL A   1     -26.929   1.171  29.008  0.00  0.00    +0.068 A 
ATOM      4  C   UNL A   1     -25.770   2.034  28.688  0.00  0.00    +0.017 A 
ATOM      5  C   UNL A   1     -24.714   1.443  27.919  0.00  0.00    +0.045 A 
ATOM      6  C   UNL A   1     -24.859   0.078  27.584  0.00  0.00    +0.001 A 
ATOM      7  C   UNL A   1     -25.965  -0.661  27.916  0.00  0.00    -0.002 A 
ATOM      8  N   UNL A   1     -29.170  -0.298  28.947  0.00  0.00    -0.304 N 
ATOM      9  C   UNL A   1     -30.184  -0.892  29.705  0.00  0.00    +0.091 C 
ATOM     10  C   UNL A   1     -29.864  -2.068  30.365  0.00  0.00    +0.021 C 
ATOM     11  C   UNL A   1     -28.604  -2.612  30.412  0.00  0.00    +0.004 C 
ATOM     12  C   UNL A   1     -27.630  -1.901  29.835  0.00  0.00    +0.024 C 
ATOM     13  C   UNL A   1     -29.529   0.794  28.150  0.00  0.00    +0.064 A 
ATOM     14  C   UNL A   1     -30.619   0.615  27.293  0.00  0.00    +0.016 A 
ATOM     15  C   UNL A   1     -30.636   0.990  26.277  0.00  0.00    +0.001 A 
ATOM     16  C   UNL A   1     -29.820   2.137  25.790  0.00  0.00    +0.001 A 
ATOM     17  C   UNL A   1     -28.775   2.501  26.633  0.00  0.00    +0.018 A 
ATOM     18  C   UNL A   1     -28.592   1.766  27.748  0.00  0.00    +0.084 A 
ATOM     19  N   UNL A   1     -27.506   2.022  28.514  0.00  0.00    -0.211 NA
ENDROOT
BRANCH   5  20
ATOM     20  C   UNL A   1     -23.518   2.158  27.578  0.00  0.00    +0.341 C 
ATOM     21  F   UNL A   1     -23.369   2.821  26.730  0.00  0.00    -0.193 F 
ATOM     22  F   UNL A   1     -22.378   1.674  28.202  0.00  0.00    -0.193 F 
ENDBRANCH   5  20
TORSDOF 1
