MODEL 1506
MODEL 1
REMARK VINA RESULT:    -7.544      0.000      0.000
REMARK INTER + INTRA:          -8.124
REMARK INTER:                  -7.985
REMARK INTRA:                  -0.139
REMARK UNBOUND:                -0.139
REMARK  Name = No_1506-gen_results/8p0m/2024-11-27-11-27-31/
REMARK  1 active torsions:
REMARK  status: ('A' for Active; 'I' for Inactive)
REMARK    1  A    between atoms: C_5  and  C_10
REMARK                            x       y       z     vdW  Elec       q    Type
REMARK                         _______ _______ _______ _____ _____    ______ ____
ROOT
ATOM      1  C   UNL A   1     -25.334   0.161  30.811  0.00  0.00    +0.097 C 
ATOM      2  C   UNL A   1     -25.047  -0.898  30.302  0.00  0.00    +0.011 A 
ATOM      3  C   UNL A   1     -23.824  -1.188  29.791  0.00  0.00    +0.068 A 
ATOM      4  C   UNL A   1     -23.457  -2.478  29.166  0.00  0.00    +0.017 A 
ATOM      5  C   UNL A   1     -24.471  -3.491  29.126  0.00  0.00    +0.045 A 
ATOM      6  C   UNL A   1     -25.707  -3.176  29.733  0.00  0.00    +0.001 A 
ATOM      7  C   UNL A   1     -25.977  -1.955  30.294  0.00  0.00    -0.002 A 
ATOM      8  N   UNL A   1     -24.830   1.231  30.359  0.00  0.00    -0.304 N 
ATOM      9  C   UNL A   1     -24.716   2.371  31.161  0.00  0.00    +0.091 C 
ATOM     10  C   UNL A   1     -25.185   2.271  32.461  0.00  0.00    +0.021 C 
ATOM     11  C   UNL A   1     -25.640   1.109  33.033  0.00  0.00    +0.004 C 
ATOM     12  C   UNL A   1     -25.545   0.004  32.287  0.00  0.00    +0.024 C 
ATOM     13  C   UNL A   1     -24.511   1.371  29.005  0.00  0.00    +0.064 A 
ATOM     14  C   UNL A   1     -25.142   2.411  28.316  0.00  0.00    +0.016 A 
ATOM     15  C   UNL A   1     -25.527   2.301  27.309  0.00  0.00    +0.001 A 
ATOM     16  C   UNL A   1     -25.036   1.297  26.326  0.00  0.00    +0.001 A 
ATOM     17  C   UNL A   1     -24.272   0.274  26.878  0.00  0.00    +0.018 A 
ATOM     18  C   UNL A   1     -24.103   0.278  28.216  0.00  0.00    +0.084 A 
ATOM     19  N   UNL A   1     -23.474  -0.775  28.786  0.00  0.00    -0.211 NA
ENDROOT
BRANCH   5  20
ATOM     20  C   UNL A   1     -24.231  -4.799  28.587  0.00  0.00    +0.341 C 
ATOM     21  F   UNL A   1     -23.607  -5.052  27.734  0.00  0.00    -0.193 F 
ATOM     22  F   UNL A   1     -25.155  -5.750  28.992  0.00  0.00    -0.193 F 
ENDBRANCH   5  20
TORSDOF 1
ENDMDL
ENDMDL
