MODEL 1507
MODEL 1
REMARK VINA RESULT:    -5.925      0.000      0.000
REMARK INTER + INTRA:         -15.103
REMARK INTER:                  -9.735
REMARK INTRA:                  -5.369
REMARK UNBOUND:                -5.369
REMARK  Name = No_1507-gen_results/8p0m/2024-11-27-11-27-31/
REMARK  11 active torsions:
REMARK  status: ('A' for Active; 'I' for Inactive)
REMARK    1  A    between atoms: C_2  and  C_31
REMARK    2  A    between atoms: C_4  and  C_7
REMARK    3  A    between atoms: C_8  and  C_9
REMARK    4  A    between atoms: C_9  and  C_11
REMARK    5  A    between atoms: C_11  and  N_12
REMARK    6  A    between atoms: N_12  and  C_13
REMARK    7  A    between atoms: C_14  and  C_15
REMARK    8  A    between atoms: C_16  and  C_17
REMARK    9  A    between atoms: C_20  and  C_21
REMARK   10  A    between atoms: C_21  and  C_34
REMARK   11  A    between atoms: C_24  and  C_25
REMARK                            x       y       z     vdW  Elec       q    Type
REMARK                         _______ _______ _______ _____ _____    ______ ____
ROOT
ATOM      1  C   UNL A   1     -31.664 -14.586  28.439  0.00  0.00    +0.001 C 
ATOM      2  C   UNL A   1     -30.647 -14.662  29.460  0.00  0.00    +0.000 C 
ENDROOT
BRANCH   2   3
ATOM      3  C   UNL A   1     -30.906 -14.198  30.753  0.00  0.00    +0.000 A 
ATOM      4  C   UNL A   1     -32.002 -13.615  31.098  0.00  0.00    +0.000 A 
ATOM      5  C   UNL A   1     -32.272 -13.240  32.433  0.00  0.00    +0.000 A 
ATOM      6  C   UNL A   1     -31.301 -13.622  33.385  0.00  0.00    +0.003 A 
ATOM      7  C   UNL A   1     -30.086 -14.527  31.901  0.00  0.00    +0.000 A 
ATOM      8  C   UNL A   1     -30.262 -14.224  33.123  0.00  0.00    +0.000 A 
BRANCH   6   9
ATOM      9  C   UNL A   1     -31.550 -13.230  34.702  0.00  0.00    +0.042 C 
ATOM     10  C   UNL A   1     -31.891 -13.975  35.742  0.00  0.00    +0.003 C 
BRANCH  10  11
ATOM     11  C   UNL A   1     -32.207 -15.367  35.454  0.00  0.00    +0.000 A 
ATOM     12  C   UNL A   1     -31.115 -16.340  35.752  0.00  0.00    +0.000 A 
ATOM     13  C   UNL A   1     -31.322 -17.722  35.524  0.00  0.00    +0.000 A 
ATOM     14  C   UNL A   1     -32.566 -18.118  34.970  0.00  0.00    +0.000 A 
ATOM     15  C   UNL A   1     -33.536 -17.204  34.647  0.00  0.00    +0.000 A 
ATOM     16  C   UNL A   1     -33.303 -15.857  34.845  0.00  0.00    +0.000 A 
ENDBRANCH  10  11
BRANCH   9  17
ATOM     17  C   UNL A   1     -31.573 -11.779  34.930  0.00  0.00    +0.234 C 
ATOM     18  O   UNL A   1     -30.904 -11.176  35.642  0.00  0.00    -0.283 OA
ENDBRANCH   9  17
ENDBRANCH   6   9
ENDBRANCH   2   3
BRANCH   1  20
ATOM     19  C   UNL A   1     -31.539 -14.024  26.173  0.00  0.00    +0.080 C 
ATOM     20  C   UNL A   1     -31.285 -14.998  27.285  0.00  0.00    +0.017 C 
BRANCH  19  21
ATOM     21  N   UNL A   1     -30.395 -13.507  25.583  0.00  0.00    -0.236 NA
BRANCH  21  22
ATOM     22  C   UNL A   1     -30.207 -12.167  25.555  0.00  0.00    +0.117 C 
BRANCH  22  23
ATOM     23  C   UNL A   1     -30.382 -11.362  26.545  0.00  0.00    +0.049 C 
BRANCH  23  25
ATOM     24  C   UNL A   1     -29.992 -10.870  28.875  0.00  0.00    -0.026 C 
ATOM     25  C   UNL A   1     -29.650 -11.480  27.818  0.00  0.00    -0.029 C 
ATOM     26  C   UNL A   1     -31.458 -10.843  28.706  0.00  0.00    +0.031 C 
BRANCH  24  30
ATOM     27  C   UNL A   1     -29.107 -10.626  32.612  0.00  0.00    +0.007 A 
ATOM     28  C   UNL A   1     -28.246 -11.232  32.560  0.00  0.00    +0.080 A 
ATOM     29  C   UNL A   1     -29.811 -10.383  31.295  0.00  0.00    -0.000 A 
ATOM     30  C   UNL A   1     -29.379 -11.072  30.143  0.00  0.00    -0.004 A 
ATOM     31  C   UNL A   1     -27.617 -12.079  31.522  0.00  0.00    +0.007 A 
ATOM     32  C   UNL A   1     -28.242 -11.887  30.298  0.00  0.00    -0.000 A 
BRANCH  28  33
ATOM     33  C   UNL A   1     -27.501 -11.493  33.982  0.00  0.00    +0.388 C 
ATOM     34  O   UNL A   1     -27.176 -10.811  34.658  0.00  0.00    -0.241 OA
ATOM     35  O   UNL A   1     -26.868 -12.728  34.114  0.00  0.00    -0.241 OA
ENDBRANCH  28  33
ENDBRANCH  24  30
ENDBRANCH  23  25
ENDBRANCH  22  23
ENDBRANCH  21  22
ENDBRANCH  19  21
ENDBRANCH   1  20
TORSDOF 11
ENDMDL
ENDMDL
