REMARK  Name = outputs/IAG933/test6/raw/output_1507_IAG933_linker_design_.xyz
REMARK  11 active torsions:
REMARK  status: ('A' for Active; 'I' for Inactive)
REMARK    1  A    between atoms: C_1  and  C_2
REMARK    2  A    between atoms: C_1  and  C_8
REMARK    3  A    between atoms: C_1  and  C_44
REMARK    4  A    between atoms: C_13  and  C_42
REMARK    5  A    between atoms: C_14  and  C_15
REMARK    6  A    between atoms: C_21  and  O_22
REMARK    7  A    between atoms: O_22  and  C_23
REMARK    8  A    between atoms: C_23  and  C_24
REMARK    9  A    between atoms: N_35  and  C_39
REMARK   10  A    between atoms: C_37  and  C_38
REMARK   11  A    between atoms: C_39  and  C_40
REMARK                            x       y       z     vdW  Elec       q    Type
REMARK                         _______ _______ _______ _____ _____    ______ ____
ROOT
ATOM      1  C   UNL A   1     -21.672   0.327  28.770  0.00  0.00    +0.188 C 
ATOM      2  C   UNL A   1     -23.482   2.568  25.607  0.00  0.00    +0.234 C 
ATOM      3  C   UNL A   1     -21.452   2.065  26.831  0.00  0.00    +0.285 C 
ATOM      4  O   UNL A   1     -24.414  -0.022  28.045  0.00  0.00    -0.479 OA
ATOM      5  C   UNL A   1     -23.621   0.858  27.358  0.00  0.00    +0.138 C 
ATOM      6  O   UNL A   1     -21.982   2.701  25.787  0.00  0.00    -0.449 OA
ATOM      7  C   UNL A   1     -22.236   1.036  27.547  0.00  0.00    +0.105 C 
ATOM      8  C   UNL A   1     -22.825   0.540  29.645  0.00  0.00    +0.097 C 
ATOM      9  F   UNL A   1     -20.426   2.521  27.365  0.00  0.00    -0.163 F 
ATOM     10  C   UNL A   1     -24.214   1.681  26.501  0.00  0.00    +0.040 C 
ATOM     11  C   UNL A   1     -23.930  -0.137  29.332  0.00  0.00    +0.175 C 
ATOM     12  O   UNL A   1     -20.365   0.327  28.594  0.00  0.00    -0.218 OA
ENDROOT
BRANCH  10  13
ATOM     13  C   UNL A   1     -25.688   1.614  26.461  0.00  0.00    +0.095 C 
ATOM     14  C   UNL A   1     -26.250   2.920  26.395  0.00  0.00    +0.059 C 
ATOM     15  C   UNL A   1     -27.438   3.091  25.645  0.00  0.00    +0.102 C 
ATOM     16  N   UNL A   1     -28.075   2.089  25.003  0.00  0.00    -0.212 NA
ATOM     17  C   UNL A   1     -27.543   0.849  25.079  0.00  0.00    +0.234 C 
ATOM     18  C   UNL A   1     -26.354   0.576  25.777  0.00  0.00    +0.244 C 
ATOM     19  F   UNL A   1     -25.860  -0.681  25.795  0.00  0.00    -0.227 F 
BRANCH  14  20
ATOM     20  C   UNL A   1     -25.642   4.093  27.123  0.00  0.00    +0.263 C 
ATOM     21  N   UNL A   1     -25.614   5.252  26.449  0.00  0.00    -0.200 NA
ATOM     22  C   UNL A   1     -25.026   6.479  26.963  0.00  0.00    +0.139 C 
ATOM     23  O   UNL A   1     -25.143   3.966  28.243  0.00  0.00    -0.269 OA
ENDBRANCH  14  20
BRANCH  17  24
ATOM     24  O   UNL A   1     -28.193  -0.208  24.477  0.00  0.00    -0.459 OA
BRANCH  24  25
ATOM     25  C   UNL A   1     -29.460   0.005  23.866  0.00  0.00    +0.242 C 
BRANCH  25  26
ATOM     26  C   UNL A   1     -30.065  -1.377  23.573  0.00  0.00    +0.229 C 
ATOM     27  O   UNL A   1     -30.729  -1.878  24.721  0.00  0.00    -0.216 OA
ENDBRANCH  25  26
ENDBRANCH  24  25
ENDBRANCH  17  24
ENDBRANCH  10  13
BRANCH  11  28
ATOM     28  C   UNL A   1     -24.855  -1.012  30.143  0.00  0.00    +0.078 C 
BRANCH  28  29
ATOM     29  C   UNL A   1     -24.973  -2.505  29.788  0.00  0.00    -0.018 C 
ATOM     30  C   UNL A   1     -23.906  -3.173  29.146  0.00  0.00    -0.004 C 
ATOM     31  C   UNL A   1     -23.989  -4.549  28.853  0.00  0.00    -0.000 C 
ATOM     32  C   UNL A   1     -25.137  -5.280  29.205  0.00  0.00    -0.000 C 
ATOM     33  C   UNL A   1     -26.232  -4.611  29.784  0.00  0.00    -0.000 C 
ATOM     34  C   UNL A   1     -26.155  -3.232  30.065  0.00  0.00    -0.004 C 
ENDBRANCH  28  29
BRANCH  28  35
ATOM     35  C   UNL A   1     -25.387  -0.679  31.571  0.00  0.00    +0.080 C 
ATOM     36  C   UNL A   1     -25.189   0.773  32.028  0.00  0.00    +0.019 C 
ATOM     37  C   UNL A   1     -25.336   0.684  33.544  0.00  0.00    +0.020 C 
ATOM     38  C   UNL A   1     -24.829  -0.715  33.905  0.00  0.00    +0.089 C 
ATOM     39  N   UNL A   1     -24.758  -1.481  32.646  0.00  0.00    -0.219 NA
ENDBRANCH  28  35
ENDBRANCH  11  28
BRANCH   8  40
ATOM     40  C   UNL A   1     -23.181   2.002  30.061  0.00  0.00    +0.122 C 
BRANCH  40  41
ATOM     41  N   UNL A   1     -24.550   2.513  29.826  0.00  0.00    -0.205 NA
ATOM     42  C   UNL A   1     -24.932   3.650  30.605  0.00  0.00    +0.241 C 
ATOM     43  O   UNL A   1     -24.509   3.518  31.827  0.00  0.00    -0.273 OA
BRANCH  42  45
ATOM     44  C   UNL A   1     -25.494   6.122  31.335  0.00  0.00    +0.010 C 
ATOM     45  C   UNL A   1     -25.791   4.934  30.409  0.00  0.00    +0.087 C 
ENDBRANCH  42  45
ENDBRANCH  40  41
ENDBRANCH   8  40
TORSDOF 11
