REMARK  Name = No_1508-gen_results/8p0m/2024-11-27-11-27-31/
REMARK  6 active torsions:
REMARK  status: ('A' for Active; 'I' for Inactive)
REMARK    1  A    between atoms: C_2  and  C_12
REMARK    2  A    between atoms: C_12  and  O_14
REMARK    3  A    between atoms: O_14  and  C_15
REMARK    4  A    between atoms: C_16  and  C_17
REMARK    5  A    between atoms: C_21  and  C_23
REMARK    6  A    between atoms: C_23  and  C_25
REMARK                            x       y       z     vdW  Elec       q    Type
REMARK                         _______ _______ _______ _____ _____    ______ ____
ROOT
ATOM      1  C   UNL A   1     -30.099  -0.854  29.832  0.00  0.00    +0.346 C 
ATOM      2  O   UNL A   1     -30.784  -1.655  30.290  0.00  0.00    -0.244 OA
ENDROOT
BRANCH   1   4
ATOM      3  C   UNL A   1     -28.016  -0.814  28.878  0.00  0.00    +0.013 A 
ATOM      4  C   UNL A   1     -28.469  -0.785  29.829  0.00  0.00    +0.076 A 
ATOM      5  C   UNL A   1     -26.504  -0.778  28.877  0.00  0.00    +0.035 A 
ATOM      6  C   UNL A   1     -25.810  -0.853  30.103  0.00  0.00    +0.006 A 
ATOM      7  C   UNL A   1     -27.991  -0.892  31.226  0.00  0.00    +0.006 A 
ATOM      8  C   UNL A   1     -26.604  -0.868  31.265  0.00  0.00    +0.001 A 
ATOM      9  C   UNL A   1     -24.389  -0.805  30.164  0.00  0.00    +0.001 A 
ATOM     10  C   UNL A   1     -23.766  -0.950  31.068  0.00  0.00    +0.000 A 
ATOM     11  C   UNL A   1     -24.487  -1.029  32.385  0.00  0.00    +0.000 A 
ATOM     12  C   UNL A   1     -25.837  -0.926  32.468  0.00  0.00    +0.000 A 
ATOM     13 BR   UNL A   1     -25.507  -0.683  27.273  0.00  0.00    -0.049 Br
ENDBRANCH   1   4
BRANCH   1  14
ATOM     14  O   UNL A   1     -30.600   0.338  29.497  0.00  0.00    -0.418 OA
BRANCH  14  15
ATOM     15  C   UNL A   1     -31.677   0.623  29.167  0.00  0.00    +0.183 C 
ATOM     16  C   UNL A   1     -31.841   1.881  28.533  0.00  0.00    +0.041 C 
BRANCH  16  17
ATOM     17  C   UNL A   1     -30.949   2.794  28.659  0.00  0.00    +0.003 A 
ATOM     18  C   UNL A   1     -30.995   4.059  28.008  0.00  0.00    +0.000 A 
ATOM     19  C   UNL A   1     -29.988   5.098  28.120  0.00  0.00    -0.000 A 
ATOM     20  C   UNL A   1     -28.813   4.819  28.839  0.00  0.00    -0.004 A 
ATOM     21  C   UNL A   1     -28.728   3.546  29.494  0.00  0.00    -0.015 A 
ATOM     22  C   UNL A   1     -29.721   2.641  29.380  0.00  0.00    -0.004 A 
BRANCH  21  23
ATOM     23  C   UNL A   1     -27.480   3.311  30.280  0.00  0.00    +0.087 C 
ATOM     24  C   UNL A   1     -27.569   2.703  31.463  0.00  0.00    +0.013 C 
BRANCH  23  25
ATOM     25  C   UNL A   1     -26.266   3.680  29.649  0.00  0.00    +0.211 C 
ATOM     26  O   UNL A   1     -26.086   4.050  28.612  0.00  0.00    -0.288 OA
ENDBRANCH  23  25
ENDBRANCH  21  23
ENDBRANCH  16  17
ENDBRANCH  14  15
ENDBRANCH   1  14
TORSDOF 6
