REMARK  Name = No_1509-gen_results/8p0m/2024-11-27-11-27-31/
REMARK  5 active torsions:
REMARK  status: ('A' for Active; 'I' for Inactive)
REMARK    1  A    between atoms: C_3  and  C_7
REMARK    2  A    between atoms: C_6  and  C_11
REMARK    3  A    between atoms: C_11  and  N_12
REMARK    4  A    between atoms: N_12  and  C_13
REMARK    5  A    between atoms: C_14  and  C_15
REMARK                            x       y       z     vdW  Elec       q    Type
REMARK                         _______ _______ _______ _____ _____    ______ ____
ROOT
ATOM      1  C   UNL A   1     -28.016  -0.814  28.878  0.00  0.00    -0.003 A 
ATOM      2  C   UNL A   1     -27.064  -0.119  28.608  0.00  0.00    +0.004 A 
ATOM      3  C   UNL A   1     -25.765  -0.390  29.036  0.00  0.00    +0.071 A 
ATOM      4  C   UNL A   1     -25.530  -1.530  29.901  0.00  0.00    +0.004 A 
ATOM      5  C   UNL A   1     -26.658  -2.292  30.203  0.00  0.00    -0.003 A 
ATOM      6  C   UNL A   1     -27.855  -1.956  29.763  0.00  0.00    -0.001 A 
ENDROOT
BRANCH   3   7
ATOM      7  C   UNL A   1     -24.544   0.413  28.738  0.00  0.00    +0.419 C 
ATOM      8  F   UNL A   1     -24.530   0.905  27.611  0.00  0.00    -0.166 F 
ATOM      9  F   UNL A   1     -23.384  -0.381  28.836  0.00  0.00    -0.166 F 
ATOM     10  F   UNL A   1     -24.359   1.393  29.662  0.00  0.00    -0.166 F 
ENDBRANCH   3   7
BRANCH   6  11
ATOM     11  C   UNL A   1     -29.033  -2.772  30.195  0.00  0.00    +0.139 C 
BRANCH  11  12
ATOM     12  N   UNL A   1     -29.301  -2.845  31.454  0.00  0.00    -0.232 NA
BRANCH  12  13
ATOM     13  C   UNL A   1     -29.489  -1.892  32.157  0.00  0.00    +0.080 C 
ATOM     14  C   UNL A   1     -29.538  -0.647  31.736  0.00  0.00    +0.017 C 
BRANCH  14  15
ATOM     15  C   UNL A   1     -30.299  -0.271  30.817  0.00  0.00    -0.003 C 
ATOM     16  C   UNL A   1     -30.460   1.114  30.431  0.00  0.00    -0.026 C 
ATOM     17  C   UNL A   1     -29.672   2.065  31.113  0.00  0.00    +0.031 C 
ENDBRANCH  14  15
ENDBRANCH  12  13
ENDBRANCH  11  12
ENDBRANCH   6  11
TORSDOF 5
