MODEL 1510
MODEL 1
REMARK VINA RESULT:    -8.324      0.000      0.000
REMARK INTER + INTRA:         -13.834
REMARK INTER:                 -10.756
REMARK INTRA:                  -3.078
REMARK UNBOUND:                -3.078
REMARK  Name = No_1510-gen_results/8p0m/2024-11-27-11-27-31/
REMARK  5 active torsions:
REMARK  status: ('A' for Active; 'I' for Inactive)
REMARK    1  A    between atoms: C_7  and  C_15
REMARK    2  A    between atoms: C_15  and  C_16
REMARK    3  A    between atoms: C_16  and  C_18
REMARK    4  A    between atoms: C_16  and  C_24
REMARK    5  A    between atoms: C_25  and  C_26
REMARK                            x       y       z     vdW  Elec       q    Type
REMARK                         _______ _______ _______ _____ _____    ______ ____
ROOT
ATOM      1  C   UNL A   1     -22.774   1.625  28.478  0.00  0.00    -0.000 A 
ATOM      2  C   UNL A   1     -23.122   0.841  29.330  0.00  0.00    -0.004 A 
ATOM      3  C   UNL A   1     -22.346  -0.269  29.646  0.00  0.00    -0.000 A 
ATOM      4  C   UNL A   1     -21.123  -0.544  28.936  0.00  0.00    -0.000 A 
ATOM      5  C   UNL A   1     -20.807   0.401  27.952  0.00  0.00    -0.000 A 
ATOM      6  C   UNL A   1     -21.584   1.425  27.680  0.00  0.00    -0.000 A 
ATOM      7  C   UNL A   1     -24.364   0.951  30.141  0.00  0.00    -0.022 A 
ATOM      8  C   UNL A   1     -24.457   0.520  31.350  0.00  0.00    -0.004 A 
ATOM      9  C   UNL A   1     -25.595   0.602  32.186  0.00  0.00    -0.000 A 
ATOM     10  C   UNL A   1     -25.744  -0.135  33.402  0.00  0.00    -0.000 A 
ATOM     11  C   UNL A   1     -24.635  -0.931  33.823  0.00  0.00    -0.000 A 
ATOM     12  C   UNL A   1     -23.507  -1.042  32.992  0.00  0.00    -0.000 A 
ATOM     13  C   UNL A   1     -23.397  -0.391  31.821  0.00  0.00    -0.000 A 
ATOM     14  C   UNL A   1     -22.302  -0.700  30.932  0.00  0.00    -0.000 A 
ENDROOT
BRANCH   7  15
ATOM     15  C   UNL A   1     -25.483   1.025  29.290  0.00  0.00    +0.030 C 
ATOM     16  C   UNL A   1     -26.107   2.390  29.289  0.00  0.00    +0.005 C 
BRANCH  15  17
ATOM     17  C   UNL A   1     -26.075   0.104  28.467  0.00  0.00    +0.048 C 
BRANCH  17  18
ATOM     18  C   UNL A   1     -26.295   0.148  27.367  0.00  0.00    -0.018 A 
ATOM     19  C   UNL A   1     -25.338  -0.090  26.305  0.00  0.00    -0.004 A 
ATOM     20  C   UNL A   1     -25.596   0.091  24.926  0.00  0.00    -0.000 A 
ATOM     21  C   UNL A   1     -26.887   0.268  24.510  0.00  0.00    -0.000 A 
ATOM     22  C   UNL A   1     -27.904   0.434  25.418  0.00  0.00    -0.000 A 
ATOM     23  C   UNL A   1     -27.642   0.344  26.780  0.00  0.00    -0.004 A 
ENDBRANCH  17  18
BRANCH  17  24
ATOM     24  C   UNL A   1     -26.568  -1.138  29.225  0.00  0.00    -0.022 C 
ATOM     25  C   UNL A   1     -25.668  -2.237  29.288  0.00  0.00    -0.005 C 
BRANCH  25  26
ATOM     26  C   UNL A   1     -26.352  -3.439  29.660  0.00  0.00    -0.005 C 
ATOM     27  C   UNL A   1     -25.831  -4.673  29.442  0.00  0.00    -0.026 C 
ATOM     28  C   UNL A   1     -24.544  -4.894  29.021  0.00  0.00    +0.031 C 
ENDBRANCH  25  26
ENDBRANCH  17  24
ENDBRANCH  15  17
ENDBRANCH   7  15
TORSDOF 5
ENDMDL
ENDMDL
