REMARK  Name = outputs/IAG933/test6/raw/output_1511_IAG933_linker_design_.xyz
REMARK  12 active torsions:
REMARK  status: ('A' for Active; 'I' for Inactive)
REMARK    1  A    between atoms: C_1  and  C_2
REMARK    2  A    between atoms: C_1  and  C_8
REMARK    3  A    between atoms: C_1  and  N_29
REMARK    4  A    between atoms: C_13  and  C_28
REMARK    5  A    between atoms: C_14  and  C_15
REMARK    6  A    between atoms: C_21  and  O_22
REMARK    7  A    between atoms: O_22  and  C_23
REMARK    8  A    between atoms: C_23  and  C_24
REMARK    9  A    between atoms: C_28  and  C_37
REMARK   10  A    between atoms: C_28  and  C_38
REMARK   11  A    between atoms: N_29  and  C_38
REMARK   12  A    between atoms: C_40  and  C_41
REMARK                            x       y       z     vdW  Elec       q    Type
REMARK                         _______ _______ _______ _____ _____    ______ ____
ROOT
ATOM      1  N   UNL A   1     -25.182   0.004  29.118  0.00  0.00    -0.272 N 
ATOM      2  O   UNL A   1     -27.409  -0.345  28.908  0.00  0.00    -0.270 OA
ATOM      3  C   UNL A   1     -26.602   0.364  29.305  0.00  0.00    +0.249 C 
ENDROOT
BRANCH   3   9
ATOM      4  C   UNL A   1     -27.422   4.530  30.397  0.00  0.00    +0.000 C 
ATOM      5  C   UNL A   1     -27.114   3.772  31.527  0.00  0.00    +0.000 C 
ATOM      6  C   UNL A   1     -27.848   2.547  29.088  0.00  0.00    +0.004 C 
ATOM      7  C   UNL A   1     -27.861   3.935  29.207  0.00  0.00    +0.000 C 
ATOM      8  C   UNL A   1     -27.168   2.377  31.436  0.00  0.00    +0.004 C 
ATOM      9  C   UNL A   1     -27.307   1.768  30.045  0.00  0.00    +0.054 C 
ENDBRANCH   3   9
BRANCH   1  10
ATOM     10  C   UNL A   1     -24.855  -1.012  30.143  0.00  0.00    +0.114 C 
BRANCH  10  11
ATOM     11  C   UNL A   1     -24.973  -2.505  29.788  0.00  0.00    -0.003 C 
ATOM     12  C   UNL A   1     -23.906  -3.173  29.146  0.00  0.00    -0.003 C 
ATOM     13  C   UNL A   1     -23.989  -4.549  28.853  0.00  0.00    -0.000 C 
ATOM     14  C   UNL A   1     -25.137  -5.280  29.205  0.00  0.00    -0.000 C 
ATOM     15  C   UNL A   1     -26.232  -4.611  29.784  0.00  0.00    -0.000 C 
ATOM     16  C   UNL A   1     -26.155  -3.232  30.065  0.00  0.00    -0.003 C 
ENDBRANCH  10  11
BRANCH  10  17
ATOM     17  C   UNL A   1     -25.387  -0.679  31.571  0.00  0.00    +0.095 C 
ATOM     18  C   UNL A   1     -25.189   0.773  32.028  0.00  0.00    +0.021 C 
ATOM     19  C   UNL A   1     -25.336   0.684  33.544  0.00  0.00    +0.020 C 
ATOM     20  C   UNL A   1     -24.829  -0.715  33.905  0.00  0.00    +0.089 C 
ATOM     21  N   UNL A   1     -24.758  -1.481  32.646  0.00  0.00    -0.217 NA
ENDBRANCH  10  17
ENDBRANCH   1  10
BRANCH   1  22
ATOM     22  C   UNL A   1     -24.226   1.013  28.637  0.00  0.00    +0.098 C 
BRANCH  22  23
ATOM     23  C   UNL A   1     -24.369   1.232  27.218  0.00  0.00    +0.045 C 
BRANCH  23  24
ATOM     24  C   UNL A   1     -25.688   1.614  26.461  0.00  0.00    +0.017 C 
ATOM     25  C   UNL A   1     -26.250   2.920  26.395  0.00  0.00    +0.073 C 
ATOM     26  C   UNL A   1     -27.438   3.091  25.645  0.00  0.00    +0.106 C 
ATOM     27  N   UNL A   1     -28.075   2.089  25.003  0.00  0.00    -0.208 NA
ATOM     28  C   UNL A   1     -27.543   0.849  25.079  0.00  0.00    +0.253 C 
ATOM     29  C   UNL A   1     -26.354   0.576  25.777  0.00  0.00    +0.189 C 
ATOM     30  F   UNL A   1     -25.860  -0.681  25.795  0.00  0.00    -0.200 F 
BRANCH  25  31
ATOM     31  C   UNL A   1     -25.642   4.093  27.123  0.00  0.00    +0.266 C 
ATOM     32  N   UNL A   1     -25.614   5.252  26.449  0.00  0.00    -0.200 NA
ATOM     33  C   UNL A   1     -25.026   6.479  26.963  0.00  0.00    +0.139 C 
ATOM     34  O   UNL A   1     -25.143   3.966  28.243  0.00  0.00    -0.268 OA
ENDBRANCH  25  31
BRANCH  28  35
ATOM     35  O   UNL A   1     -28.193  -0.208  24.477  0.00  0.00    -0.456 OA
BRANCH  35  36
ATOM     36  C   UNL A   1     -29.460   0.005  23.866  0.00  0.00    +0.243 C 
BRANCH  36  37
ATOM     37  C   UNL A   1     -30.065  -1.377  23.573  0.00  0.00    +0.229 C 
ATOM     38  O   UNL A   1     -30.729  -1.878  24.721  0.00  0.00    -0.216 OA
ENDBRANCH  36  37
ENDBRANCH  35  36
ENDBRANCH  28  35
ENDBRANCH  23  24
BRANCH  23  41
ATOM     39  C   UNL A   1     -22.843   2.205  25.502  0.00  0.00    +0.000 C 
ATOM     40  C   UNL A   1     -21.901   1.424  27.624  0.00  0.00    +0.000 C 
ATOM     41  C   UNL A   1     -23.084   1.196  26.627  0.00  0.00    +0.006 C 
ENDBRANCH  23  41
ENDBRANCH  22  23
ENDBRANCH   1  22
TORSDOF 12
