MODEL 1512
MODEL 1
REMARK VINA RESULT:    -6.464      0.000      0.000
REMARK INTER + INTRA:          -6.673
REMARK INTER:                  -6.842
REMARK INTRA:                   0.169
REMARK UNBOUND:                 0.169
REMARK  Name = No_1512-gen_results/8p0m/2024-11-27-11-27-31/
REMARK  1 active torsions:
REMARK  status: ('A' for Active; 'I' for Inactive)
REMARK    1  A    between atoms: C_2  and  C_7
REMARK                            x       y       z     vdW  Elec       q    Type
REMARK                         _______ _______ _______ _____ _____    ______ ____
ROOT
ATOM      1  C   UNL A   1     -23.529  -1.354  29.697  0.00  0.00    +0.249 C 
ATOM      2  O   UNL A   1     -23.035  -1.016  30.697  0.00  0.00    -0.270 OA
ATOM      3  N   UNL A   1     -23.420  -0.608  28.532  0.00  0.00    -0.276 N 
ATOM      4  C   UNL A   1     -22.636   0.567  28.553  0.00  0.00    +0.094 C 
ATOM      5  C   UNL A   1     -24.605  -0.511  27.717  0.00  0.00    +0.094 C 
ATOM      6  C   UNL A   1     -24.636   0.530  26.877  0.00  0.00    +0.022 C 
ATOM      7  C   UNL A   1     -22.644   1.450  27.479  0.00  0.00    +0.022 C 
ATOM      8  C   UNL A   1     -23.687   1.407  26.618  0.00  0.00    +0.004 C 
ENDROOT
BRANCH   1  10
ATOM      9  C   UNL A   1     -25.572  -2.465  30.094  0.00  0.00    +0.004 A 
ATOM     10  C   UNL A   1     -24.638  -2.536  29.611  0.00  0.00    +0.054 A 
ATOM     11  C   UNL A   1     -26.461  -3.682  29.971  0.00  0.00    +0.000 A 
ATOM     12  C   UNL A   1     -25.952  -4.851  29.366  0.00  0.00    +0.000 A 
ATOM     13  C   UNL A   1     -23.869  -3.620  28.960  0.00  0.00    +0.004 A 
ATOM     14  C   UNL A   1     -24.652  -4.759  28.834  0.00  0.00    +0.000 A 
ENDBRANCH   1  10
TORSDOF 1
ENDMDL
ENDMDL
