REMARK  Name = outputs/IAG933/test6/raw/output_1513_IAG933_linker_design_.xyz
REMARK  13 active torsions:
REMARK  status: ('A' for Active; 'I' for Inactive)
REMARK    1  A    between atoms: C_1  and  C_2
REMARK    2  A    between atoms: C_1  and  C_8
REMARK    3  A    between atoms: C_1  and  N_42
REMARK    4  A    between atoms: C_13  and  C_29
REMARK    5  A    between atoms: C_14  and  C_15
REMARK    6  A    between atoms: C_21  and  O_22
REMARK    7  A    between atoms: O_22  and  C_23
REMARK    8  A    between atoms: C_23  and  C_24
REMARK    9  A    between atoms: C_30  and  O_39
REMARK   10  A    between atoms: C_30  and  C_44
REMARK   11  A    between atoms: O_39  and  C_46
REMARK   12  A    between atoms: C_40  and  N_42
REMARK   13  A    between atoms: N_42  and  C_44
REMARK                            x       y       z     vdW  Elec       q    Type
REMARK                         _______ _______ _______ _____ _____    ______ ____
ROOT
ATOM      1  N   UNL A   1     -24.663  -0.175  28.911  0.00  0.00    -0.268 NA
ENDROOT
BRANCH   1   6
ATOM      2  C   UNL A   1     -24.352   1.343  27.020  0.00  0.00    +0.040 C 
ATOM      3  C   UNL A   1     -21.717   1.825  27.775  0.00  0.00    +0.001 C 
ATOM      4  C   UNL A   1     -22.476   0.861  28.678  0.00  0.00    +0.016 C 
ATOM      5  C   UNL A   1     -23.308   1.474  25.835  0.00  0.00    +0.006 C 
ATOM      6  C   UNL A   1     -23.686   0.318  27.933  0.00  0.00    +0.062 C 
ATOM      7  C   UNL A   1     -21.870   1.424  26.360  0.00  0.00    +0.000 C 
BRANCH   2   8
ATOM      8  C   UNL A   1     -25.688   1.614  26.461  0.00  0.00    +0.017 C 
ATOM      9  C   UNL A   1     -26.250   2.920  26.395  0.00  0.00    +0.073 C 
ATOM     10  C   UNL A   1     -27.438   3.091  25.645  0.00  0.00    +0.106 C 
ATOM     11  N   UNL A   1     -28.075   2.089  25.003  0.00  0.00    -0.208 NA
ATOM     12  C   UNL A   1     -27.543   0.849  25.079  0.00  0.00    +0.253 C 
ATOM     13  C   UNL A   1     -26.354   0.576  25.777  0.00  0.00    +0.189 C 
ATOM     14  F   UNL A   1     -25.860  -0.681  25.795  0.00  0.00    -0.200 F 
BRANCH   9  15
ATOM     15  C   UNL A   1     -25.642   4.093  27.123  0.00  0.00    +0.266 C 
ATOM     16  N   UNL A   1     -25.614   5.252  26.449  0.00  0.00    -0.200 NA
ATOM     17  C   UNL A   1     -25.026   6.479  26.963  0.00  0.00    +0.139 C 
ATOM     18  O   UNL A   1     -25.143   3.966  28.243  0.00  0.00    -0.268 OA
ENDBRANCH   9  15
BRANCH  12  19
ATOM     19  O   UNL A   1     -28.193  -0.208  24.477  0.00  0.00    -0.456 OA
BRANCH  19  20
ATOM     20  C   UNL A   1     -29.460   0.005  23.866  0.00  0.00    +0.243 C 
BRANCH  20  21
ATOM     21  C   UNL A   1     -30.065  -1.377  23.573  0.00  0.00    +0.229 C 
ATOM     22  O   UNL A   1     -30.729  -1.878  24.721  0.00  0.00    -0.216 OA
ENDBRANCH  20  21
ENDBRANCH  19  20
ENDBRANCH  12  19
ENDBRANCH   2   8
ENDBRANCH   1   6
BRANCH   1  23
ATOM     23  C   UNL A   1     -24.855  -1.012  30.143  0.00  0.00    +0.096 C 
BRANCH  23  24
ATOM     24  C   UNL A   1     -24.973  -2.505  29.788  0.00  0.00    -0.006 C 
ATOM     25  C   UNL A   1     -23.906  -3.173  29.146  0.00  0.00    -0.003 C 
ATOM     26  C   UNL A   1     -23.989  -4.549  28.853  0.00  0.00    -0.000 C 
ATOM     27  C   UNL A   1     -25.137  -5.280  29.205  0.00  0.00    -0.000 C 
ATOM     28  C   UNL A   1     -26.232  -4.611  29.784  0.00  0.00    -0.000 C 
ATOM     29  C   UNL A   1     -26.155  -3.232  30.065  0.00  0.00    -0.003 C 
ENDBRANCH  23  24
BRANCH  23  30
ATOM     30  C   UNL A   1     -25.387  -0.679  31.571  0.00  0.00    +0.092 C 
ATOM     31  C   UNL A   1     -25.189   0.773  32.028  0.00  0.00    +0.021 C 
ATOM     32  C   UNL A   1     -25.336   0.684  33.544  0.00  0.00    +0.020 C 
ATOM     33  C   UNL A   1     -24.829  -0.715  33.905  0.00  0.00    +0.089 C 
ATOM     34  N   UNL A   1     -24.758  -1.481  32.646  0.00  0.00    -0.218 NA
ENDBRANCH  23  30
ENDBRANCH   1  23
BRANCH   1  35
ATOM     35  C   UNL A   1     -25.605   1.068  28.932  0.00  0.00    +0.105 C 
BRANCH  35  36
ATOM     36  C   UNL A   1     -26.805   1.374  29.090  0.00  0.00    +0.160 C 
BRANCH  36  37
ATOM     37  O   UNL A   1     -27.422   0.146  29.283  0.00  0.00    -0.345 OA
BRANCH  37  46
ATOM     38  N   UNL A   1     -30.763   0.363  31.024  0.00  0.00    -0.251 N 
ATOM     39  C   UNL A   1     -30.261  -1.682  29.811  0.00  0.00    +0.191 C 
ATOM     40  O   UNL A   1     -28.676   1.264  31.634  0.00  0.00    -0.272 OA
ATOM     41  C   UNL A   1     -31.040  -0.950  30.814  0.00  0.00    +0.106 C 
ATOM     42  C   UNL A   1     -31.940   1.174  31.433  0.00  0.00    +0.120 C 
ATOM     43  O   UNL A   1     -30.289  -2.998  29.803  0.00  0.00    -0.290 OA
ATOM     44  C   UNL A   1     -29.388  -1.040  28.924  0.00  0.00    +0.110 C 
ATOM     45  C   UNL A   1     -29.377   0.754  30.693  0.00  0.00    +0.257 C 
ATOM     46  C   UNL A   1     -28.839   0.211  29.412  0.00  0.00    +0.199 C 
ENDBRANCH  37  46
ENDBRANCH  36  37
ENDBRANCH  35  36
ENDBRANCH   1  35
TORSDOF 13
