MODEL 1513
MODEL 1
REMARK VINA RESULT:    -4.828      0.000      0.000
REMARK INTER + INTRA:          -5.183
REMARK INTER:                  -5.110
REMARK INTRA:                  -0.073
REMARK UNBOUND:                -0.073
REMARK  Name = No_1513-gen_results/8p0m/2024-11-27-11-27-31/
REMARK  1 active torsions:
REMARK  status: ('A' for Active; 'I' for Inactive)
REMARK    1  A    between atoms: C_5  and  C_7
REMARK                            x       y       z     vdW  Elec       q    Type
REMARK                         _______ _______ _______ _____ _____    ______ ____
ROOT
ATOM      1  C   UNL A   1     -21.337   0.274  28.538  0.00  0.00    +0.029 A 
ATOM      2  C   UNL A   1     -22.035   1.038  27.911  0.00  0.00    +0.140 A 
ATOM      3  C   UNL A   1     -23.368   0.829  27.602  0.00  0.00    +0.029 A 
ATOM      4  C   UNL A   1     -23.967  -0.369  28.091  0.00  0.00    +0.002 A 
ATOM      5  C   UNL A   1     -23.205  -1.122  28.910  0.00  0.00    +0.023 A 
ATOM      6  C   UNL A   1     -21.951  -0.782  29.215  0.00  0.00    +0.002 A 
ATOM      7  F   UNL A   1     -21.492   2.221  27.308  0.00  0.00    -0.204 F 
ENDROOT
BRANCH   5   8
ATOM      8  C   UNL A   1     -23.872  -2.330  29.436  0.00  0.00    +0.253 C 
ATOM      9 CL   UNL A   1     -24.047  -3.471  28.910  0.00  0.00    -0.074 Cl
ATOM     10  O   UNL A   1     -24.449  -2.057  30.692  0.00  0.00    -0.200 OA
ENDBRANCH   5   8
TORSDOF 1
ENDMDL
ENDMDL
