REMARK  Name = outputs/IAG933/test6/raw/output_1514_IAG933_linker_design_.xyz
REMARK  12 active torsions:
REMARK  status: ('A' for Active; 'I' for Inactive)
REMARK    1  A    between atoms: C_1  and  C_2
REMARK    2  A    between atoms: C_1  and  C_8
REMARK    3  A    between atoms: C_1  and  N_31
REMARK    4  A    between atoms: C_13  and  C_29
REMARK    5  A    between atoms: C_14  and  C_15
REMARK    6  A    between atoms: C_21  and  O_22
REMARK    7  A    between atoms: O_22  and  C_23
REMARK    8  A    between atoms: C_23  and  C_24
REMARK    9  A    between atoms: C_30  and  C_37
REMARK   10  A    between atoms: C_32  and  C_36
REMARK   11  A    between atoms: C_36  and  O_43
REMARK   12  A    between atoms: O_38  and  C_41
REMARK                            x       y       z     vdW  Elec       q    Type
REMARK                         _______ _______ _______ _____ _____    ______ ____
ROOT
ATOM      1  C   UNL A   1     -23.139   0.109  29.066  0.00  0.00    +0.401 C 
ATOM      2  C   UNL A   1     -24.790   1.412  27.375  0.00  0.00    +0.111 C 
ATOM      3  C   UNL A   1     -22.350   1.516  27.449  0.00  0.00    +0.063 C 
ATOM      4  N   UNL A   1     -24.637  -0.013  29.178  0.00  0.00    -0.174 N 
ATOM      5  C   UNL A   1     -25.405   0.789  28.479  0.00  0.00    +0.266 C 
ATOM      6  C   UNL A   1     -22.679   0.593  28.355  0.00  0.00    -0.016 C 
ATOM      7  N   UNL A   1     -22.191  -0.676  29.925  0.00  0.00    +0.219 NA
ATOM      8  C   UNL A   1     -23.527   2.332  26.995  0.00  0.00    +0.194 C 
ENDROOT
BRANCH   2   9
ATOM      9  C   UNL A   1     -25.688   1.614  26.461  0.00  0.00    +0.006 C 
ATOM     10  C   UNL A   1     -26.250   2.920  26.395  0.00  0.00    +0.052 C 
ATOM     11  C   UNL A   1     -27.438   3.091  25.645  0.00  0.00    +0.159 C 
ATOM     12  N   UNL A   1     -28.075   2.089  25.003  0.00  0.00    -0.234 NA
ATOM     13  C   UNL A   1     -27.543   0.849  25.079  0.00  0.00    +0.234 C 
ATOM     14  C   UNL A   1     -26.354   0.576  25.777  0.00  0.00    +0.254 C 
ATOM     15  F   UNL A   1     -25.860  -0.681  25.795  0.00  0.00    -0.223 F 
BRANCH  10  16
ATOM     16  C   UNL A   1     -25.642   4.093  27.123  0.00  0.00    +0.262 C 
ATOM     17  N   UNL A   1     -25.614   5.252  26.449  0.00  0.00    -0.200 NA
ATOM     18  C   UNL A   1     -25.026   6.479  26.963  0.00  0.00    +0.139 C 
ATOM     19  O   UNL A   1     -25.143   3.966  28.243  0.00  0.00    -0.269 OA
ENDBRANCH  10  16
BRANCH  13  20
ATOM     20  O   UNL A   1     -28.193  -0.208  24.477  0.00  0.00    -0.459 OA
BRANCH  20  21
ATOM     21  C   UNL A   1     -29.460   0.005  23.866  0.00  0.00    +0.242 C 
BRANCH  21  22
ATOM     22  C   UNL A   1     -30.065  -1.377  23.573  0.00  0.00    +0.229 C 
ATOM     23  O   UNL A   1     -30.729  -1.878  24.721  0.00  0.00    -0.216 OA
ENDBRANCH  21  22
ENDBRANCH  20  21
ENDBRANCH  13  20
ENDBRANCH   2   9
BRANCH   3  25
ATOM     24  F   UNL A   1     -20.369   0.189  27.765  0.00  0.00    -0.229 F 
ATOM     25  C   UNL A   1     -20.852   1.515  27.424  0.00  0.00    +0.226 C 
ENDBRANCH   3  25
BRANCH   8  27
ATOM     26  F   UNL A   1     -22.282   2.588  25.288  0.00  0.00    -0.047 F 
ATOM     27  O   UNL A   1     -23.384   3.051  25.986  0.00  0.00    -0.177 OA
ENDBRANCH   8  27
BRANCH   5  28
ATOM     28  C   UNL A   1     -26.889   0.863  28.769  0.00  0.00    +0.361 C 
ATOM     29  O   UNL A   1     -27.604   1.635  29.283  0.00  0.00    -0.246 OA
BRANCH  28  31
ATOM     30  C   UNL A   1     -29.013  -0.115  28.245  0.00  0.00    +0.256 C 
ATOM     31  O   UNL A   1     -27.578  -0.273  28.239  0.00  0.00    -0.442 OA
ENDBRANCH  28  31
ENDBRANCH   5  28
BRANCH   4  32
ATOM     32  C   UNL A   1     -24.855  -1.012  30.143  0.00  0.00    +0.199 C 
BRANCH  32  33
ATOM     33  C   UNL A   1     -24.973  -2.505  29.788  0.00  0.00    +0.021 C 
ATOM     34  C   UNL A   1     -23.906  -3.173  29.146  0.00  0.00    -0.000 C 
ATOM     35  C   UNL A   1     -23.989  -4.549  28.853  0.00  0.00    -0.000 C 
ATOM     36  C   UNL A   1     -25.137  -5.280  29.205  0.00  0.00    -0.000 C 
ATOM     37  C   UNL A   1     -26.232  -4.611  29.784  0.00  0.00    -0.000 C 
ATOM     38  C   UNL A   1     -26.155  -3.232  30.065  0.00  0.00    -0.000 C 
ENDBRANCH  32  33
BRANCH  32  39
ATOM     39  C   UNL A   1     -25.387  -0.679  31.571  0.00  0.00    +0.120 C 
ATOM     40  C   UNL A   1     -25.189   0.773  32.028  0.00  0.00    +0.023 C 
ATOM     41  C   UNL A   1     -25.336   0.684  33.544  0.00  0.00    +0.020 C 
ATOM     42  C   UNL A   1     -24.829  -0.715  33.905  0.00  0.00    +0.089 C 
ATOM     43  N   UNL A   1     -24.758  -1.481  32.646  0.00  0.00    -0.215 NA
ENDBRANCH  32  39
ENDBRANCH   4  32
TORSDOF 12
