MODEL 1515
MODEL 1
REMARK VINA RESULT:    -6.079      0.000      0.000
REMARK INTER + INTRA:          -6.584
REMARK INTER:                  -6.434
REMARK INTRA:                  -0.150
REMARK UNBOUND:                -0.150
REMARK  Name = No_1515-gen_results/8p0m/2024-11-27-11-27-31/
REMARK  1 active torsions:
REMARK  status: ('A' for Active; 'I' for Inactive)
REMARK    1  A    between atoms: C_3  and  C_8
REMARK                            x       y       z     vdW  Elec       q    Type
REMARK                         _______ _______ _______ _____ _____    ______ ____
ROOT
ATOM      1  C   UNL A   1     -23.946   0.365  27.519  0.00  0.00    +0.042 A 
ATOM      2  C   UNL A   1     -24.328  -0.758  27.754  0.00  0.00    +0.003 A 
ATOM      3  C   UNL A   1     -23.960  -1.541  28.728  0.00  0.00    +0.001 A 
ATOM      4  C   UNL A   1     -22.978  -1.056  29.644  0.00  0.00    +0.003 A 
ATOM      5  C   UNL A   1     -23.035   0.969  28.473  0.00  0.00    +0.196 A 
ATOM      6  C   UNL A   1     -22.593   0.229  29.490  0.00  0.00    +0.042 A 
ATOM      7  O   UNL A   1     -22.697   2.270  28.245  0.00  0.00    -0.287 OA
ENDROOT
BRANCH   3   8
ATOM      8  C   UNL A   1     -24.450  -2.975  28.880  0.00  0.00    +0.009 A 
ATOM      9  C   UNL A   1     -24.166  -3.933  28.684  0.00  0.00    +0.021 A 
ATOM     10  C   UNL A   1     -24.821  -5.264  28.884  0.00  0.00    +0.099 A 
ATOM     11  C   UNL A   1     -25.863  -3.006  29.608  0.00  0.00    +0.054 A 
ATOM     12 BR   UNL A   1     -26.812  -1.405  29.923  0.00  0.00    -0.047 Br
ATOM     13  N   UNL A   1     -25.832  -5.228  29.656  0.00  0.00    -0.242 NA
ATOM     14  C   UNL A   1     -26.461  -4.191  29.945  0.00  0.00    +0.105 A 
ENDBRANCH   3   8
TORSDOF 1
ENDMDL
ENDMDL
