REMARK  Name = outputs/IAG933/test6/raw/output_1515_IAG933_linker_design_.xyz
REMARK  14 active torsions:
REMARK  status: ('A' for Active; 'I' for Inactive)
REMARK    1  A    between atoms: C_1  and  C_2
REMARK    2  A    between atoms: C_1  and  C_8
REMARK    3  A    between atoms: C_1  and  N_40
REMARK    4  A    between atoms: C_13  and  C_30
REMARK    5  A    between atoms: C_14  and  C_15
REMARK    6  A    between atoms: C_21  and  O_22
REMARK    7  A    between atoms: O_22  and  C_23
REMARK    8  A    between atoms: C_23  and  C_24
REMARK    9  A    between atoms: C_32  and  C_38
REMARK   10  A    between atoms: C_32  and  N_40
REMARK   11  A    between atoms: C_33  and  N_40
REMARK   12  A    between atoms: C_37  and  C_43
REMARK   13  A    between atoms: C_38  and  C_44
REMARK   14  A    between atoms: C_43  and  C_44
REMARK                            x       y       z     vdW  Elec       q    Type
REMARK                         _______ _______ _______ _____ _____    ______ ____
ROOT
ATOM      1 CL   UNL A   1     -22.895   2.449  25.312  0.00  0.00    -0.080 Cl
ATOM      2  C   UNL A   1     -24.531   1.254  27.178  0.00  0.00    +0.011 C 
ATOM      3  C   UNL A   1     -24.447   0.484  28.366  0.00  0.00    +0.102 C 
ATOM      4  F   UNL A   1     -21.055   1.598  27.770  0.00  0.00    -0.204 F 
ATOM      5  C   UNL A   1     -22.420   0.129  30.075  0.00  0.00    +0.030 C 
ATOM      6  C   UNL A   1     -22.372   1.329  27.791  0.00  0.00    +0.144 C 
ATOM      7  C   UNL A   1     -23.268   1.658  26.806  0.00  0.00    +0.082 C 
ATOM      8  C   UNL A   1     -23.068   0.586  28.779  0.00  0.00    +0.003 C 
ENDROOT
BRANCH   2   9
ATOM      9  C   UNL A   1     -25.688   1.614  26.461  0.00  0.00    +0.037 C 
ATOM     10  C   UNL A   1     -26.250   2.920  26.395  0.00  0.00    +0.076 C 
ATOM     11  C   UNL A   1     -27.438   3.091  25.645  0.00  0.00    +0.107 C 
ATOM     12  N   UNL A   1     -28.075   2.089  25.003  0.00  0.00    -0.208 NA
ATOM     13  C   UNL A   1     -27.543   0.849  25.079  0.00  0.00    +0.253 C 
ATOM     14  C   UNL A   1     -26.354   0.576  25.777  0.00  0.00    +0.193 C 
ATOM     15  F   UNL A   1     -25.860  -0.681  25.795  0.00  0.00    -0.199 F 
BRANCH  10  16
ATOM     16  C   UNL A   1     -25.642   4.093  27.123  0.00  0.00    +0.266 C 
ATOM     17  N   UNL A   1     -25.614   5.252  26.449  0.00  0.00    -0.200 NA
ATOM     18  C   UNL A   1     -25.026   6.479  26.963  0.00  0.00    +0.139 C 
ATOM     19  O   UNL A   1     -25.143   3.966  28.243  0.00  0.00    -0.268 OA
ENDBRANCH  10  16
BRANCH  13  20
ATOM     20  O   UNL A   1     -28.193  -0.208  24.477  0.00  0.00    -0.456 OA
BRANCH  20  21
ATOM     21  C   UNL A   1     -29.460   0.005  23.866  0.00  0.00    +0.243 C 
BRANCH  21  22
ATOM     22  C   UNL A   1     -30.065  -1.377  23.573  0.00  0.00    +0.229 C 
ATOM     23  O   UNL A   1     -30.729  -1.878  24.721  0.00  0.00    -0.216 OA
ENDBRANCH  21  22
ENDBRANCH  20  21
ENDBRANCH  13  20
ENDBRANCH   2   9
BRANCH   3  24
ATOM     24  N   UNL A   1     -25.394  -0.215  29.043  0.00  0.00    -0.264 NA
BRANCH  24  25
ATOM     25  C   UNL A   1     -24.855  -1.012  30.143  0.00  0.00    +0.097 C 
BRANCH  25  26
ATOM     26  C   UNL A   1     -24.973  -2.505  29.788  0.00  0.00    -0.006 C 
ATOM     27  C   UNL A   1     -23.906  -3.173  29.146  0.00  0.00    -0.003 C 
ATOM     28  C   UNL A   1     -23.989  -4.549  28.853  0.00  0.00    -0.000 C 
ATOM     29  C   UNL A   1     -25.137  -5.280  29.205  0.00  0.00    -0.000 C 
ATOM     30  C   UNL A   1     -26.232  -4.611  29.784  0.00  0.00    -0.000 C 
ATOM     31  C   UNL A   1     -26.155  -3.232  30.065  0.00  0.00    -0.003 C 
ENDBRANCH  25  26
BRANCH  25  32
ATOM     32  C   UNL A   1     -25.387  -0.679  31.571  0.00  0.00    +0.092 C 
ATOM     33  C   UNL A   1     -25.189   0.773  32.028  0.00  0.00    +0.021 C 
ATOM     34  C   UNL A   1     -25.336   0.684  33.544  0.00  0.00    +0.020 C 
ATOM     35  C   UNL A   1     -24.829  -0.715  33.905  0.00  0.00    +0.089 C 
ATOM     36  N   UNL A   1     -24.758  -1.481  32.646  0.00  0.00    -0.218 NA
ENDBRANCH  25  32
ENDBRANCH  24  25
BRANCH  24  37
ATOM     37  C   UNL A   1     -26.740  -0.276  28.651  0.00  0.00    +0.073 C 
BRANCH  37  38
ATOM     38  C   UNL A   1     -28.125  -0.887  28.898  0.00  0.00    +0.020 C 
BRANCH  38  40
ATOM     39  C   UNL A   1     -28.956   1.279  29.928  0.00  0.00    +0.003 C 
ATOM     40  C   UNL A   1     -29.208   0.123  28.988  0.00  0.00    +0.035 C 
BRANCH  40  42
ATOM     41  O   UNL A   1     -30.082   0.034  26.822  0.00  0.00    -0.220 OA
ATOM     42  C   UNL A   1     -30.437   0.078  28.201  0.00  0.00    +0.185 C 
BRANCH  42  44
ATOM     43  O   UNL A   1     -31.022  -2.074  29.367  0.00  0.00    -0.218 OA
ATOM     44  C   UNL A   1     -31.460  -0.989  28.505  0.00  0.00    +0.215 C 
ENDBRANCH  42  44
ENDBRANCH  40  42
ENDBRANCH  38  40
ENDBRANCH  37  38
ENDBRANCH  24  37
ENDBRANCH   3  24
TORSDOF 14
