MODEL 1516
MODEL 1
REMARK VINA RESULT:    -6.102      0.000      0.000
REMARK INTER + INTRA:          -6.982
REMARK INTER:                  -6.815
REMARK INTRA:                  -0.166
REMARK UNBOUND:                -0.166
REMARK  Name = No_1516-gen_results/8p0m/2024-11-27-11-27-31/
REMARK  2 active torsions:
REMARK  status: ('A' for Active; 'I' for Inactive)
REMARK    1  A    between atoms: C_2  and  O_7
REMARK    2  A    between atoms: O_7  and  C_8
REMARK                            x       y       z     vdW  Elec       q    Type
REMARK                         _______ _______ _______ _____ _____    ______ ____
ROOT
ATOM      1  O   UNL A   1     -24.485  -1.363  29.513  0.00  0.00    -0.454 OA
ENDROOT
BRANCH   1   3
ATOM      2  C   UNL A   1     -25.166  -0.532  27.602  0.00  0.00    +0.037 A 
ATOM      3  C   UNL A   1     -24.463  -0.458  28.384  0.00  0.00    +0.145 A 
ATOM      4  C   UNL A   1     -24.966   0.432  26.454  0.00  0.00    +0.003 A 
ATOM      5  C   UNL A   1     -23.811   1.242  26.425  0.00  0.00    +0.000 A 
ATOM      6  C   UNL A   1     -23.181   0.256  28.582  0.00  0.00    +0.037 A 
ATOM      7  C   UNL A   1     -22.959   1.148  27.542  0.00  0.00    +0.003 A 
ENDBRANCH   1   3
BRANCH   1   8
ATOM      8  C   UNL A   1     -24.679  -2.669  29.351  0.00  0.00    +0.145 A 
ATOM      9  C   UNL A   1     -23.843  -3.269  28.812  0.00  0.00    +0.037 A 
ATOM     10  C   UNL A   1     -24.018  -4.734  28.550  0.00  0.00    +0.003 A 
ATOM     11  C   UNL A   1     -25.226  -5.300  29.026  0.00  0.00    +0.000 A 
ATOM     12  C   UNL A   1     -26.140  -4.510  29.662  0.00  0.00    +0.003 A 
ATOM     13  C   UNL A   1     -25.945  -3.181  29.868  0.00  0.00    +0.037 A 
ENDBRANCH   1   8
TORSDOF 2
ENDMDL
ENDMDL
