REMARK  Name = No_1517-gen_results/8p0m/2024-11-27-11-27-31/
REMARK  6 active torsions:
REMARK  status: ('A' for Active; 'I' for Inactive)
REMARK    1  A    between atoms: C_3  and  C_7
REMARK    2  A    between atoms: C_8  and  C_26
REMARK    3  A    between atoms: C_9  and  C_13
REMARK    4  A    between atoms: C_17  and  O_20
REMARK    5  A    between atoms: O_20  and  C_21
REMARK    6  A    between atoms: C_21  and  C_22
REMARK                            x       y       z     vdW  Elec       q    Type
REMARK                         _______ _______ _______ _____ _____    ______ ____
ROOT
ATOM      1  C   UNL A   1     -26.399   0.295  27.228  0.00  0.00    +0.000 A 
ATOM      2  C   UNL A   1     -25.039   0.236  27.354  0.00  0.00    +0.000 A 
ATOM      3  C   UNL A   1     -26.842   1.272  26.257  0.00  0.00    +0.002 A 
ATOM      4  C   UNL A   1     -24.135   0.938  26.587  0.00  0.00    +0.000 A 
ATOM      5  C   UNL A   1     -24.637   1.719  25.529  0.00  0.00    +0.000 A 
ATOM      6  C   UNL A   1     -25.959   1.867  25.383  0.00  0.00    +0.000 A 
ENDROOT
BRANCH   3   7
ATOM      7  C   UNL A   1     -28.266   1.395  25.925  0.00  0.00    +0.030 A 
ATOM      8  C   UNL A   1     -28.863   1.887  25.177  0.00  0.00    +0.002 A 
ATOM      9  C   UNL A   1     -29.940   2.065  24.853  0.00  0.00    +0.003 A 
ATOM     10  C   UNL A   1     -30.991   1.513  25.726  0.00  0.00    +0.040 A 
ATOM     11  C   UNL A   1     -30.471   0.768  26.819  0.00  0.00    +0.176 A 
ATOM     12  C   UNL A   1     -29.092   0.682  26.988  0.00  0.00    +0.174 A 
ATOM     13  F   UNL A   1     -29.024   1.052  28.121  0.00  0.00    -0.201 F 
BRANCH  11  14
ATOM     14  O   UNL A   1     -31.380   0.149  27.599  0.00  0.00    -0.414 OA
BRANCH  14  15
ATOM     15  C   UNL A   1     -31.733  -1.145  27.396  0.00  0.00    +0.427 C 
ATOM     16  O   UNL A   1     -31.886  -1.504  26.210  0.00  0.00    -0.237 OA
BRANCH  15  17
ATOM     17  C   UNL A   1     -32.467  -1.675  28.517  0.00  0.00    +0.463 C 
ATOM     18  O   UNL A   1     -32.530  -1.109  29.516  0.00  0.00    -0.233 OA
ATOM     19  O   UNL A   1     -32.993  -2.821  28.333  0.00  0.00    -0.233 OA
ENDBRANCH  15  17
ENDBRANCH  14  15
ENDBRANCH  11  14
ENDBRANCH   3   7
BRANCH   1  22
ATOM     20  C   UNL A   1     -28.016  -0.814  28.878  0.00  0.00    +0.000 A 
ATOM     21  C   UNL A   1     -28.469  -0.785  29.829  0.00  0.00    +0.000 A 
ATOM     22  C   UNL A   1     -27.136   0.236  28.535  0.00  0.00    +0.000 A 
ATOM     23  C   UNL A   1     -26.875   1.282  29.398  0.00  0.00    +0.000 A 
ATOM     24  C   UNL A   1     -28.361   0.199  30.924  0.00  0.00    +0.000 A 
ATOM     25  C   UNL A   1     -27.528   1.223  30.636  0.00  0.00    +0.000 A 
ENDBRANCH   1  22
BRANCH   2  26
ATOM     26  C   UNL A   1     -24.425  -0.648  28.412  0.00  0.00    +0.000 A 
ATOM     27  C   UNL A   1     -23.339  -0.299  29.205  0.00  0.00    +0.000 A 
ATOM     28  C   UNL A   1     -22.777  -1.225  30.033  0.00  0.00    +0.000 A 
ATOM     29  C   UNL A   1     -23.495  -2.367  30.316  0.00  0.00    +0.000 A 
ATOM     30  C   UNL A   1     -24.855  -1.946  28.792  0.00  0.00    +0.000 A 
ATOM     31  C   UNL A   1     -24.503  -2.797  29.594  0.00  0.00    +0.000 A 
ENDBRANCH   2  26
TORSDOF 6
