MODEL 1517
MODEL 1
REMARK VINA RESULT:    -7.757      0.000      0.000
REMARK INTER + INTRA:         -13.684
REMARK INTER:                 -10.478
REMARK INTRA:                  -3.206
REMARK UNBOUND:                -3.206
REMARK  Name = No_1517-gen_results/8p0m/2024-11-27-11-27-31/
REMARK  6 active torsions:
REMARK  status: ('A' for Active; 'I' for Inactive)
REMARK    1  A    between atoms: C_3  and  C_7
REMARK    2  A    between atoms: C_8  and  C_26
REMARK    3  A    between atoms: C_9  and  C_13
REMARK    4  A    between atoms: C_17  and  O_20
REMARK    5  A    between atoms: O_20  and  C_21
REMARK    6  A    between atoms: C_21  and  C_22
REMARK                            x       y       z     vdW  Elec       q    Type
REMARK                         _______ _______ _______ _____ _____    ______ ____
ROOT
ATOM      1  C   UNL A   1     -11.112  -0.444  39.153  0.00  0.00    +0.000 A 
ATOM      2  C   UNL A   1     -11.846  -1.217  40.008  0.00  0.00    +0.000 A 
ATOM      3  C   UNL A   1     -10.816  -1.102  37.898  0.00  0.00    +0.002 A 
ATOM      4  C   UNL A   1     -12.365  -2.460  39.717  0.00  0.00    +0.000 A 
ATOM      5  C   UNL A   1     -12.203  -2.949  38.406  0.00  0.00    +0.000 A 
ATOM      6  C   UNL A   1     -11.447  -2.271  37.534  0.00  0.00    +0.000 A 
ENDROOT
BRANCH   3   7
ATOM      7  C   UNL A   1     -10.123  -0.378  36.827  0.00  0.00    +0.030 A 
ATOM      8  C   UNL A   1      -9.114  -0.277  36.466  0.00  0.00    +0.002 A 
ATOM      9  C   UNL A   1      -8.482   0.261  35.686  0.00  0.00    +0.003 A 
ATOM     10  C   UNL A   1      -9.179   1.239  34.833  0.00  0.00    +0.040 A 
ATOM     11  C   UNL A   1     -10.577   1.299  35.084  0.00  0.00    +0.176 A 
ATOM     12  C   UNL A   1     -11.120   0.514  36.097  0.00  0.00    +0.174 A 
ATOM     13  F   UNL A   1     -11.688   1.369  36.706  0.00  0.00    -0.201 F 
BRANCH  11  14
ATOM     14  O   UNL A   1     -11.291   2.100  34.267  0.00  0.00    -0.414 OA
BRANCH  14  15
ATOM     15  C   UNL A   1     -12.314   1.623  33.514  0.00  0.00    +0.427 C 
ATOM     16  O   UNL A   1     -12.004   1.034  32.458  0.00  0.00    -0.237 OA
BRANCH  15  17
ATOM     17  C   UNL A   1     -13.515   2.396  33.704  0.00  0.00    +0.463 C 
ATOM     18  O   UNL A   1     -13.852   2.737  34.749  0.00  0.00    -0.233 OA
ATOM     19  O   UNL A   1     -14.187   2.630  32.646  0.00  0.00    -0.233 OA
ENDBRANCH  15  17
ENDBRANCH  14  15
ENDBRANCH  11  14
ENDBRANCH   3   7
BRANCH   1  22
ATOM     20  C   UNL A   1      -8.820  -0.309  40.290  0.00  0.00    +0.000 A 
ATOM     21  C   UNL A   1      -8.079   0.305  40.719  0.00  0.00    +0.000 A 
ATOM     22  C   UNL A   1      -9.997   0.311  39.817  0.00  0.00    +0.000 A 
ATOM     23  C   UNL A   1     -10.195   1.674  39.916  0.00  0.00    +0.000 A 
ATOM     24  C   UNL A   1      -8.038   1.764  40.940  0.00  0.00    +0.000 A 
ATOM     25  C   UNL A   1      -9.148   2.397  40.501  0.00  0.00    +0.000 A 
ENDBRANCH   1  22
BRANCH   2  26
ATOM     26  C   UNL A   1     -12.134  -0.719  41.404  0.00  0.00    +0.000 A 
ATOM     27  C   UNL A   1     -13.152   0.165  41.737  0.00  0.00    +0.000 A 
ATOM     28  C   UNL A   1     -13.236   0.658  43.005  0.00  0.00    +0.000 A 
ATOM     29  C   UNL A   1     -12.530   0.018  44.001  0.00  0.00    +0.000 A 
ATOM     30  C   UNL A   1     -11.450  -1.079  42.594  0.00  0.00    +0.000 A 
ATOM     31  C   UNL A   1     -11.523  -0.794  43.779  0.00  0.00    +0.000 A 
ENDBRANCH   2  26
TORSDOF 6
ENDMDL
ENDMDL
