MODEL 1518
MODEL 1
REMARK VINA RESULT:    -6.622      0.000      0.000
REMARK INTER + INTRA:          -7.771
REMARK INTER:                  -7.397
REMARK INTRA:                  -0.374
REMARK UNBOUND:                -0.374
REMARK  Name = No_1518-gen_results/8p0m/2024-11-27-11-27-31/
REMARK  2 active torsions:
REMARK  status: ('A' for Active; 'I' for Inactive)
REMARK    1  A    between atoms: C_2  and  C_7
REMARK    2  A    between atoms: C_6  and  N_10
REMARK                            x       y       z     vdW  Elec       q    Type
REMARK                         _______ _______ _______ _____ _____    ______ ____
ROOT
ATOM      1  C   UNL A   1     -24.214  -0.234  27.710  0.00  0.00    +0.014 A 
ATOM      2  C   UNL A   1     -23.537   0.764  27.618  0.00  0.00    +0.027 A 
ATOM      3  C   UNL A   1     -22.323   0.873  28.287  0.00  0.00    -0.000 A 
ATOM      4  C   UNL A   1     -21.855  -0.183  29.148  0.00  0.00    +0.001 A 
ATOM      5  C   UNL A   1     -22.711  -1.290  29.215  0.00  0.00    +0.015 A 
ATOM      6  C   UNL A   1     -23.857  -1.336  28.575  0.00  0.00    +0.048 A 
ENDROOT
BRANCH   6   7
ATOM      7  N   UNL A   1     -24.486  -2.544  28.960  0.00  0.00    -0.307 N 
ATOM      8  C   UNL A   1     -25.712  -2.497  29.500  0.00  0.00    +0.091 C 
ATOM      9  C   UNL A   1     -26.358  -3.791  29.710  0.00  0.00    +0.021 C 
ATOM     10  C   UNL A   1     -24.012  -3.784  28.661  0.00  0.00    +0.091 C 
ATOM     11  C   UNL A   1     -24.569  -5.018  28.899  0.00  0.00    +0.021 C 
ATOM     12  C   UNL A   1     -25.769  -4.958  29.496  0.00  0.00    +0.004 C 
ENDBRANCH   6   7
BRANCH   2  13
ATOM     13  C   UNL A   1     -23.877   1.959  26.799  0.00  0.00    +0.262 C 
ATOM     14 CL   UNL A   1     -24.208   3.097  27.107  0.00  0.00    -0.072 Cl
ATOM     15  F   UNL A   1     -23.706   1.556  25.443  0.00  0.00    -0.214 F 
ENDBRANCH   2  13
TORSDOF 2
ENDMDL
ENDMDL
