MODEL 1519
MODEL 1
REMARK VINA RESULT:    -7.171      0.000      0.000
REMARK INTER + INTRA:          -9.128
REMARK INTER:                  -8.429
REMARK INTRA:                  -0.699
REMARK UNBOUND:                -0.699
REMARK  Name = No_1519-gen_results/8p0m/2024-11-27-11-27-31/
REMARK  3 active torsions:
REMARK  status: ('A' for Active; 'I' for Inactive)
REMARK    1  A    between atoms: C_2  and  C_7
REMARK    2  A    between atoms: C_7  and  C_8
REMARK    3  A    between atoms: C_7  and  C_14
REMARK                            x       y       z     vdW  Elec       q    Type
REMARK                         _______ _______ _______ _____ _____    ______ ____
ROOT
ATOM      1  C   UNL A   1     -24.021  -1.277  29.470  0.00  0.00    +0.123 C 
ENDROOT
BRANCH   1   3
ATOM      2  C   UNL A   1     -21.881  -0.350  28.910  0.00  0.00    -0.004 A 
ATOM      3  C   UNL A   1     -23.083  -0.354  28.776  0.00  0.00    -0.010 A 
ATOM      4  C   UNL A   1     -23.712   0.534  27.910  0.00  0.00    -0.004 A 
ATOM      5  C   UNL A   1     -22.955   1.517  27.178  0.00  0.00    -0.000 A 
ATOM      6  C   UNL A   1     -21.574   1.466  27.410  0.00  0.00    -0.000 A 
ATOM      7  C   UNL A   1     -21.030   0.618  28.253  0.00  0.00    -0.000 A 
ENDBRANCH   1   3
BRANCH   1   8
ATOM      8  C   UNL A   1     -24.503  -2.334  29.095  0.00  0.00    -0.010 A 
ATOM      9  C   UNL A   1     -25.957  -2.607  29.476  0.00  0.00    -0.004 A 
ATOM     10  C   UNL A   1     -26.416  -3.679  29.888  0.00  0.00    -0.000 A 
ATOM     11  C   UNL A   1     -25.720  -4.899  29.389  0.00  0.00    -0.000 A 
ATOM     12  C   UNL A   1     -24.459  -4.754  28.871  0.00  0.00    -0.000 A 
ATOM     13  C   UNL A   1     -23.813  -3.518  28.824  0.00  0.00    -0.004 A 
ENDBRANCH   1   8
BRANCH   1  14
ATOM     14  C   UNL A   1     -24.247  -0.887  30.891  0.00  0.00    +0.249 C 
ATOM     15  N   UNL A   1     -23.610  -1.450  31.810  0.00  0.00    -0.203 NA
ATOM     16  O   UNL A   1     -24.858   0.164  31.146  0.00  0.00    -0.273 OA
ATOM     17  C   UNL A   1     -23.707  -1.193  33.191  0.00  0.00    +0.139 C 
ENDBRANCH   1  14
TORSDOF 3
ENDMDL
ENDMDL
