MODEL 151
MODEL 1
REMARK VINA RESULT:    -5.453      0.000      0.000
REMARK INTER + INTRA:          -6.918
REMARK INTER:                  -6.409
REMARK INTRA:                  -0.509
REMARK UNBOUND:                -0.509
REMARK  Name = No_151-gen_results/8p0m/2024-11-27-11-27-31/
REMARK  3 active torsions:
REMARK  status: ('A' for Active; 'I' for Inactive)
REMARK    1  A    between atoms: C_7  and  C_10
REMARK    2  A    between atoms: C_10  and  O_12
REMARK    3  A    between atoms: O_12  and  C_13
REMARK                            x       y       z     vdW  Elec       q    Type
REMARK                         _______ _______ _______ _____ _____    ______ ____
ROOT
ATOM      1  O   UNL A   1     -23.078   2.853  26.256  0.00  0.00    -0.270 OA
ATOM      2  C   UNL A   1     -22.911   1.906  26.892  0.00  0.00    +0.275 C 
ATOM      3  C   UNL A   1     -22.180   1.448  27.550  0.00  0.00    +0.239 C 
ATOM      4  N   UNL A   1     -24.199   1.204  27.028  0.00  0.00    -0.188 NA
ATOM      5  C   UNL A   1     -24.302   0.023  27.830  0.00  0.00    +0.184 C 
ATOM      6  C   UNL A   1     -22.059   0.271  28.454  0.00  0.00    +0.059 C 
ATOM      7  C   UNL A   1     -23.240  -0.432  28.533  0.00  0.00    +0.138 C 
ATOM      8  F   UNL A   1     -20.845   2.140  27.553  0.00  0.00    -0.227 F 
ATOM      9 CL   UNL A   1     -25.813  -0.795  27.893  0.00  0.00    -0.090 Cl
ENDROOT
BRANCH   7  10
ATOM     10  C   UNL A   1     -23.405  -1.646  29.348  0.00  0.00    +0.321 C 
ATOM     11  O   UNL A   1     -23.274  -2.652  29.040  0.00  0.00    -0.250 OA
BRANCH  10  12
ATOM     12  O   UNL A   1     -23.365  -1.428  30.718  0.00  0.00    -0.424 OA
BRANCH  12  13
ATOM     13  C   UNL A   1     -24.448  -1.240  31.528  0.00  0.00    +0.295 C 
ATOM     14  C   UNL A   1     -24.946   0.154  31.515  0.00  0.00    +0.108 C 
ATOM     15  C   UNL A   1     -25.854   0.296  32.693  0.00  0.00    +0.151 C 
ATOM     16  O   UNL A   1     -25.266   0.369  33.803  0.00  0.00    -0.327 OA
ATOM     17  C   UNL A   1     -24.366  -0.772  34.127  0.00  0.00    +0.297 C 
ATOM     18  O   UNL A   1     -23.892  -1.486  32.935  0.00  0.00    -0.291 OA
ENDBRANCH  12  13
ENDBRANCH  10  12
ENDBRANCH   7  10
TORSDOF 3
ENDMDL
ENDMDL
