MODEL 1520
MODEL 1
REMARK VINA RESULT:    -7.081      0.000      0.000
REMARK INTER + INTRA:          -9.057
REMARK INTER:                  -8.737
REMARK INTRA:                  -0.320
REMARK UNBOUND:                -0.320
REMARK  Name = No_1520-gen_results/8p0m/2024-11-27-11-27-31/
REMARK  4 active torsions:
REMARK  status: ('A' for Active; 'I' for Inactive)
REMARK    1  A    between atoms: C_6  and  O_7
REMARK    2  A    between atoms: O_7  and  C_9
REMARK    3  A    between atoms: C_10  and  C_11
REMARK    4  A    between atoms: C_11  and  C_12
REMARK                            x       y       z     vdW  Elec       q    Type
REMARK                         _______ _______ _______ _____ _____    ______ ____
ROOT
ATOM      1  C   UNL A   1     -23.655   0.121  30.095  0.00  0.00    +0.312 C 
ATOM      2  C   UNL A   1     -23.686  -1.170  29.818  0.00  0.00    +0.185 C 
ATOM      3  F   UNL A   1     -22.900   0.595  30.934  0.00  0.00    -0.161 F 
ATOM      4  F   UNL A   1     -24.097  -1.839  31.041  0.00  0.00    -0.203 F 
ENDROOT
BRANCH   1   5
ATOM      5  O   UNL A   1     -24.281   0.878  29.188  0.00  0.00    -0.428 OA
BRANCH   5  11
ATOM      6  C   UNL A   1     -22.236   1.501  27.838  0.00  0.00    +0.040 A 
ATOM      7  C   UNL A   1     -21.860   1.889  26.756  0.00  0.00    +0.033 A 
ATOM      8  C   UNL A   1     -22.723   2.260  25.726  0.00  0.00    +0.140 A 
ATOM      9  C   UNL A   1     -24.154   2.126  25.922  0.00  0.00    +0.033 A 
ATOM     10  C   UNL A   1     -24.518   1.658  27.205  0.00  0.00    +0.040 A 
ATOM     11  C   UNL A   1     -23.631   1.328  28.109  0.00  0.00    +0.148 A 
ATOM     12  F   UNL A   1     -22.333   2.664  24.509  0.00  0.00    -0.204 F 
ENDBRANCH   5  11
ENDBRANCH   1   5
BRANCH   2  13
ATOM     13  C   UNL A   1     -24.524  -1.709  28.867  0.00  0.00    +0.085 C 
BRANCH  13  14
ATOM     14  C   UNL A   1     -24.726  -3.054  28.893  0.00  0.00    -0.033 C 
ATOM     15  C   UNL A   1     -25.684  -3.633  29.489  0.00  0.00    -0.008 C 
ATOM     16  C   UNL A   1     -25.886  -5.023  29.483  0.00  0.00    -0.005 C 
ATOM     17  C   UNL A   1     -25.023  -5.583  29.205  0.00  0.00    -0.022 C 
ATOM     18  C   UNL A   1     -23.946  -4.246  28.497  0.00  0.00    +0.048 C 
ENDBRANCH  13  14
ENDBRANCH   2  13
TORSDOF 4
ENDMDL
ENDMDL
