REMARK  Name = No_1520-gen_results/8p0m/2024-11-27-11-27-31/
REMARK  4 active torsions:
REMARK  status: ('A' for Active; 'I' for Inactive)
REMARK    1  A    between atoms: C_6  and  O_7
REMARK    2  A    between atoms: O_7  and  C_9
REMARK    3  A    between atoms: C_10  and  C_11
REMARK    4  A    between atoms: C_11  and  C_12
REMARK                            x       y       z     vdW  Elec       q    Type
REMARK                         _______ _______ _______ _____ _____    ______ ____
ROOT
ATOM      1  C   UNL A   1     -29.435  -2.579  31.339  0.00  0.00    +0.312 C 
ATOM      2  C   UNL A   1     -29.799  -3.670  31.989  0.00  0.00    +0.185 C 
ATOM      3  F   UNL A   1     -29.462  -1.469  31.852  0.00  0.00    -0.161 F 
ATOM      4  F   UNL A   1     -31.204  -3.497  32.319  0.00  0.00    -0.203 F 
ENDROOT
BRANCH   1   5
ATOM      5  O   UNL A   1     -28.764  -2.829  30.210  0.00  0.00    -0.428 OA
BRANCH   5  11
ATOM      6  C   UNL A   1     -28.016  -0.814  28.878  0.00  0.00    +0.040 A 
ATOM      7  C   UNL A   1     -27.064  -0.119  28.608  0.00  0.00    +0.033 A 
ATOM      8  C   UNL A   1     -25.765  -0.390  29.036  0.00  0.00    +0.140 A 
ATOM      9  C   UNL A   1     -25.530  -1.530  29.901  0.00  0.00    +0.033 A 
ATOM     10  C   UNL A   1     -26.689  -2.289  30.181  0.00  0.00    +0.040 A 
ATOM     11  C   UNL A   1     -27.873  -1.951  29.737  0.00  0.00    +0.148 A 
ATOM     12  F   UNL A   1     -24.698   0.380  28.777  0.00  0.00    -0.204 F 
ENDBRANCH   5  11
ENDBRANCH   1   5
BRANCH   2  13
ATOM     13  C   UNL A   1     -29.761  -4.925  31.422  0.00  0.00    +0.085 C 
BRANCH  13  14
ATOM     14  C   UNL A   1     -30.893  -5.380  30.821  0.00  0.00    -0.033 C 
ATOM     15  C   UNL A   1     -30.925  -6.239  29.889  0.00  0.00    -0.008 C 
ATOM     16  C   UNL A   1     -32.108  -6.713  29.299  0.00  0.00    -0.005 C 
ATOM     17  C   UNL A   1     -32.955  -6.089  29.469  0.00  0.00    -0.022 C 
ATOM     18  C   UNL A   1     -32.320  -4.994  30.829  0.00  0.00    +0.048 C 
ENDBRANCH  13  14
ENDBRANCH   2  13
TORSDOF 4
