MODEL 1521
MODEL 1
REMARK VINA RESULT:    -6.787      0.000      0.000
REMARK INTER + INTRA:         -12.308
REMARK INTER:                 -10.754
REMARK INTRA:                  -1.554
REMARK UNBOUND:                -1.554
REMARK  Name = No_1521-gen_results/8p0m/2024-11-27-11-27-31/
REMARK  10 active torsions:
REMARK  status: ('A' for Active; 'I' for Inactive)
REMARK    1  A    between atoms: C_2  and  C_11
REMARK    2  A    between atoms: C_3  and  C_4
REMARK    3  A    between atoms: C_6  and  C_14
REMARK    4  A    between atoms: C_16  and  C_20
REMARK    5  A    between atoms: C_18  and  C_23
REMARK    6  A    between atoms: C_20  and  O_22
REMARK    7  A    between atoms: O_22  and  C_26
REMARK    8  A    between atoms: C_26  and  C_27
REMARK    9  A    between atoms: C_27  and  O_28
REMARK   10  A    between atoms: O_28  and  C_29
REMARK                            x       y       z     vdW  Elec       q    Type
REMARK                         _______ _______ _______ _____ _____    ______ ____
ROOT
ATOM      1  C   UNL A   1     -21.355 -18.679   5.542  0.00  0.00    +0.000 A 
ATOM      2  C   UNL A   1     -21.707 -17.668   5.960  0.00  0.00    +0.006 A 
ATOM      3  C   UNL A   1     -22.359 -16.532   5.172  0.00  0.00    +0.076 A 
ATOM      4  C   UNL A   1     -22.588 -16.797   3.851  0.00  0.00    +0.013 A 
ATOM      5  C   UNL A   1     -22.220 -18.021   3.354  0.00  0.00    +0.080 A 
ATOM      6  C   UNL A   1     -21.619 -18.978   4.132  0.00  0.00    +0.007 A 
ENDROOT
BRANCH   1  11
ATOM      7  C   UNL A   1     -19.640 -21.750   7.966  0.00  0.00    +0.010 A 
ATOM      8  C   UNL A   1     -20.654 -21.464   7.980  0.00  0.00    +0.080 A 
ATOM      9  C   UNL A   1     -18.827 -20.979   7.025  0.00  0.00    +0.072 A 
ATOM     10  C   UNL A   1     -21.454 -20.470   7.276  0.00  0.00    +0.007 A 
ATOM     11  C   UNL A   1     -20.724 -19.731   6.369  0.00  0.00    +0.000 A 
ATOM     12  C   UNL A   1     -19.398 -19.929   6.260  0.00  0.00    +0.004 A 
BRANCH   9  13
ATOM     13  C   UNL A   1     -17.360 -21.122   6.899  0.00  0.00    +0.419 C 
ATOM     14  F   UNL A   1     -16.798 -21.375   7.721  0.00  0.00    -0.166 F 
ATOM     15  F   UNL A   1     -17.092 -21.966   5.792  0.00  0.00    -0.166 F 
ATOM     16  F   UNL A   1     -16.760 -19.872   6.376  0.00  0.00    -0.166 F 
ENDBRANCH   9  13
BRANCH   8  17
ATOM     17  C   UNL A   1     -21.620 -22.217   9.054  0.00  0.00    +0.388 C 
ATOM     18  O   UNL A   1     -22.285 -21.605   9.913  0.00  0.00    -0.241 OA
ATOM     19  O   UNL A   1     -21.730 -23.464   9.007  0.00  0.00    -0.241 OA
ENDBRANCH   8  17
ENDBRANCH   1  11
BRANCH   5  20
ATOM     20  C   UNL A   1     -22.515 -18.305   1.892  0.00  0.00    +0.388 C 
ATOM     21  O   UNL A   1     -21.726 -17.870   1.063  0.00  0.00    -0.241 OA
ATOM     22  O   UNL A   1     -23.580 -18.993   1.627  0.00  0.00    -0.241 OA
ENDBRANCH   5  20
BRANCH   3  23
ATOM     23  C   UNL A   1     -22.764 -15.274   5.848  0.00  0.00    +0.341 C 
ATOM     24  O   UNL A   1     -23.546 -15.331   6.722  0.00  0.00    -0.245 OA
BRANCH  23  25
ATOM     25  O   UNL A   1     -22.230 -14.220   5.435  0.00  0.00    -0.441 OA
BRANCH  25  26
ATOM     26  C   UNL A   1     -22.967 -13.234   4.926  0.00  0.00    +0.256 C 
BRANCH  26  27
ATOM     27  C   UNL A   1     -22.916 -13.114   3.475  0.00  0.00    +0.254 C 
BRANCH  27  28
ATOM     28  O   UNL A   1     -21.878 -13.008   2.917  0.00  0.00    -0.459 OA
BRANCH  28  29
ATOM     29  C   UNL A   1     -21.349 -12.377   2.257  0.00  0.00    +0.259 C 
ATOM     30  C   UNL A   1     -19.920 -11.966   2.443  0.00  0.00    +0.175 C 
ATOM     31  O   UNL A   1     -19.055 -12.807   2.403  0.00  0.00    -0.228 OA
ENDBRANCH  28  29
ENDBRANCH  27  28
ENDBRANCH  26  27
ENDBRANCH  25  26
ENDBRANCH  23  25
ENDBRANCH   3  23
TORSDOF 10
ENDMDL
ENDMDL
