REMARK  Name = No_1521-gen_results/8p0m/2024-11-27-11-27-31/
REMARK  10 active torsions:
REMARK  status: ('A' for Active; 'I' for Inactive)
REMARK    1  A    between atoms: C_2  and  C_11
REMARK    2  A    between atoms: C_3  and  C_4
REMARK    3  A    between atoms: C_6  and  C_14
REMARK    4  A    between atoms: C_16  and  C_20
REMARK    5  A    between atoms: C_18  and  C_23
REMARK    6  A    between atoms: C_20  and  O_22
REMARK    7  A    between atoms: O_22  and  C_26
REMARK    8  A    between atoms: C_26  and  C_27
REMARK    9  A    between atoms: C_27  and  O_28
REMARK   10  A    between atoms: O_28  and  C_29
REMARK                            x       y       z     vdW  Elec       q    Type
REMARK                         _______ _______ _______ _____ _____    ______ ____
ROOT
ATOM      1  C   UNL A   1     -27.324   2.192  31.832  0.00  0.00    +0.000 A 
ATOM      2  C   UNL A   1     -26.572   3.055  31.735  0.00  0.00    +0.006 A 
ATOM      3  C   UNL A   1     -26.304   4.154  32.764  0.00  0.00    +0.076 A 
ATOM      4  C   UNL A   1     -27.002   4.038  33.933  0.00  0.00    +0.013 A 
ATOM      5  C   UNL A   1     -27.863   2.981  34.081  0.00  0.00    +0.080 A 
ATOM      6  C   UNL A   1     -28.058   2.049  33.093  0.00  0.00    +0.007 A 
ENDROOT
BRANCH   1  11
ATOM      7  C   UNL A   1     -28.016  -0.814  28.878  0.00  0.00    +0.010 A 
ATOM      8  C   UNL A   1     -28.469  -0.785  29.829  0.00  0.00    +0.080 A 
ATOM      9  C   UNL A   1     -27.087   0.290  28.638  0.00  0.00    +0.072 A 
ATOM     10  C   UNL A   1     -28.391   0.104  30.980  0.00  0.00    +0.007 A 
ATOM     11  C   UNL A   1     -27.533   1.167  30.787  0.00  0.00    +0.000 A 
ATOM     12  C   UNL A   1     -26.828   1.256  29.645  0.00  0.00    +0.004 A 
BRANCH   9  13
ATOM     13  C   UNL A   1     -26.252   0.411  27.422  0.00  0.00    +0.419 C 
ATOM     14  F   UNL A   1     -26.289  -0.321  26.701  0.00  0.00    -0.166 F 
ATOM     15  F   UNL A   1     -26.450   1.704  26.878  0.00  0.00    -0.166 F 
ATOM     16  F   UNL A   1     -24.821   0.539  27.786  0.00  0.00    -0.166 F 
ENDBRANCH   9  13
BRANCH   8  17
ATOM     17  C   UNL A   1     -29.462  -2.018  30.213  0.00  0.00    +0.388 C 
ATOM     18  O   UNL A   1     -29.057  -3.183  30.395  0.00  0.00    -0.241 OA
ATOM     19  O   UNL A   1     -30.685  -1.793  30.363  0.00  0.00    -0.241 OA
ENDBRANCH   8  17
ENDBRANCH   1  11
BRANCH   5  20
ATOM     20  C   UNL A   1     -28.602   2.854  35.401  0.00  0.00    +0.388 C 
ATOM     21  O   UNL A   1     -28.248   3.584  36.318  0.00  0.00    -0.241 OA
ATOM     22  O   UNL A   1     -29.559   1.983  35.461  0.00  0.00    -0.241 OA
ENDBRANCH   5  20
BRANCH   3  23
ATOM     23  C   UNL A   1     -25.297   5.212  32.500  0.00  0.00    +0.341 C 
ATOM     24  O   UNL A   1     -24.207   5.067  32.911  0.00  0.00    -0.245 OA
BRANCH  23  25
ATOM     25  O   UNL A   1     -25.686   6.202  31.841  0.00  0.00    -0.441 OA
BRANCH  25  26
ATOM     26  C   UNL A   1     -24.819   7.106  31.388  0.00  0.00    +0.256 C 
BRANCH  26  27
ATOM     27  C   UNL A   1     -25.038   7.532  30.012  0.00  0.00    +0.254 C 
BRANCH  27  28
ATOM     28  O   UNL A   1     -25.381   6.753  29.190  0.00  0.00    -0.459 OA
BRANCH  28  29
ATOM     29  C   UNL A   1     -25.965   5.883  29.060  0.00  0.00    +0.259 C 
ATOM     30  C   UNL A   1     -25.697   4.832  28.026  0.00  0.00    +0.175 C 
ATOM     31  O   UNL A   1     -24.676   4.191  28.088  0.00  0.00    -0.228 OA
ENDBRANCH  28  29
ENDBRANCH  27  28
ENDBRANCH  26  27
ENDBRANCH  25  26
ENDBRANCH  23  25
ENDBRANCH   3  23
TORSDOF 10
