MODEL 1522
MODEL 1
REMARK VINA RESULT:    -7.628      0.000      0.000
REMARK INTER + INTRA:         -11.307
REMARK INTER:                  -9.858
REMARK INTRA:                  -1.449
REMARK UNBOUND:                -1.449
REMARK  Name = No_1522-gen_results/8p0m/2024-11-27-11-27-31/
REMARK  5 active torsions:
REMARK  status: ('A' for Active; 'I' for Inactive)
REMARK    1  A    between atoms: C_2  and  C_5
REMARK    2  A    between atoms: C_3  and  C_10
REMARK    3  A    between atoms: N_8  and  C_23
REMARK    4  A    between atoms: C_11  and  C_12
REMARK    5  A    between atoms: C_23  and  C_24
REMARK                            x       y       z     vdW  Elec       q    Type
REMARK                         _______ _______ _______ _____ _____    ______ ____
ROOT
ATOM      1  C   UNL A   1     -24.129  -0.377  27.763  0.00  0.00    +0.004 A 
ATOM      2  C   UNL A   1     -23.441   0.417  27.669  0.00  0.00    +0.046 A 
ATOM      3  C   UNL A   1     -23.701  -1.414  28.702  0.00  0.00    +0.000 A 
ATOM      4  C   UNL A   1     -22.520  -1.327  29.397  0.00  0.00    +0.000 A 
ATOM      5  C   UNL A   1     -21.724  -0.187  29.182  0.00  0.00    +0.000 A 
ATOM      6  C   UNL A   1     -22.188   0.806  28.316  0.00  0.00    +0.004 A 
ENDROOT
BRANCH   3   7
ATOM      7  C   UNL A   1     -24.703  -2.491  28.911  0.00  0.00    +0.000 A 
ATOM      8  C   UNL A   1     -25.707  -2.319  29.498  0.00  0.00    +0.001 A 
ATOM      9  C   UNL A   1     -24.212  -3.856  28.604  0.00  0.00    +0.000 A 
ATOM     10  C   UNL A   1     -26.447  -3.520  30.024  0.00  0.00    +0.000 A 
ATOM     11  C   UNL A   1     -24.857  -4.937  28.961  0.00  0.00    +0.000 A 
ATOM     12  C   UNL A   1     -26.101  -4.703  29.666  0.00  0.00    +0.000 A 
BRANCH   8  13
ATOM     13  C   UNL A   1     -26.408  -1.082  29.767  0.00  0.00    +0.017 A 
ATOM     14  C   UNL A   1     -27.261  -0.513  29.018  0.00  0.00    +0.001 A 
ATOM     15  C   UNL A   1     -27.901   0.699  29.379  0.00  0.00    +0.000 A 
ATOM     16  C   UNL A   1     -27.564   1.275  30.651  0.00  0.00    +0.001 A 
ATOM     17  C   UNL A   1     -26.055  -0.376  31.055  0.00  0.00    +0.089 A 
ATOM     18  N   UNL A   1     -25.157  -0.926  31.956  0.00  0.00    -0.128 NA
ATOM     19  C   UNL A   1     -26.704   0.796  31.386  0.00  0.00    +0.018 A 
ENDBRANCH   8  13
ENDBRANCH   3   7
BRANCH   2  20
ATOM     20  C   UNL A   1     -23.837   1.587  26.718  0.00  0.00    +0.218 C 
ATOM     21  N   UNL A   1     -24.689   2.220  26.919  0.00  0.00    -0.232 NA
ATOM     22  F   UNL A   1     -23.039   1.764  25.681  0.00  0.00    -0.184 F 
BRANCH  21  23
ATOM     23  C   UNL A   1     -24.916   3.444  26.211  0.00  0.00    +0.241 C 
BRANCH  23  24
ATOM     24  C   UNL A   1     -24.863   4.576  26.992  0.00  0.00    +0.389 C 
ATOM     25  O   UNL A   1     -24.820   5.654  26.593  0.00  0.00    -0.243 OA
ATOM     26  O   UNL A   1     -24.938   4.436  28.326  0.00  0.00    -0.243 OA
ENDBRANCH  23  24
ENDBRANCH  21  23
ENDBRANCH   2  20
TORSDOF 5
ENDMDL
ENDMDL
