REMARK  Name = outputs/IAG933/test6/raw/output_1522_IAG933_linker_design_.xyz
REMARK  5 active torsions:
REMARK  status: ('A' for Active; 'I' for Inactive)
REMARK    1  A    between atoms: C_1  and  C_2
REMARK    2  A    between atoms: C_1  and  C_8
REMARK    3  A    between atoms: C_1  and  C_33
REMARK    4  A    between atoms: C_14  and  C_15
REMARK    5  A    between atoms: N_34  and  C_41
REMARK                            x       y       z     vdW  Elec       q    Type
REMARK                         _______ _______ _______ _____ _____    ______ ____
ROOT
ATOM      1  C   UNL A   1     -25.688   1.614  26.461  0.00  0.00    +0.092 C 
ATOM      2  C   UNL A   1     -26.250   2.920  26.395  0.00  0.00    +0.059 C 
ATOM      3  C   UNL A   1     -27.438   3.091  25.645  0.00  0.00    +0.102 C 
ATOM      4  N   UNL A   1     -28.075   2.089  25.003  0.00  0.00    -0.212 NA
ATOM      5  C   UNL A   1     -27.543   0.849  25.079  0.00  0.00    +0.234 C 
ATOM      6  O   UNL A   1     -28.193  -0.208  24.477  0.00  0.00    -0.459 OA
ATOM      7  C   UNL A   1     -29.460   0.005  23.866  0.00  0.00    +0.239 C 
ATOM      8  C   UNL A   1     -30.065  -1.377  23.573  0.00  0.00    +0.189 C 
ATOM      9  O   UNL A   1     -30.729  -1.878  24.721  0.00  0.00    -0.350 OA
ATOM     10  C   UNL A   1     -26.354   0.576  25.777  0.00  0.00    +0.244 C 
ATOM     11  F   UNL A   1     -25.860  -0.681  25.795  0.00  0.00    -0.227 F 
ATOM     12  C   UNL A   1     -23.229   1.601  26.486  0.00  0.00    +0.248 C 
ATOM     13  C   UNL A   1     -25.172   1.010  27.823  0.00  0.00    +0.005 C 
ATOM     14  C   UNL A   1     -31.518  -1.138  26.916  0.00  0.00    +0.053 C 
ATOM     15  O   UNL A   1     -28.897  -1.773  29.654  0.00  0.00    -0.272 OA
ATOM     16  N   UNL A   1     -23.113   0.222  28.584  0.00  0.00    -0.209 NA
ATOM     17  C   UNL A   1     -25.430  -0.155  29.036  0.00  0.00    +0.141 C 
ATOM     18  N   UNL A   1     -30.057  -0.078  28.601  0.00  0.00    -0.277 N 
ATOM     19  O   UNL A   1     -26.879  -0.417  29.024  0.00  0.00    -0.342 OA
ATOM     20  C   UNL A   1     -27.883   0.425  29.448  0.00  0.00    +0.227 C 
ATOM     21  C   UNL A   1     -30.313  -0.151  27.154  0.00  0.00    +0.096 C 
ATOM     22  C   UNL A   1     -23.875   0.953  27.600  0.00  0.00    +0.087 C 
ATOM     23  C   UNL A   1     -31.873  -1.312  25.409  0.00  0.00    +0.144 C 
ATOM     24  C   UNL A   1     -21.889   0.693  28.795  0.00  0.00    +0.125 C 
ATOM     25  C   UNL A   1     -21.372   1.662  27.918  0.00  0.00    +0.191 C 
ATOM     26  C   UNL A   1     -29.052  -0.621  29.276  0.00  0.00    +0.256 C 
ATOM     27  O   UNL A   1     -21.959   1.937  26.790  0.00  0.00    -0.465 OA
ENDROOT
BRANCH   2  28
ATOM     28  C   UNL A   1     -25.642   4.093  27.123  0.00  0.00    +0.263 C 
ATOM     29  N   UNL A   1     -25.614   5.252  26.449  0.00  0.00    -0.200 NA
ATOM     30  C   UNL A   1     -25.026   6.479  26.963  0.00  0.00    +0.139 C 
ATOM     31  O   UNL A   1     -25.143   3.966  28.243  0.00  0.00    -0.269 OA
ENDBRANCH   2  28
BRANCH  18  33
ATOM     32  C   UNL A   1     -31.088   0.477  30.786  0.00  0.00    +0.023 C 
ATOM     33  C   UNL A   1     -30.984   0.976  29.299  0.00  0.00    +0.093 C 
ENDBRANCH  18  33
BRANCH  17  34
ATOM     34  C   UNL A   1     -24.855  -1.012  30.143  0.00  0.00    +0.070 C 
BRANCH  34  35
ATOM     35  C   UNL A   1     -24.973  -2.505  29.788  0.00  0.00    -0.018 C 
ATOM     36  C   UNL A   1     -23.906  -3.173  29.146  0.00  0.00    -0.004 C 
ATOM     37  C   UNL A   1     -23.989  -4.549  28.853  0.00  0.00    -0.000 C 
ATOM     38  C   UNL A   1     -25.137  -5.280  29.205  0.00  0.00    -0.000 C 
ATOM     39  C   UNL A   1     -26.232  -4.611  29.784  0.00  0.00    -0.000 C 
ATOM     40  C   UNL A   1     -26.155  -3.232  30.065  0.00  0.00    -0.004 C 
ENDBRANCH  34  35
BRANCH  34  41
ATOM     41  C   UNL A   1     -25.387  -0.679  31.571  0.00  0.00    +0.080 C 
ATOM     42  C   UNL A   1     -25.189   0.773  32.028  0.00  0.00    +0.019 C 
ATOM     43  C   UNL A   1     -25.336   0.684  33.544  0.00  0.00    +0.020 C 
ATOM     44  C   UNL A   1     -24.829  -0.715  33.905  0.00  0.00    +0.089 C 
ATOM     45  N   UNL A   1     -24.758  -1.481  32.646  0.00  0.00    -0.219 NA
ENDBRANCH  34  41
ENDBRANCH  17  34
TORSDOF 5
