MODEL 1523
MODEL 1
REMARK VINA RESULT:    -7.082      0.000      0.000
REMARK INTER + INTRA:          -9.073
REMARK INTER:                  -8.324
REMARK INTRA:                  -0.749
REMARK UNBOUND:                -0.749
REMARK  Name = No_1523-gen_results/8p0m/2024-11-27-11-27-31/
REMARK  3 active torsions:
REMARK  status: ('A' for Active; 'I' for Inactive)
REMARK    1  A    between atoms: C_2  and  C_11
REMARK    2  A    between atoms: C_3  and  C_4
REMARK    3  A    between atoms: C_6  and  C_14
REMARK                            x       y       z     vdW  Elec       q    Type
REMARK                         _______ _______ _______ _____ _____    ______ ____
ROOT
ATOM      1  C   UNL A   1      -9.567   1.124  34.644  0.00  0.00    +0.010 A 
ATOM      2  C   UNL A   1     -10.526   1.174  35.076  0.00  0.00    +0.080 A 
ATOM      3  C   UNL A   1      -8.659   0.210  35.337  0.00  0.00    +0.072 A 
ATOM      4  C   UNL A   1     -11.176   0.542  36.216  0.00  0.00    +0.007 A 
ATOM      5  C   UNL A   1     -10.347  -0.319  36.905  0.00  0.00    +0.000 A 
ATOM      6  C   UNL A   1      -9.099  -0.544  36.456  0.00  0.00    +0.004 A 
ENDROOT
BRANCH   5   7
ATOM      7  C   UNL A   1     -10.803  -1.075  38.088  0.00  0.00    -0.000 A 
ATOM      8  C   UNL A   1     -11.734  -2.000  38.028  0.00  0.00    -0.000 A 
ATOM      9  C   UNL A   1     -12.262  -2.647  39.185  0.00  0.00    -0.000 A 
ATOM     10  C   UNL A   1     -11.794  -2.294  40.462  0.00  0.00    +0.000 A 
ATOM     11  C   UNL A   1     -10.819  -1.311  40.531  0.00  0.00    -0.000 A 
ATOM     12  C   UNL A   1     -10.356  -0.656  39.370  0.00  0.00    -0.000 A 
ENDBRANCH   5   7
BRANCH   3  13
ATOM     13  C   UNL A   1      -7.295  -0.110  34.861  0.00  0.00    +0.419 C 
ATOM     14  F   UNL A   1      -6.534  -0.431  35.612  0.00  0.00    -0.166 F 
ATOM     15  F   UNL A   1      -6.837   0.883  34.146  0.00  0.00    -0.166 F 
ATOM     16  F   UNL A   1      -7.348  -1.161  33.884  0.00  0.00    -0.166 F 
ENDBRANCH   3  13
BRANCH   2  17
ATOM     17  C   UNL A   1     -11.630   2.112  34.318  0.00  0.00    +0.388 C 
ATOM     18  O   UNL A   1     -11.551   3.364  34.540  0.00  0.00    -0.241 OA
ATOM     19  O   UNL A   1     -12.250   1.636  33.418  0.00  0.00    -0.241 OA
ENDBRANCH   2  17
TORSDOF 3
ENDMDL
ENDMDL
