REMARK  Name = outputs/IAG933/test6/raw/output_1523_IAG933_linker_design_.xyz
REMARK  11 active torsions:
REMARK  status: ('A' for Active; 'I' for Inactive)
REMARK    1  A    between atoms: C_1  and  C_2
REMARK    2  A    between atoms: C_1  and  C_8
REMARK    3  A    between atoms: C_1  and  C_36
REMARK    4  A    between atoms: C_13  and  C_41
REMARK    5  A    between atoms: C_14  and  C_15
REMARK    6  A    between atoms: C_21  and  O_22
REMARK    7  A    between atoms: O_22  and  C_23
REMARK    8  A    between atoms: C_23  and  C_24
REMARK    9  A    between atoms: C_34  and  C_39
REMARK   10  A    between atoms: N_38  and  C_41
REMARK   11  A    between atoms: C_40  and  C_41
REMARK                            x       y       z     vdW  Elec       q    Type
REMARK                         _______ _______ _______ _____ _____    ______ ____
ROOT
ATOM      1  C   UNL A   1     -24.613   1.002  27.262  0.00  0.00    +0.131 C 
ENDROOT
BRANCH   1   9
ATOM      2  O   UNL A   1     -21.366   1.764  26.276  0.00  0.00    -0.399 OA
ATOM      3  C   UNL A   1     -22.800   2.012  25.988  0.00  0.00    +0.413 C 
ATOM      4  O   UNL A   1     -20.103   1.819  28.321  0.00  0.00    -0.249 OA
ATOM      5  F   UNL A   1     -23.030   1.421  24.773  0.00  0.00    -0.163 F 
ATOM      6  F   UNL A   1     -23.449   3.264  25.856  0.00  0.00    -0.163 F 
ATOM      7  C   UNL A   1     -21.224   1.679  27.697  0.00  0.00    +0.335 C 
ATOM      8  C   UNL A   1     -22.608   1.497  28.429  0.00  0.00    +0.201 C 
ATOM      9  C   UNL A   1     -23.453   1.530  27.176  0.00  0.00    +0.153 C 
BRANCH   8  11
ATOM     10  N   UNL A   1     -22.182  -0.284  30.143  0.00  0.00    -0.195 NA
ATOM     11  C   UNL A   1     -22.352   0.547  29.319  0.00  0.00    +0.084 C 
ENDBRANCH   8  11
ENDBRANCH   1   9
BRANCH   1  12
ATOM     12  C   UNL A   1     -25.688   1.614  26.461  0.00  0.00    +0.036 C 
ATOM     13  C   UNL A   1     -26.250   2.920  26.395  0.00  0.00    +0.074 C 
ATOM     14  C   UNL A   1     -27.438   3.091  25.645  0.00  0.00    +0.106 C 
ATOM     15  N   UNL A   1     -28.075   2.089  25.003  0.00  0.00    -0.208 NA
ATOM     16  C   UNL A   1     -27.543   0.849  25.079  0.00  0.00    +0.253 C 
ATOM     17  C   UNL A   1     -26.354   0.576  25.777  0.00  0.00    +0.191 C 
ATOM     18  F   UNL A   1     -25.860  -0.681  25.795  0.00  0.00    -0.200 F 
BRANCH  13  19
ATOM     19  C   UNL A   1     -25.642   4.093  27.123  0.00  0.00    +0.266 C 
ATOM     20  N   UNL A   1     -25.614   5.252  26.449  0.00  0.00    -0.200 NA
ATOM     21  C   UNL A   1     -25.026   6.479  26.963  0.00  0.00    +0.139 C 
ATOM     22  O   UNL A   1     -25.143   3.966  28.243  0.00  0.00    -0.268 OA
ENDBRANCH  13  19
BRANCH  16  23
ATOM     23  O   UNL A   1     -28.193  -0.208  24.477  0.00  0.00    -0.456 OA
BRANCH  23  24
ATOM     24  C   UNL A   1     -29.460   0.005  23.866  0.00  0.00    +0.243 C 
BRANCH  24  25
ATOM     25  C   UNL A   1     -30.065  -1.377  23.573  0.00  0.00    +0.229 C 
ATOM     26  O   UNL A   1     -30.729  -1.878  24.721  0.00  0.00    -0.216 OA
ENDBRANCH  24  25
ENDBRANCH  23  24
ENDBRANCH  16  23
ENDBRANCH   1  12
BRANCH   1  29
ATOM     27  O   UNL A   1     -26.224   0.976  29.475  0.00  0.00    -0.273 OA
ATOM     28  C   UNL A   1     -25.432   0.090  29.155  0.00  0.00    +0.247 C 
ATOM     29  N   UNL A   1     -24.928  -0.070  27.917  0.00  0.00    -0.202 NA
BRANCH  28  30
ATOM     30  C   UNL A   1     -24.855  -1.012  30.143  0.00  0.00    +0.116 C 
BRANCH  30  31
ATOM     31  C   UNL A   1     -24.973  -2.505  29.788  0.00  0.00    -0.013 C 
ATOM     32  C   UNL A   1     -23.906  -3.173  29.146  0.00  0.00    -0.004 C 
ATOM     33  C   UNL A   1     -23.989  -4.549  28.853  0.00  0.00    -0.000 C 
ATOM     34  C   UNL A   1     -25.137  -5.280  29.205  0.00  0.00    -0.000 C 
ATOM     35  C   UNL A   1     -26.232  -4.611  29.784  0.00  0.00    -0.000 C 
ATOM     36  C   UNL A   1     -26.155  -3.232  30.065  0.00  0.00    -0.004 C 
ENDBRANCH  30  31
BRANCH  30  37
ATOM     37  C   UNL A   1     -25.387  -0.679  31.571  0.00  0.00    +0.086 C 
ATOM     38  C   UNL A   1     -25.189   0.773  32.028  0.00  0.00    +0.020 C 
ATOM     39  C   UNL A   1     -25.336   0.684  33.544  0.00  0.00    +0.020 C 
ATOM     40  C   UNL A   1     -24.829  -0.715  33.905  0.00  0.00    +0.089 C 
ATOM     41  N   UNL A   1     -24.758  -1.481  32.646  0.00  0.00    -0.219 NA
ENDBRANCH  30  37
ENDBRANCH  28  30
ENDBRANCH   1  29
TORSDOF 11
