REMARK  Name = outputs/IAG933/test6/raw/output_1524_IAG933_linker_design_.xyz
REMARK  9 active torsions:
REMARK  status: ('A' for Active; 'I' for Inactive)
REMARK    1  A    between atoms: C_1  and  C_2
REMARK    2  A    between atoms: C_1  and  C_8
REMARK    3  A    between atoms: C_1  and  N_31
REMARK    4  A    between atoms: C_13  and  C_33
REMARK    5  A    between atoms: C_14  and  C_15
REMARK    6  A    between atoms: C_21  and  O_22
REMARK    7  A    between atoms: O_22  and  C_23
REMARK    8  A    between atoms: C_23  and  C_24
REMARK    9  A    between atoms: N_28  and  C_30
REMARK                            x       y       z     vdW  Elec       q    Type
REMARK                         _______ _______ _______ _____ _____    ______ ____
ROOT
ATOM      1  N   UNL A   1     -24.208   0.720  28.285  0.00  0.00    -0.165 NA
ATOM      2  C   UNL A   1     -23.159   1.925  26.305  0.00  0.00    +0.050 C 
ATOM      3  C   UNL A   1     -24.341   1.394  27.087  0.00  0.00    +0.056 C 
ENDROOT
BRANCH   3   4
ATOM      4  C   UNL A   1     -25.688   1.614  26.461  0.00  0.00    +0.049 C 
ATOM      5  C   UNL A   1     -26.250   2.920  26.395  0.00  0.00    +0.077 C 
ATOM      6  C   UNL A   1     -27.438   3.091  25.645  0.00  0.00    +0.107 C 
ATOM      7  N   UNL A   1     -28.075   2.089  25.003  0.00  0.00    -0.208 NA
ATOM      8  C   UNL A   1     -27.543   0.849  25.079  0.00  0.00    +0.253 C 
ATOM      9  C   UNL A   1     -26.354   0.576  25.777  0.00  0.00    +0.194 C 
ATOM     10  F   UNL A   1     -25.860  -0.681  25.795  0.00  0.00    -0.199 F 
BRANCH   5  11
ATOM     11  C   UNL A   1     -25.642   4.093  27.123  0.00  0.00    +0.267 C 
ATOM     12  N   UNL A   1     -25.614   5.252  26.449  0.00  0.00    -0.200 NA
ATOM     13  C   UNL A   1     -25.026   6.479  26.963  0.00  0.00    +0.139 C 
ATOM     14  O   UNL A   1     -25.143   3.966  28.243  0.00  0.00    -0.268 OA
ENDBRANCH   5  11
BRANCH   8  15
ATOM     15  O   UNL A   1     -28.193  -0.208  24.477  0.00  0.00    -0.456 OA
BRANCH  15  16
ATOM     16  C   UNL A   1     -29.460   0.005  23.866  0.00  0.00    +0.243 C 
BRANCH  16  17
ATOM     17  C   UNL A   1     -30.065  -1.377  23.573  0.00  0.00    +0.229 C 
ATOM     18  O   UNL A   1     -30.729  -1.878  24.721  0.00  0.00    -0.216 OA
ENDBRANCH  16  17
ENDBRANCH  15  16
ENDBRANCH   8  15
ENDBRANCH   3   4
BRANCH   1  20
ATOM     19  O   UNL A   1     -21.908   0.331  28.641  0.00  0.00    -0.249 OA
ATOM     20  C   UNL A   1     -23.075   0.243  28.986  0.00  0.00    +0.344 C 
ATOM     21  N   UNL A   1     -23.492  -0.464  30.000  0.00  0.00    -0.183 NA
BRANCH  21  22
ATOM     22  C   UNL A   1     -24.855  -1.012  30.143  0.00  0.00    +0.135 C 
BRANCH  22  23
ATOM     23  C   UNL A   1     -24.973  -2.505  29.788  0.00  0.00    -0.001 C 
ATOM     24  C   UNL A   1     -23.906  -3.173  29.146  0.00  0.00    -0.003 C 
ATOM     25  C   UNL A   1     -23.989  -4.549  28.853  0.00  0.00    -0.000 C 
ATOM     26  C   UNL A   1     -25.137  -5.280  29.205  0.00  0.00    -0.000 C 
ATOM     27  C   UNL A   1     -26.232  -4.611  29.784  0.00  0.00    -0.000 C 
ATOM     28  C   UNL A   1     -26.155  -3.232  30.065  0.00  0.00    -0.003 C 
ENDBRANCH  22  23
BRANCH  22  29
ATOM     29  C   UNL A   1     -25.387  -0.679  31.571  0.00  0.00    +0.097 C 
ATOM     30  C   UNL A   1     -25.189   0.773  32.028  0.00  0.00    +0.021 C 
ATOM     31  C   UNL A   1     -25.336   0.684  33.544  0.00  0.00    +0.020 C 
ATOM     32  C   UNL A   1     -24.829  -0.715  33.905  0.00  0.00    +0.089 C 
ATOM     33  N   UNL A   1     -24.758  -1.481  32.646  0.00  0.00    -0.217 NA
ENDBRANCH  22  29
ENDBRANCH  21  22
ENDBRANCH   1  20
TORSDOF 9
