MODEL 1524
MODEL 1
REMARK VINA RESULT:    -5.675      0.000      0.000
REMARK INTER + INTRA:          -6.589
REMARK INTER:                  -6.339
REMARK INTRA:                  -0.250
REMARK UNBOUND:                -0.250
REMARK  Name = No_1524-gen_results/8p0m/2024-11-27-11-27-31/
REMARK  2 active torsions:
REMARK  status: ('A' for Active; 'I' for Inactive)
REMARK    1  A    between atoms: C_1  and  C_2
REMARK    2  A    between atoms: C_5  and  C_10
REMARK                            x       y       z     vdW  Elec       q    Type
REMARK                         _______ _______ _______ _____ _____    ______ ____
ROOT
ATOM      1  C   UNL A   1     -29.728 -10.795  30.252  0.00  0.00    +0.071 A 
ATOM      2  C   UNL A   1     -29.857 -10.088  31.431  0.00  0.00    +0.004 A 
ATOM      3  C   UNL A   1     -29.062 -10.287  32.629  0.00  0.00    +0.006 A 
ATOM      4  C   UNL A   1     -28.068 -11.291  32.626  0.00  0.00    +0.080 A 
ATOM      5  C   UNL A   1     -27.914 -12.026  31.396  0.00  0.00    +0.006 A 
ATOM      6  C   UNL A   1     -28.654 -11.795  30.261  0.00  0.00    +0.004 A 
ENDROOT
BRANCH   1   7
ATOM      7  C   UNL A   1     -30.366 -10.554  29.253  0.00  0.00    +0.419 C 
ATOM      8  F   UNL A   1     -30.651  -9.263  29.151  0.00  0.00    -0.166 F 
ATOM      9  F   UNL A   1     -29.733 -10.798  28.142  0.00  0.00    -0.166 F 
ATOM     10  F   UNL A   1     -31.675 -10.928  29.102  0.00  0.00    -0.166 F 
ENDBRANCH   1   7
BRANCH   4  11
ATOM     11  C   UNL A   1     -27.246 -11.585  33.761  0.00  0.00    +0.388 C 
ATOM     12  O   UNL A   1     -27.174 -10.813  34.757  0.00  0.00    -0.241 OA
ATOM     13  O   UNL A   1     -26.785 -12.796  33.878  0.00  0.00    -0.241 OA
ENDBRANCH   4  11
TORSDOF 2
ENDMDL
ENDMDL
