REMARK  Name = outputs/IAG933/test6/raw/output_1526_IAG933_linker_design_.xyz
REMARK  14 active torsions:
REMARK  status: ('A' for Active; 'I' for Inactive)
REMARK    1  A    between atoms: C_1  and  C_2
REMARK    2  A    between atoms: C_1  and  C_8
REMARK    3  A    between atoms: C_1  and  C_35
REMARK    4  A    between atoms: C_13  and  C_32
REMARK    5  A    between atoms: C_14  and  C_15
REMARK    6  A    between atoms: C_21  and  O_22
REMARK    7  A    between atoms: O_22  and  C_23
REMARK    8  A    between atoms: C_23  and  C_24
REMARK    9  A    between atoms: C_28  and  O_39
REMARK   10  A    between atoms: C_28  and  N_40
REMARK   11  A    between atoms: C_31  and  C_32
REMARK   12  A    between atoms: C_31  and  C_35
REMARK   13  A    between atoms: C_32  and  C_38
REMARK   14  A    between atoms: C_35  and  O_39
REMARK                            x       y       z     vdW  Elec       q    Type
REMARK                         _______ _______ _______ _____ _____    ______ ____
ROOT
ATOM      1  C   UNL A   1     -22.343   0.870  28.208  0.00  0.00    +0.169 C 
ATOM      2  C   UNL A   1     -23.741   0.810  27.866  0.00  0.00    +0.032 C 
ATOM      3  C   UNL A   1     -21.222   1.598  27.568  0.00  0.00    +0.077 C 
ATOM      4  O   UNL A   1     -22.051   0.085  29.384  0.00  0.00    -0.292 OA
ENDROOT
BRANCH   2   5
ATOM      5  C   UNL A   1     -24.299   1.391  26.721  0.00  0.00    +0.122 C 
BRANCH   5   6
ATOM      6  C   UNL A   1     -25.688   1.614  26.461  0.00  0.00    +0.088 C 
ATOM      7  C   UNL A   1     -26.250   2.920  26.395  0.00  0.00    +0.056 C 
ATOM      8  C   UNL A   1     -27.438   3.091  25.645  0.00  0.00    +0.102 C 
ATOM      9  N   UNL A   1     -28.075   2.089  25.003  0.00  0.00    -0.212 NA
ATOM     10  C   UNL A   1     -27.543   0.849  25.079  0.00  0.00    +0.234 C 
ATOM     11  C   UNL A   1     -26.354   0.576  25.777  0.00  0.00    +0.241 C 
ATOM     12  F   UNL A   1     -25.860  -0.681  25.795  0.00  0.00    -0.227 F 
BRANCH   7  13
ATOM     13  C   UNL A   1     -25.642   4.093  27.123  0.00  0.00    +0.263 C 
ATOM     14  N   UNL A   1     -25.614   5.252  26.449  0.00  0.00    -0.200 NA
ATOM     15  C   UNL A   1     -25.026   6.479  26.963  0.00  0.00    +0.139 C 
ATOM     16  O   UNL A   1     -25.143   3.966  28.243  0.00  0.00    -0.269 OA
ENDBRANCH   7  13
BRANCH  10  17
ATOM     17  O   UNL A   1     -28.193  -0.208  24.477  0.00  0.00    -0.459 OA
BRANCH  17  18
ATOM     18  C   UNL A   1     -29.460   0.005  23.866  0.00  0.00    +0.242 C 
BRANCH  18  19
ATOM     19  C   UNL A   1     -30.065  -1.377  23.573  0.00  0.00    +0.229 C 
ATOM     20  O   UNL A   1     -30.729  -1.878  24.721  0.00  0.00    -0.216 OA
ENDBRANCH  18  19
ENDBRANCH  17  18
ENDBRANCH  10  17
ENDBRANCH   5   6
BRANCH   5  22
ATOM     21  N   UNL A   1     -22.638   2.675  25.173  0.00  0.00    -0.196 NA
ATOM     22  C   UNL A   1     -23.358   2.067  25.782  0.00  0.00    +0.077 C 
ENDBRANCH   5  22
ENDBRANCH   2   5
BRANCH   2  23
ATOM     23  C   UNL A   1     -24.621  -0.031  28.902  0.00  0.00    +0.144 C 
BRANCH  23  24
ATOM     24  C   UNL A   1     -24.855  -1.012  30.143  0.00  0.00    +0.070 C 
BRANCH  24  25
ATOM     25  C   UNL A   1     -24.973  -2.505  29.788  0.00  0.00    -0.018 C 
ATOM     26  C   UNL A   1     -23.906  -3.173  29.146  0.00  0.00    -0.004 C 
ATOM     27  C   UNL A   1     -23.989  -4.549  28.853  0.00  0.00    -0.000 C 
ATOM     28  C   UNL A   1     -25.137  -5.280  29.205  0.00  0.00    -0.000 C 
ATOM     29  C   UNL A   1     -26.232  -4.611  29.784  0.00  0.00    -0.000 C 
ATOM     30  C   UNL A   1     -26.155  -3.232  30.065  0.00  0.00    -0.004 C 
ENDBRANCH  24  25
BRANCH  24  31
ATOM     31  C   UNL A   1     -25.387  -0.679  31.571  0.00  0.00    +0.080 C 
ATOM     32  C   UNL A   1     -25.189   0.773  32.028  0.00  0.00    +0.019 C 
ATOM     33  C   UNL A   1     -25.336   0.684  33.544  0.00  0.00    +0.020 C 
ATOM     34  C   UNL A   1     -24.829  -0.715  33.905  0.00  0.00    +0.089 C 
ATOM     35  N   UNL A   1     -24.758  -1.481  32.646  0.00  0.00    -0.219 NA
ENDBRANCH  24  31
ENDBRANCH  23  24
BRANCH  23  36
ATOM     36  O   UNL A   1     -26.131   0.152  28.568  0.00  0.00    -0.335 OA
BRANCH  36  37
ATOM     37  C   UNL A   1     -27.013   0.783  29.346  0.00  0.00    +0.220 C 
BRANCH  37  41
ATOM     38  C   UNL A   1     -30.274  -0.736  29.995  0.00  0.00    +0.003 C 
ATOM     39  C   UNL A   1     -29.645  -0.744  28.587  0.00  0.00    +0.017 C 
ATOM     40  C   UNL A   1     -29.866   0.404  30.715  0.00  0.00    +0.017 C 
ATOM     41  N   UNL A   1     -28.146   0.541  29.257  0.00  0.00    -0.248 NA
ATOM     42  C   UNL A   1     -28.905   1.186  30.122  0.00  0.00    +0.074 C 
ATOM     43  C   UNL A   1     -28.447  -0.553  28.596  0.00  0.00    +0.074 C 
ENDBRANCH  37  41
ENDBRANCH  36  37
ENDBRANCH  23  36
ENDBRANCH   2  23
TORSDOF 14
