MODEL 1526
MODEL 1
REMARK VINA RESULT:    -7.464      0.000      0.000
REMARK INTER + INTRA:         -10.597
REMARK INTER:                  -9.210
REMARK INTRA:                  -1.387
REMARK UNBOUND:                -1.387
REMARK  Name = No_1526-gen_results/8p0m/2024-11-27-11-27-31/
REMARK  4 active torsions:
REMARK  status: ('A' for Active; 'I' for Inactive)
REMARK    1  A    between atoms: C_2  and  C_7
REMARK    2  A    between atoms: C_7  and  C_8
REMARK    3  A    between atoms: C_8  and  C_9
REMARK    4  A    between atoms: C_8  and  C_15
REMARK                            x       y       z     vdW  Elec       q    Type
REMARK                         _______ _______ _______ _____ _____    ______ ____
ROOT
ATOM      1  C   UNL A   1     -23.985  -0.584  29.914  0.00  0.00    +0.122 C 
ENDROOT
BRANCH   1   2
ATOM      2  C   UNL A   1     -23.156   0.286  29.236  0.00  0.00    -0.014 A 
ATOM      3  C   UNL A   1     -23.616   1.248  28.255  0.00  0.00    -0.004 A 
ATOM      4  C   UNL A   1     -22.669   1.945  27.467  0.00  0.00    -0.000 A 
ATOM      5  C   UNL A   1     -21.368   1.492  27.467  0.00  0.00    -0.000 A 
ATOM      6  C   UNL A   1     -21.036   0.370  28.269  0.00  0.00    -0.000 A 
ATOM      7  C   UNL A   1     -21.857  -0.167  29.144  0.00  0.00    -0.004 A 
ENDBRANCH   1   2
BRANCH   1   8
ATOM      8  C   UNL A   1     -23.890  -0.671  31.326  0.00  0.00    +0.401 C 
ATOM      9  F   UNL A   1     -23.143  -1.579  31.687  0.00  0.00    -0.170 F 
ATOM     10  F   UNL A   1     -25.108  -1.023  31.903  0.00  0.00    -0.170 F 
ATOM     11  F   UNL A   1     -23.492   0.478  31.888  0.00  0.00    -0.170 F 
ENDBRANCH   1   8
BRANCH   1  12
ATOM     12  C   UNL A   1     -25.190  -1.230  29.298  0.00  0.00    +0.039 C 
BRANCH  12  14
ATOM     13  C   UNL A   1     -24.122  -3.245  28.561  0.00  0.00    -0.004 A 
ATOM     14  C   UNL A   1     -25.059  -2.735  29.131  0.00  0.00    -0.022 A 
ATOM     15  C   UNL A   1     -26.081  -3.434  29.686  0.00  0.00    -0.004 A 
ATOM     16  C   UNL A   1     -26.056  -4.839  29.597  0.00  0.00    -0.000 A 
ATOM     17  C   UNL A   1     -23.983  -4.678  28.516  0.00  0.00    -0.000 A 
ATOM     18  C   UNL A   1     -24.998  -5.426  29.033  0.00  0.00    -0.000 A 
ENDBRANCH  12  14
ENDBRANCH   1  12
TORSDOF 4
ENDMDL
ENDMDL
