MODEL 1527
MODEL 1
REMARK VINA RESULT:    -7.698      0.000      0.000
REMARK INTER + INTRA:          -8.336
REMARK INTER:                  -8.148
REMARK INTRA:                  -0.188
REMARK UNBOUND:                -0.188
REMARK  Name = No_1527-gen_results/8p0m/2024-11-27-11-27-31/
REMARK  1 active torsions:
REMARK  status: ('A' for Active; 'I' for Inactive)
REMARK    1  A    between atoms: C_3  and  C_13
REMARK                            x       y       z     vdW  Elec       q    Type
REMARK                         _______ _______ _______ _____ _____    ______ ____
ROOT
ATOM      1  O   UNL A   1     -30.584  -9.740  29.927  0.00  0.00    -0.265 OA
ATOM      2  C   UNL A   1     -29.798 -10.231  30.745  0.00  0.00    +0.279 A 
ATOM      3  C   UNL A   1     -29.122 -11.356  30.509  0.00  0.00    +0.058 A 
ATOM      4  C   UNL A   1     -28.397 -11.969  31.515  0.00  0.00    +0.011 A 
ATOM      5  N   UNL A   1     -29.582  -9.709  32.049  0.00  0.00    -0.212 NA
ATOM      6  C   UNL A   1     -28.828 -10.205  33.054  0.00  0.00    +0.068 A 
ATOM      7  C   UNL A   1     -28.198 -11.387  32.820  0.00  0.00    +0.069 A 
ATOM      8  C   UNL A   1     -27.288 -11.677  33.814  0.00  0.00    +0.266 C 
ATOM      9  O   UNL A   1     -26.611 -12.680  33.766  0.00  0.00    -0.268 OA
ATOM     10  N   UNL A   1     -26.873 -10.735  34.718  0.00  0.00    -0.201 NA
ATOM     11  C   UNL A   1     -27.533  -9.511  34.906  0.00  0.00    +0.122 C 
ATOM     12  C   UNL A   1     -28.419  -9.270  34.038  0.00  0.00    +0.070 C 
ENDROOT
BRANCH   3  13
ATOM     13  C   UNL A   1     -29.310 -12.026  29.196  0.00  0.00    +0.005 A 
ATOM     14  C   UNL A   1     -28.936 -11.734  28.158  0.00  0.00    +0.000 A 
ATOM     15  C   UNL A   1     -29.178 -12.465  26.924  0.00  0.00    +0.000 A 
ATOM     16  C   UNL A   1     -29.875 -13.672  27.038  0.00  0.00    +0.000 A 
ATOM     17  C   UNL A   1     -30.295 -14.101  28.282  0.00  0.00    +0.000 A 
ATOM     18  C   UNL A   1     -30.101 -13.315  29.421  0.00  0.00    +0.000 A 
ENDBRANCH   3  13
TORSDOF 1
ENDMDL
ENDMDL
