MODEL 1528
MODEL 1
REMARK VINA RESULT:    -7.564      0.000      0.000
REMARK INTER + INTRA:         -10.039
REMARK INTER:                  -9.332
REMARK INTRA:                  -0.707
REMARK UNBOUND:                -0.707
REMARK  Name = No_1528-gen_results/8p0m/2024-11-27-11-27-31/
REMARK  4 active torsions:
REMARK  status: ('A' for Active; 'I' for Inactive)
REMARK    1  A    between atoms: C_2  and  N_23
REMARK    2  A    between atoms: C_10  and  C_11
REMARK    3  A    between atoms: C_17  and  C_18
REMARK    4  A    between atoms: C_24  and  C_25
REMARK                            x       y       z     vdW  Elec       q    Type
REMARK                         _______ _______ _______ _____ _____    ______ ____
ROOT
ATOM      1  C   UNL A   1     -25.499   1.619  25.398  0.00  0.00    +0.015 A 
ATOM      2  C   UNL A   1     -26.315   1.024  25.698  0.00  0.00    +0.081 A 
ATOM      3  C   UNL A   1     -24.275   1.361  26.157  0.00  0.00    -0.023 A 
ATOM      4  C   UNL A   1     -22.972   1.993  25.855  0.00  0.00    +0.034 C 
ATOM      5  C   UNL A   1     -26.521  -0.010  26.702  0.00  0.00    +0.019 A 
ATOM      6  C   UNL A   1     -25.392  -0.274  27.449  0.00  0.00    -0.002 A 
ATOM      7  C   UNL A   1     -24.240   0.360  27.163  0.00  0.00    -0.011 A 
ATOM      8  C   UNL A   1     -21.985   1.861  26.850  0.00  0.00    +0.070 C 
ATOM      9  C   UNL A   1     -22.001   0.875  27.829  0.00  0.00    +0.163 C 
ATOM     10  C   UNL A   1     -23.163   0.192  28.083  0.00  0.00    +0.156 C 
ATOM     11  O   UNL A   1     -20.929   0.743  28.634  0.00  0.00    -0.295 OA
ENDROOT
BRANCH  10  12
ATOM     12  C   UNL A   1     -23.130  -0.792  29.186  0.00  0.00    +0.236 C 
ATOM     13  O   UNL A   1     -22.763  -1.924  28.930  0.00  0.00    -0.274 OA
ATOM     14  N   UNL A   1     -23.601  -0.453  30.367  0.00  0.00    -0.278 N 
ATOM     15  C   UNL A   1     -23.629  -1.434  31.484  0.00  0.00    +0.093 C 
ATOM     16  C   UNL A   1     -24.059   0.867  30.691  0.00  0.00    +0.105 C 
ATOM     17  C   UNL A   1     -24.013  -1.205  32.428  0.00  0.00    +0.022 C 
ATOM     18  C   UNL A   1     -24.626   1.027  32.015  0.00  0.00    +0.123 C 
ATOM     19  C   UNL A   1     -24.549   0.002  32.891  0.00  0.00    +0.015 C 
BRANCH  18  20
ATOM     20  C   UNL A   1     -25.162   2.332  32.348  0.00  0.00    +0.366 C 
ATOM     21  O   UNL A   1     -25.807   2.673  33.066  0.00  0.00    -0.246 OA
ATOM     22  O   UNL A   1     -24.561   3.344  31.457  0.00  0.00    -0.246 OA
ENDBRANCH  18  20
ENDBRANCH  10  12
BRANCH   2  23
ATOM     23  N   UNL A   1     -27.650   1.018  24.995  0.00  0.00    -0.244 NA
ATOM     24  C   UNL A   1     -28.131   0.825  23.997  0.00  0.00    +0.099 C 
BRANCH  24  25
ATOM     25  C   UNL A   1     -29.487   0.964  23.665  0.00  0.00    +0.016 C 
ATOM     26  C   UNL A   1     -30.170  -0.233  23.397  0.00  0.00    -0.024 C 
ATOM     27  C   UNL A   1     -29.633  -1.394  23.612  0.00  0.00    +0.031 C 
ENDBRANCH  24  25
ENDBRANCH   2  23
TORSDOF 4
ENDMDL
ENDMDL
