REMARK  Name = No_1528-gen_results/8p0m/2024-11-27-11-27-31/
REMARK  4 active torsions:
REMARK  status: ('A' for Active; 'I' for Inactive)
REMARK    1  A    between atoms: C_2  and  N_23
REMARK    2  A    between atoms: C_10  and  C_11
REMARK    3  A    between atoms: C_17  and  C_18
REMARK    4  A    between atoms: C_24  and  C_25
REMARK                            x       y       z     vdW  Elec       q    Type
REMARK                         _______ _______ _______ _____ _____    ______ ____
ROOT
ATOM      1  C   UNL A   1     -28.016  -0.814  28.878  0.00  0.00    +0.015 A 
ATOM      2  C   UNL A   1     -28.469  -0.785  29.829  0.00  0.00    +0.081 A 
ATOM      3  C   UNL A   1     -27.087   0.290  28.638  0.00  0.00    -0.023 A 
ATOM      4  C   UNL A   1     -26.252   0.411  27.422  0.00  0.00    +0.034 C 
ATOM      5  C   UNL A   1     -28.391   0.104  30.980  0.00  0.00    +0.019 A 
ATOM      6  C   UNL A   1     -27.533   1.167  30.787  0.00  0.00    -0.002 A 
ATOM      7  C   UNL A   1     -26.828   1.256  29.645  0.00  0.00    -0.011 A 
ATOM      8  C   UNL A   1     -25.644   1.665  27.222  0.00  0.00    +0.070 C 
ATOM      9  C   UNL A   1     -25.428   2.590  28.237  0.00  0.00    +0.163 C 
ATOM     10  C   UNL A   1     -26.108   2.467  29.421  0.00  0.00    +0.156 C 
ATOM     11  O   UNL A   1     -24.699   3.690  27.966  0.00  0.00    -0.295 OA
ENDROOT
BRANCH  10  12
ATOM     12  C   UNL A   1     -25.886   3.525  30.430  0.00  0.00    +0.236 C 
ATOM     13  O   UNL A   1     -25.111   3.292  31.339  0.00  0.00    -0.274 OA
ATOM     14  N   UNL A   1     -26.607   4.625  30.381  0.00  0.00    -0.278 N 
ATOM     15  C   UNL A   1     -26.444   5.686  31.409  0.00  0.00    +0.093 C 
ATOM     16  C   UNL A   1     -27.542   4.916  29.333  0.00  0.00    +0.105 C 
ATOM     17  C   UNL A   1     -27.013   6.562  31.412  0.00  0.00    +0.022 C 
ATOM     18  C   UNL A   1     -28.309   6.135  29.498  0.00  0.00    +0.123 C 
ATOM     19  C   UNL A   1     -28.000   6.974  30.509  0.00  0.00    +0.015 C 
BRANCH  18  20
ATOM     20  C   UNL A   1     -29.312   6.422  28.491  0.00  0.00    +0.366 C 
ATOM     21  O   UNL A   1     -29.922   7.222  28.304  0.00  0.00    -0.246 OA
ATOM     22  O   UNL A   1     -29.370   5.301  27.532  0.00  0.00    -0.246 OA
ENDBRANCH  18  20
ENDBRANCH  10  12
BRANCH   2  23
ATOM     23  N   UNL A   1     -29.372  -1.870  30.360  0.00  0.00    -0.244 NA
ATOM     24  C   UNL A   1     -29.873  -2.232  31.300  0.00  0.00    +0.099 C 
BRANCH  24  25
ATOM     25  C   UNL A   1     -30.665  -3.380  31.454  0.00  0.00    +0.016 C 
ATOM     26  C   UNL A   1     -30.709  -4.238  30.344  0.00  0.00    -0.024 C 
ATOM     27  C   UNL A   1     -29.937  -4.072  29.315  0.00  0.00    +0.031 C 
ENDBRANCH  24  25
ENDBRANCH   2  23
TORSDOF 4
