MODEL 1529
MODEL 1
REMARK VINA RESULT:    -6.690      0.000      0.000
REMARK INTER + INTRA:          -9.830
REMARK INTER:                  -9.037
REMARK INTRA:                  -0.793
REMARK UNBOUND:                -0.793
REMARK  Name = No_1529-gen_results/8p0m/2024-11-27-11-27-31/
REMARK  6 active torsions:
REMARK  status: ('A' for Active; 'I' for Inactive)
REMARK    1  A    between atoms: C_1  and  O_17
REMARK    2  A    between atoms: C_3  and  C_7
REMARK    3  A    between atoms: C_5  and  C_14
REMARK    4  A    between atoms: O_17  and  C_18
REMARK    5  A    between atoms: C_18  and  C_19
REMARK    6  A    between atoms: C_19  and  C_20
REMARK                            x       y       z     vdW  Elec       q    Type
REMARK                         _______ _______ _______ _____ _____    ______ ____
ROOT
ATOM      1  C   UNL A   1     -29.643  -9.639  32.351  0.00  0.00    +0.139 A 
ATOM      2  C   UNL A   1     -29.915  -9.951  31.215  0.00  0.00    +0.033 A 
ATOM      3  C   UNL A   1     -29.302 -10.964  30.498  0.00  0.00    -0.019 A 
ATOM      4  C   UNL A   1     -28.292 -11.714  31.170  0.00  0.00    +0.003 A 
ATOM      5  C   UNL A   1     -28.121 -11.455  32.476  0.00  0.00    +0.083 A 
ATOM      6  C   UNL A   1     -28.778 -10.508  33.082  0.00  0.00    +0.043 A 
ENDROOT
BRANCH   3   7
ATOM      7  C   UNL A   1     -29.578 -11.221  29.039  0.00  0.00    +0.030 C 
ATOM      8  C   UNL A   1     -29.010 -11.838  28.208  0.00  0.00    +0.005 C 
ATOM      9  C   UNL A   1     -29.430 -11.982  26.798  0.00  0.00    +0.008 C 
ATOM     10  C   UNL A   1     -30.504 -11.185  26.354  0.00  0.00    +0.065 C 
ATOM     11  C   UNL A   1     -31.076 -10.275  27.262  0.00  0.00    +0.151 C 
ATOM     12  C   UNL A   1     -30.688 -10.246  28.584  0.00  0.00    +0.069 C 
ATOM     13  O   UNL A   1     -32.091  -9.538  26.761  0.00  0.00    -0.296 OA
ENDBRANCH   3   7
BRANCH   5  14
ATOM     14  C   UNL A   1     -27.059 -12.379  33.052  0.00  0.00    +0.388 C 
ATOM     15  O   UNL A   1     -26.435 -12.957  32.480  0.00  0.00    -0.241 OA
ATOM     16  O   UNL A   1     -27.145 -12.531  34.466  0.00  0.00    -0.241 OA
ENDBRANCH   5  14
BRANCH   1  17
ATOM     17  O   UNL A   1     -30.304  -8.662  33.039  0.00  0.00    -0.475 OA
BRANCH  17  18
ATOM     18  C   UNL A   1     -29.538  -7.853  33.781  0.00  0.00    +0.217 C 
BRANCH  18  19
ATOM     19  C   UNL A   1     -29.757  -7.777  35.047  0.00  0.00    +0.161 C 
BRANCH  19  20
ATOM     20  C   UNL A   1     -28.620  -7.940  35.806  0.00  0.00    +0.369 C 
ATOM     21  O   UNL A   1     -27.835  -6.943  35.973  0.00  0.00    -0.245 OA
ATOM     22  O   UNL A   1     -28.322  -9.061  36.321  0.00  0.00    -0.245 OA
ENDBRANCH  19  20
ENDBRANCH  18  19
ENDBRANCH  17  18
ENDBRANCH   1  17
TORSDOF 6
ENDMDL
ENDMDL
