MODEL 152
MODEL 1
REMARK VINA RESULT:    -7.521      0.000      0.000
REMARK INTER + INTRA:          -9.861
REMARK INTER:                  -9.280
REMARK INTRA:                  -0.581
REMARK UNBOUND:                -0.581
REMARK  Name = No_152-gen_results/8p0m/2024-11-27-11-27-31/
REMARK  4 active torsions:
REMARK  status: ('A' for Active; 'I' for Inactive)
REMARK    1  A    between atoms: C_6  and  C_13
REMARK    2  A    between atoms: C_20  and  O_22
REMARK    3  A    between atoms: O_22  and  C_23
REMARK    4  A    between atoms: C_23  and  C_24
REMARK                            x       y       z     vdW  Elec       q    Type
REMARK                         _______ _______ _______ _____ _____    ______ ____
ROOT
ATOM      1  C   UNL A   1     -13.734   3.208  37.960  0.00  0.00    +0.005 A 
ATOM      2  C   UNL A   1     -13.107   2.646  37.092  0.00  0.00    +0.014 A 
ATOM      3  C   UNL A   1     -13.600   2.551  35.795  0.00  0.00    +0.000 A 
ATOM      4  C   UNL A   1     -12.931   1.878  34.645  0.00  0.00    +0.017 A 
ATOM      5  C   UNL A   1     -13.467   1.774  33.314  0.00  0.00    +0.001 A 
ATOM      6  C   UNL A   1     -15.118   3.640  37.708  0.00  0.00    +0.080 A 
ATOM      7  C   UNL A   1     -15.664   3.657  36.458  0.00  0.00    +0.007 A 
ATOM      8  C   UNL A   1     -14.901   3.096  35.421  0.00  0.00    +0.000 A 
ATOM      9  C   UNL A   1     -12.725   1.136  32.363  0.00  0.00    +0.003 A 
ATOM     10  C   UNL A   1     -11.411   0.796  32.421  0.00  0.00    +0.038 A 
ATOM     11  C   UNL A   1     -11.483   1.774  34.501  0.00  0.00    +0.091 A 
ATOM     12  C   UNL A   1     -10.806   1.124  33.561  0.00  0.00    +0.154 A 
ATOM     13  O   UNL A   1      -9.481   0.895  33.741  0.00  0.00    -0.454 OA
ATOM     14  C   UNL A   1      -9.020   1.405  34.939  0.00  0.00    +0.312 C 
ATOM     15  N   UNL A   1     -10.590   1.892  35.610  0.00  0.00    -0.216 N 
ATOM     16  C   UNL A   1     -10.505   2.558  36.762  0.00  0.00    +0.264 C 
ATOM     17  C   UNL A   1     -11.920   2.700  37.324  0.00  0.00    +0.214 C 
ATOM     18  O   UNL A   1      -9.688   3.435  36.918  0.00  0.00    -0.271 OA
ENDROOT
BRANCH   6  19
ATOM     19  C   UNL A   1     -15.967   4.250  38.792  0.00  0.00    +0.388 C 
ATOM     20  O   UNL A   1     -15.882   5.469  38.916  0.00  0.00    -0.241 OA
ATOM     21  O   UNL A   1     -16.891   3.661  39.322  0.00  0.00    -0.241 OA
ENDBRANCH   6  19
BRANCH  17  22
ATOM     22  O   UNL A   1     -11.487   2.928  38.721  0.00  0.00    -0.333 OA
BRANCH  22  23
ATOM     23  C   UNL A   1     -10.740   1.961  39.300  0.00  0.00    +0.228 C 
BRANCH  23  24
ATOM     24  C   UNL A   1     -11.485   1.189  40.069  0.00  0.00    +0.256 C 
ATOM     25  O   UNL A   1     -11.730   1.565  41.148  0.00  0.00    -0.272 OA
ATOM     26  N   UNL A   1     -11.793  -0.086  39.706  0.00  0.00    -0.278 N 
ATOM     27  C   UNL A   1     -12.416  -1.068  40.537  0.00  0.00    +0.093 C 
ATOM     28  C   UNL A   1     -12.313  -2.243  40.130  0.00  0.00    +0.022 C 
ATOM     29  C   UNL A   1     -11.882  -2.579  38.910  0.00  0.00    +0.004 C 
ATOM     30  C   UNL A   1     -11.330  -1.614  38.022  0.00  0.00    +0.022 C 
ATOM     31  C   UNL A   1     -11.032  -0.367  38.556  0.00  0.00    +0.093 C 
ENDBRANCH  23  24
ENDBRANCH  22  23
ENDBRANCH  17  22
TORSDOF 4
ENDMDL
ENDMDL
