REMARK  Name = outputs/IAG933/test6/raw/output_153_IAG933_linker_design_.xyz
REMARK  10 active torsions:
REMARK  status: ('A' for Active; 'I' for Inactive)
REMARK    1  A    between atoms: C_1  and  C_2
REMARK    2  A    between atoms: C_1  and  C_8
REMARK    3  A    between atoms: C_1  and  C_37
REMARK    4  A    between atoms: C_13  and  C_31
REMARK    5  A    between atoms: C_14  and  C_15
REMARK    6  A    between atoms: C_21  and  O_22
REMARK    7  A    between atoms: O_22  and  C_23
REMARK    8  A    between atoms: C_23  and  C_24
REMARK    9  A    between atoms: C_34  and  C_37
REMARK   10  A    between atoms: N_36  and  C_44
REMARK                            x       y       z     vdW  Elec       q    Type
REMARK                         _______ _______ _______ _____ _____    ______ ____
ROOT
ATOM      1  N   UNL A   1     -23.271   1.806  26.500  0.00  0.00    -0.159 NA
ATOM      2  N   UNL A   1     -22.289   0.132  29.398  0.00  0.00    -0.008 NA
ATOM      3  C   UNL A   1     -24.560   1.365  27.096  0.00  0.00    +0.092 C 
ATOM      4  C   UNL A   1     -24.420   0.538  28.196  0.00  0.00    +0.090 C 
ATOM      5  O   UNL A   1     -21.163   1.542  27.069  0.00  0.00    -0.249 OA
ATOM      6  C   UNL A   1     -25.428  -0.145  29.038  0.00  0.00    +0.054 C 
ATOM      7  C   UNL A   1     -22.370   1.379  27.242  0.00  0.00    +0.347 C 
ATOM      8  N   UNL A   1     -23.027   0.635  28.355  0.00  0.00    -0.149 N 
ENDROOT
BRANCH   3   9
ATOM      9  C   UNL A   1     -25.688   1.614  26.461  0.00  0.00    +0.055 C 
ATOM     10  C   UNL A   1     -26.250   2.920  26.395  0.00  0.00    +0.078 C 
ATOM     11  C   UNL A   1     -27.438   3.091  25.645  0.00  0.00    +0.107 C 
ATOM     12  N   UNL A   1     -28.075   2.089  25.003  0.00  0.00    -0.208 NA
ATOM     13  C   UNL A   1     -27.543   0.849  25.079  0.00  0.00    +0.253 C 
ATOM     14  C   UNL A   1     -26.354   0.576  25.777  0.00  0.00    +0.194 C 
ATOM     15  F   UNL A   1     -25.860  -0.681  25.795  0.00  0.00    -0.199 F 
BRANCH  10  16
ATOM     16  C   UNL A   1     -25.642   4.093  27.123  0.00  0.00    +0.267 C 
ATOM     17  N   UNL A   1     -25.614   5.252  26.449  0.00  0.00    -0.200 NA
ATOM     18  C   UNL A   1     -25.026   6.479  26.963  0.00  0.00    +0.139 C 
ATOM     19  O   UNL A   1     -25.143   3.966  28.243  0.00  0.00    -0.268 OA
ENDBRANCH  10  16
BRANCH  13  20
ATOM     20  O   UNL A   1     -28.193  -0.208  24.477  0.00  0.00    -0.456 OA
BRANCH  20  21
ATOM     21  C   UNL A   1     -29.460   0.005  23.866  0.00  0.00    +0.243 C 
BRANCH  21  22
ATOM     22  C   UNL A   1     -30.065  -1.377  23.573  0.00  0.00    +0.229 C 
ATOM     23  O   UNL A   1     -30.729  -1.878  24.721  0.00  0.00    -0.216 OA
ENDBRANCH  21  22
ENDBRANCH  20  21
ENDBRANCH  13  20
ENDBRANCH   3   9
BRANCH   6  24
ATOM     24  C   UNL A   1     -26.911  -0.148  28.885  0.00  0.00    +0.265 C 
ATOM     25  N   UNL A   1     -27.878   0.906  29.291  0.00  0.00    -0.171 NA
ATOM     26  O   UNL A   1     -27.522  -1.075  28.368  0.00  0.00    -0.269 OA
BRANCH  25  32
ATOM     27  C   UNL A   1     -29.482   1.955  31.397  0.00  0.00    +0.182 C 
ATOM     28  C   UNL A   1     -29.507   3.160  30.490  0.00  0.00    +0.040 C 
ATOM     29  O   UNL A   1     -30.246   0.583  29.564  0.00  0.00    -0.201 OA
ATOM     30  O   UNL A   1     -29.925   0.675  30.905  0.00  0.00    -0.219 OA
ATOM     31  C   UNL A   1     -29.570   2.747  29.028  0.00  0.00    +0.059 C 
ATOM     32  C   UNL A   1     -29.219   1.286  28.827  0.00  0.00    +0.246 C 
ENDBRANCH  25  32
ENDBRANCH   6  24
BRANCH   6  33
ATOM     33  C   UNL A   1     -24.855  -1.012  30.143  0.00  0.00    +0.066 C 
BRANCH  33  34
ATOM     34  C   UNL A   1     -24.973  -2.505  29.788  0.00  0.00    -0.017 C 
ATOM     35  C   UNL A   1     -23.906  -3.173  29.146  0.00  0.00    -0.004 C 
ATOM     36  C   UNL A   1     -23.989  -4.549  28.853  0.00  0.00    -0.000 C 
ATOM     37  C   UNL A   1     -25.137  -5.280  29.205  0.00  0.00    -0.000 C 
ATOM     38  C   UNL A   1     -26.232  -4.611  29.784  0.00  0.00    -0.000 C 
ATOM     39  C   UNL A   1     -26.155  -3.232  30.065  0.00  0.00    -0.004 C 
ENDBRANCH  33  34
BRANCH  33  40
ATOM     40  C   UNL A   1     -25.387  -0.679  31.571  0.00  0.00    +0.081 C 
ATOM     41  C   UNL A   1     -25.189   0.773  32.028  0.00  0.00    +0.019 C 
ATOM     42  C   UNL A   1     -25.336   0.684  33.544  0.00  0.00    +0.020 C 
ATOM     43  C   UNL A   1     -24.829  -0.715  33.905  0.00  0.00    +0.089 C 
ATOM     44  N   UNL A   1     -24.758  -1.481  32.646  0.00  0.00    -0.219 NA
ENDBRANCH  33  40
ENDBRANCH   6  33
TORSDOF 10
