REMARK  Name = No_1530-gen_results/8p0m/2024-11-27-11-27-31/
REMARK  6 active torsions:
REMARK  status: ('A' for Active; 'I' for Inactive)
REMARK    1  A    between atoms: C_1  and  C_2
REMARK    2  A    between atoms: C_5  and  C_10
REMARK    3  A    between atoms: C_7  and  O_14
REMARK    4  A    between atoms: O_14  and  C_15
REMARK    5  A    between atoms: C_15  and  C_16
REMARK    6  A    between atoms: C_16  and  C_18
REMARK                            x       y       z     vdW  Elec       q    Type
REMARK                         _______ _______ _______ _____ _____    ______ ____
ROOT
ATOM      1  C   UNL A   1     -27.064  -0.119  28.608  0.00  0.00    +0.078 A 
ATOM      2  C   UNL A   1     -25.792  -0.430  29.076  0.00  0.00    +0.016 A 
ATOM      3  C   UNL A   1     -24.546   0.349  28.823  0.00  0.00    +0.064 A 
ATOM      4  C   UNL A   1     -24.659   1.420  27.888  0.00  0.00    +0.093 A 
ATOM      5  C   UNL A   1     -25.947   1.681  27.379  0.00  0.00    +0.044 A 
ATOM      6  C   UNL A   1     -27.044   0.974  27.687  0.00  0.00    +0.140 A 
ATOM      7 CL   UNL A   1     -23.081  -0.154  29.509  0.00  0.00    -0.082 Cl
ENDROOT
BRANCH   1   8
ATOM      8  C   UNL A   1     -28.016  -0.814  28.878  0.00  0.00    +0.344 C 
ATOM      9  F   UNL A   1     -27.923  -2.032  29.100  0.00  0.00    -0.193 F 
ATOM     10  F   UNL A   1     -29.260  -0.455  28.812  0.00  0.00    -0.193 F 
ENDBRANCH   1   8
BRANCH   4  11
ATOM     11  C   UNL A   1     -23.462   2.149  27.609  0.00  0.00    +0.389 C 
ATOM     12  O   UNL A   1     -22.320   1.890  28.072  0.00  0.00    -0.240 OA
ATOM     13  O   UNL A   1     -23.570   3.028  26.578  0.00  0.00    -0.240 OA
ENDBRANCH   4  11
BRANCH   6  14
ATOM     14  O   UNL A   1     -28.215   1.276  27.123  0.00  0.00    -0.479 OA
BRANCH  14  15
ATOM     15  C   UNL A   1     -28.165   2.235  26.132  0.00  0.00    +0.170 C 
ATOM     16  C   UNL A   1     -27.899   1.733  24.823  0.00  0.00    +0.048 C 
BRANCH  15  17
ATOM     17  C   UNL A   1     -28.629   3.311  26.419  0.00  0.00    +0.070 C 
BRANCH  17  18
ATOM     18  C   UNL A   1     -29.493   3.854  26.543  0.00  0.00    -0.019 A 
ATOM     19  C   UNL A   1     -29.870   5.285  26.846  0.00  0.00    -0.004 A 
ATOM     20  C   UNL A   1     -31.156   5.832  26.975  0.00  0.00    -0.000 A 
ATOM     21  C   UNL A   1     -32.207   4.935  26.741  0.00  0.00    -0.000 A 
ATOM     22  C   UNL A   1     -31.986   3.609  26.496  0.00  0.00    -0.000 A 
ATOM     23  C   UNL A   1     -30.792   3.095  26.426  0.00  0.00    -0.004 A 
ENDBRANCH  17  18
ENDBRANCH  15  17
ENDBRANCH  14  15
ENDBRANCH   6  14
TORSDOF 6
