MODEL 1531
MODEL 1
REMARK VINA RESULT:    -6.371      0.000      0.000
REMARK INTER + INTRA:          -8.338
REMARK INTER:                  -7.861
REMARK INTRA:                  -0.477
REMARK UNBOUND:                -0.477
REMARK  Name = No_1531-gen_results/8p0m/2024-11-27-11-27-31/
REMARK  4 active torsions:
REMARK  status: ('A' for Active; 'I' for Inactive)
REMARK    1  A    between atoms: C_1  and  C_8
REMARK    2  A    between atoms: C_5  and  C_10
REMARK    3  A    between atoms: C_8  and  C_9
REMARK    4  A    between atoms: C_9  and  C_14
REMARK                            x       y       z     vdW  Elec       q    Type
REMARK                         _______ _______ _______ _____ _____    ______ ____
ROOT
ATOM      1  C   UNL A   1     -23.317  -1.873  29.539  0.00  0.00    -0.022 C 
ATOM      2  C   UNL A   1     -23.359  -0.919  28.796  0.00  0.00    +0.015 C 
ATOM      3  C   UNL A   1     -22.409   0.086  28.736  0.00  0.00    +0.036 C 
ATOM      4  C   UNL A   1     -22.473   1.274  27.920  0.00  0.00    +0.027 C 
ATOM      5  C   UNL A   1     -23.599   1.459  27.082  0.00  0.00    +0.159 C 
ATOM      6  C   UNL A   1     -24.609   0.462  27.093  0.00  0.00    -0.079 C 
ATOM      7  C   UNL A   1     -24.471  -0.609  27.921  0.00  0.00    -0.069 C 
ENDROOT
BRANCH   5   8
ATOM      8  C   UNL A   1     -23.700   2.622  26.193  0.00  0.00    +0.408 C 
ATOM      9  F   UNL A   1     -22.896   2.823  25.425  0.00  0.00    -0.169 F 
ATOM     10  F   UNL A   1     -24.913   2.657  25.509  0.00  0.00    -0.169 F 
ATOM     11  F   UNL A   1     -23.905   3.812  26.973  0.00  0.00    -0.169 F 
ENDBRANCH   5   8
BRANCH   1  12
ATOM     12  C   UNL A   1     -24.315  -2.982  29.392  0.00  0.00    +0.026 C 
BRANCH  12  13
ATOM     13  C   UNL A   1     -23.966  -4.172  28.736  0.00  0.00    +0.005 C 
BRANCH  13  14
ATOM     14  C   UNL A   1     -24.896  -5.178  28.993  0.00  0.00    +0.000 C 
ATOM     15  C   UNL A   1     -26.113  -4.782  29.615  0.00  0.00    +0.000 C 
ENDBRANCH  13  14
ENDBRANCH  12  13
ENDBRANCH   1  12
TORSDOF 4
ENDMDL
ENDMDL
