MODEL 1532
MODEL 1
REMARK VINA RESULT:    -4.259      0.000      0.000
REMARK INTER + INTRA:          -4.259
REMARK INTER:                  -4.259
REMARK INTRA:                   0.000
REMARK UNBOUND:                 0.000
REMARK  Name = No_1532-gen_results/8p0m/2024-11-27-11-27-31/
REMARK  0 active torsions:
REMARK  status: ('A' for Active; 'I' for Inactive)
REMARK                            x       y       z     vdW  Elec       q    Type
REMARK                         _______ _______ _______ _____ _____    ______ ____
ROOT
ATOM      1  C   UNL A   1     -24.956  -5.410  28.954  0.00  0.00    +0.000 A 
ATOM      2  C   UNL A   1     -24.157  -4.776  28.691  0.00  0.00    +0.000 A 
ATOM      3  C   UNL A   1     -26.105  -4.778  29.623  0.00  0.00    +0.000 A 
ATOM      4  C   UNL A   1     -26.170  -3.362  29.768  0.00  0.00    +0.000 A 
ATOM      5  C   UNL A   1     -24.000  -3.296  28.677  0.00  0.00    +0.000 A 
ATOM      6  C   UNL A   1     -25.042  -2.675  29.299  0.00  0.00    +0.000 A 
ENDROOT
TORSDOF 0
ENDMDL
ENDMDL
