MODEL 1533
MODEL 1
REMARK VINA RESULT:    -5.932      0.000      0.000
REMARK INTER + INTRA:          -6.087
REMARK INTER:                  -6.278
REMARK INTRA:                   0.191
REMARK UNBOUND:                 0.191
REMARK  Name = No_1533-gen_results/8p0m/2024-11-27-11-27-31/
REMARK  1 active torsions:
REMARK  status: ('A' for Active; 'I' for Inactive)
REMARK    1  A    between atoms: N_14  and  C_15
REMARK                            x       y       z     vdW  Elec       q    Type
REMARK                         _______ _______ _______ _____ _____    ______ ____
ROOT
ATOM      1  C   UNL A   1     -22.832   0.321  28.418  0.00  0.00    -0.003 A 
ATOM      2  C   UNL A   1     -23.176   1.314  28.495  0.00  0.00    -0.000 A 
ATOM      3  C   UNL A   1     -23.873  -0.679  28.650  0.00  0.00    -0.004 A 
ATOM      4  C   UNL A   1     -24.992  -0.400  28.750  0.00  0.00    +0.048 A 
ATOM      5  C   UNL A   1     -24.485   1.921  28.642  0.00  0.00    +0.001 A 
ATOM      6  C   UNL A   1     -25.472   0.912  28.813  0.00  0.00    +0.015 A 
ATOM      7  C   UNL A   1     -23.435  -2.152  28.545  0.00  0.00    +0.055 C 
ATOM      8  C   UNL A   1     -24.207  -3.003  29.280  0.00  0.00    -0.004 A 
ATOM      9  C   UNL A   1     -24.132  -4.292  29.074  0.00  0.00    -0.003 A 
ATOM     10  C   UNL A   1     -25.286  -5.137  29.254  0.00  0.00    -0.000 A 
ATOM     11  C   UNL A   1     -26.396  -4.568  29.607  0.00  0.00    +0.001 A 
ATOM     12  C   UNL A   1     -26.529  -3.257  29.996  0.00  0.00    +0.015 A 
ATOM     13  C   UNL A   1     -25.456  -2.379  29.693  0.00  0.00    +0.048 A 
ATOM     14  N   UNL A   1     -25.831  -1.139  29.518  0.00  0.00    -0.287 N 
ENDROOT
BRANCH  14  15
ATOM     15  C   UNL A   1     -27.155  -0.678  29.956  0.00  0.00    +0.096 C 
ATOM     16  C   UNL A   1     -27.274  -0.281  31.232  0.00  0.00    +0.024 C 
ENDBRANCH  14  15
TORSDOF 1
ENDMDL
ENDMDL
