REMARK  Name = No_1533-gen_results/8p0m/2024-11-27-11-27-31/
REMARK  1 active torsions:
REMARK  status: ('A' for Active; 'I' for Inactive)
REMARK    1  A    between atoms: N_14  and  C_15
REMARK                            x       y       z     vdW  Elec       q    Type
REMARK                         _______ _______ _______ _____ _____    ______ ____
ROOT
ATOM      1  C   UNL A   1     -28.016  -0.814  28.878  0.00  0.00    -0.003 A 
ATOM      2  C   UNL A   1     -28.469  -0.785  29.829  0.00  0.00    -0.000 A 
ATOM      3  C   UNL A   1     -27.087   0.290  28.638  0.00  0.00    -0.004 A 
ATOM      4  C   UNL A   1     -26.768   1.027  29.472  0.00  0.00    +0.048 A 
ATOM      5  C   UNL A   1     -28.276   0.027  31.015  0.00  0.00    +0.001 A 
ATOM      6  C   UNL A   1     -27.329   1.054  30.753  0.00  0.00    +0.015 A 
ATOM      7  C   UNL A   1     -26.386   0.301  27.266  0.00  0.00    +0.055 C 
ATOM      8  C   UNL A   1     -26.005   1.546  26.860  0.00  0.00    -0.004 A 
ATOM      9  C   UNL A   1     -25.167   1.678  25.866  0.00  0.00    -0.003 A 
ATOM     10  C   UNL A   1     -24.238   2.780  25.824  0.00  0.00    -0.000 A 
ATOM     11  C   UNL A   1     -24.256   3.616  26.815  0.00  0.00    +0.001 A 
ATOM     12  C   UNL A   1     -25.200   3.647  27.813  0.00  0.00    +0.015 A 
ATOM     13  C   UNL A   1     -26.027   2.503  27.958  0.00  0.00    +0.048 A 
ATOM     14  N   UNL A   1     -26.441   2.311  29.183  0.00  0.00    -0.287 N 
ENDROOT
BRANCH  14  15
ATOM     15  C   UNL A   1     -26.349   3.376  30.190  0.00  0.00    +0.096 C 
ATOM     16  C   UNL A   1     -27.448   3.629  30.916  0.00  0.00    +0.024 C 
ENDBRANCH  14  15
TORSDOF 1
