MODEL 1534
MODEL 1
REMARK VINA RESULT:    -3.072      0.000      0.000
REMARK INTER + INTRA:          -3.072
REMARK INTER:                  -3.072
REMARK INTRA:                   0.000
REMARK UNBOUND:                 0.000
REMARK  Name = No_1534-gen_results/8p0m/2024-11-27-11-27-31/
REMARK  0 active torsions:
REMARK  status: ('A' for Active; 'I' for Inactive)
REMARK                            x       y       z     vdW  Elec       q    Type
REMARK                         _______ _______ _______ _____ _____    ______ ____
ROOT
ATOM      1 CL   UNL A   1     -10.048  -9.635  18.708  0.00  0.00    -0.065 Cl
ATOM      2  C   UNL A   1      -9.260  -9.337  19.777  0.00  0.00    +0.296 C 
ATOM      3 BR   UNL A   1      -8.042  -9.183  19.892  0.00  0.00    -0.025 Br
ATOM      4  F   UNL A   1      -9.984  -9.254  20.970  0.00  0.00    -0.206 F 
ENDROOT
TORSDOF 0
ENDMDL
ENDMDL
