REMARK  Name = No_1535-gen_results/8p0m/2024-11-27-11-27-31/
REMARK  2 active torsions:
REMARK  status: ('A' for Active; 'I' for Inactive)
REMARK    1  A    between atoms: C_2  and  C_7
REMARK    2  A    between atoms: N_9  and  C_10
REMARK                            x       y       z     vdW  Elec       q    Type
REMARK                         _______ _______ _______ _____ _____    ______ ____
ROOT
ATOM      1  C   UNL A   1     -30.074  -0.836  29.861  0.00  0.00    +0.269 C 
ATOM      2  O   UNL A   1     -30.561  -0.442  28.942  0.00  0.00    -0.268 OA
ATOM      3  N   UNL A   1     -30.749  -1.403  30.947  0.00  0.00    -0.175 NA
ENDROOT
BRANCH   3   4
ATOM      4  C   UNL A   1     -32.175  -1.468  30.889  0.00  0.00    +0.074 A 
ATOM      5  C   UNL A   1     -32.783  -2.041  31.447  0.00  0.00    +0.019 A 
ATOM      6  C   UNL A   1     -34.295  -2.069  31.428  0.00  0.00    +0.031 A 
ATOM      7  C   UNL A   1     -34.844  -1.201  30.464  0.00  0.00    +0.140 A 
ATOM      8  C   UNL A   1     -34.005  -0.463  29.672  0.00  0.00    +0.031 A 
ATOM      9  C   UNL A   1     -32.678  -0.469  29.843  0.00  0.00    +0.019 A 
ATOM     10  F   UNL A   1     -36.169  -1.178  30.395  0.00  0.00    -0.204 F 
ENDBRANCH   3   4
BRANCH   1  12
ATOM     11  C   UNL A   1     -28.016  -0.814  28.878  0.00  0.00    +0.005 A 
ATOM     12  C   UNL A   1     -28.469  -0.785  29.829  0.00  0.00    +0.055 A 
ATOM     13  C   UNL A   1     -26.504  -0.778  28.877  0.00  0.00    +0.000 A 
ATOM     14  C   UNL A   1     -25.810  -0.853  30.103  0.00  0.00    +0.000 A 
ATOM     15  C   UNL A   1     -27.991  -0.892  31.226  0.00  0.00    +0.005 A 
ATOM     16  C   UNL A   1     -26.604  -0.868  31.265  0.00  0.00    +0.000 A 
ENDBRANCH   1  12
TORSDOF 2
