MODEL 1535
MODEL 1
REMARK VINA RESULT:    -6.136      0.000      0.000
REMARK INTER + INTRA:          -6.989
REMARK INTER:                  -6.854
REMARK INTRA:                  -0.135
REMARK UNBOUND:                -0.135
REMARK  Name = No_1535-gen_results/8p0m/2024-11-27-11-27-31/
REMARK  2 active torsions:
REMARK  status: ('A' for Active; 'I' for Inactive)
REMARK    1  A    between atoms: C_2  and  C_7
REMARK    2  A    between atoms: N_9  and  C_10
REMARK                            x       y       z     vdW  Elec       q    Type
REMARK                         _______ _______ _______ _____ _____    ______ ____
ROOT
ATOM      1  C   UNL A   1     -24.556  -0.959  28.288  0.00  0.00    +0.269 C 
ATOM      2  O   UNL A   1     -23.940  -0.371  29.004  0.00  0.00    -0.268 OA
ATOM      3  N   UNL A   1     -24.989  -0.503  27.039  0.00  0.00    -0.175 NA
ENDROOT
BRANCH   3   4
ATOM      4  C   UNL A   1     -24.635   0.827  26.652  0.00  0.00    +0.074 A 
ATOM      5  C   UNL A   1     -23.761   1.138  26.267  0.00  0.00    +0.019 A 
ATOM      6  C   UNL A   1     -23.404   2.532  25.803  0.00  0.00    +0.031 A 
ATOM      7  C   UNL A   1     -24.447   3.457  26.005  0.00  0.00    +0.140 A 
ATOM      8  C   UNL A   1     -25.616   3.034  26.579  0.00  0.00    +0.031 A 
ATOM      9  C   UNL A   1     -25.838   1.748  26.874  0.00  0.00    +0.019 A 
ATOM     10  F   UNL A   1     -24.198   4.702  25.618  0.00  0.00    -0.204 F 
ENDBRANCH   3   4
BRANCH   1  12
ATOM     11  C   UNL A   1     -24.193  -3.206  28.435  0.00  0.00    +0.005 A 
ATOM     12  C   UNL A   1     -24.863  -2.462  28.763  0.00  0.00    +0.055 A 
ATOM     13  C   UNL A   1     -24.513  -4.614  28.886  0.00  0.00    +0.000 A 
ATOM     14  C   UNL A   1     -25.721  -4.863  29.569  0.00  0.00    +0.000 A 
ATOM     15  C   UNL A   1     -26.182  -2.457  29.436  0.00  0.00    +0.005 A 
ATOM     16  C   UNL A   1     -26.513  -3.736  29.860  0.00  0.00    +0.000 A 
ENDBRANCH   1  12
TORSDOF 2
ENDMDL
ENDMDL
