MODEL 1537
MODEL 1
REMARK VINA RESULT:    -6.268      0.000      0.000
REMARK INTER + INTRA:          -6.921
REMARK INTER:                  -6.634
REMARK INTRA:                  -0.287
REMARK UNBOUND:                -0.287
REMARK  Name = No_1537-gen_results/8p0m/2024-11-27-11-27-31/
REMARK  1 active torsions:
REMARK  status: ('A' for Active; 'I' for Inactive)
REMARK    1  A    between atoms: C_6  and  C_8
REMARK                            x       y       z     vdW  Elec       q    Type
REMARK                         _______ _______ _______ _____ _____    ______ ____
ROOT
ATOM      1  O   UNL A   1     -27.447  -3.472  30.567  0.00  0.00    -0.273 OA
ATOM      2  C   UNL A   1     -26.519  -3.449  29.894  0.00  0.00    +0.242 C 
ATOM      3  N   UNL A   1     -25.904  -2.485  29.560  0.00  0.00    -0.203 NA
ATOM      4  C   UNL A   1     -26.057  -4.878  29.340  0.00  0.00    +0.087 C 
ATOM      5  C   UNL A   1     -24.959  -5.128  29.300  0.00  0.00    +0.012 C 
ATOM      6  C   UNL A   1     -24.540  -2.668  29.005  0.00  0.00    +0.117 C 
ATOM      7  C   UNL A   1     -24.058  -3.948  28.800  0.00  0.00    +0.027 C 
ENDROOT
BRANCH   6   8
ATOM      8  C   UNL A   1     -23.730  -1.521  28.777  0.00  0.00    -0.003 A 
ATOM      9  C   UNL A   1     -22.692  -1.377  29.172  0.00  0.00    -0.003 A 
ATOM     10  C   UNL A   1     -21.774  -0.276  28.966  0.00  0.00    -0.000 A 
ATOM     11  C   UNL A   1     -22.364   0.757  28.169  0.00  0.00    -0.000 A 
ATOM     12  C   UNL A   1     -24.301  -0.507  27.999  0.00  0.00    -0.003 A 
ATOM     13  C   UNL A   1     -23.615   0.604  27.696  0.00  0.00    -0.000 A 
ENDBRANCH   6   8
TORSDOF 1
ENDMDL
ENDMDL
