MODEL 1538
MODEL 1
REMARK VINA RESULT:    -7.192      0.000      0.000
REMARK INTER + INTRA:          -8.030
REMARK INTER:                  -7.613
REMARK INTRA:                  -0.417
REMARK UNBOUND:                -0.417
REMARK  Name = No_1538-gen_results/8p0m/2024-11-27-11-27-31/
REMARK  1 active torsions:
REMARK  status: ('A' for Active; 'I' for Inactive)
REMARK    1  A    between atoms: C_3  and  C_4
REMARK                            x       y       z     vdW  Elec       q    Type
REMARK                         _______ _______ _______ _____ _____    ______ ____
ROOT
ATOM      1  C   UNL A   1     -25.371  -0.277  25.183  0.00  0.00    +0.000 A 
ATOM      2  C   UNL A   1     -26.340  -0.287  24.770  0.00  0.00    +0.006 A 
ATOM      3  C   UNL A   1     -25.062   0.954  25.920  0.00  0.00    +0.001 A 
ATOM      4  C   UNL A   1     -27.313   0.748  24.560  0.00  0.00    +0.069 A 
ATOM      5  C   UNL A   1     -28.536   0.589  23.837  0.00  0.00    +0.251 C 
ATOM      6  C   UNL A   1     -25.909   2.037  25.965  0.00  0.00    +0.016 A 
ATOM      7  C   UNL A   1     -27.057   1.899  25.255  0.00  0.00    +0.071 A 
ATOM      8  O   UNL A   1     -28.798  -0.197  23.073  0.00  0.00    -0.270 OA
ATOM      9  N   UNL A   1     -29.564   1.553  24.120  0.00  0.00    -0.260 N 
ATOM     10  C   UNL A   1     -30.808   1.502  23.420  0.00  0.00    +0.095 C 
ATOM     11  C   UNL A   1     -31.314   2.661  23.333  0.00  0.00    +0.022 C 
ATOM     12  C   UNL A   1     -30.935   3.754  24.128  0.00  0.00    +0.005 C 
ATOM     13  C   UNL A   1     -29.764   3.665  24.852  0.00  0.00    +0.042 C 
ATOM     14  C   UNL A   1     -29.033   2.577  24.825  0.00  0.00    +0.169 C 
ATOM     15  N   UNL A   1     -28.027   3.185  25.574  0.00  0.00    -0.219 NA
ENDROOT
BRANCH   3  16
ATOM     16  C   UNL A   1     -23.834   1.064  26.730  0.00  0.00    +0.000 A 
ATOM     17  C   UNL A   1     -22.826   1.839  26.411  0.00  0.00    +0.000 A 
ATOM     18  C   UNL A   1     -21.645   1.840  27.171  0.00  0.00    +0.000 A 
ATOM     19  C   UNL A   1     -21.486   0.916  28.200  0.00  0.00    +0.000 A 
ATOM     20  C   UNL A   1     -22.544   0.105  28.555  0.00  0.00    +0.000 A 
ATOM     21  C   UNL A   1     -23.668   0.133  27.856  0.00  0.00    +0.000 A 
ENDBRANCH   3  16
TORSDOF 1
ENDMDL
ENDMDL
