MODEL 1539
MODEL 1
REMARK VINA RESULT:    -5.689      0.000      0.000
REMARK INTER + INTRA:          -7.079
REMARK INTER:                  -6.687
REMARK INTRA:                  -0.391
REMARK UNBOUND:                -0.391
REMARK  Name = No_1539-gen_results/8p0m/2024-11-27-11-27-31/
REMARK  3 active torsions:
REMARK  status: ('A' for Active; 'I' for Inactive)
REMARK    1  A    between atoms: C_1  and  O_12
REMARK    2  A    between atoms: C_5  and  C_7
REMARK    3  A    between atoms: O_12  and  C_13
REMARK                            x       y       z     vdW  Elec       q    Type
REMARK                         _______ _______ _______ _____ _____    ______ ____
ROOT
ATOM      1  C   UNL A   1     -23.958  -1.644  29.596  0.00  0.00    +0.173 A 
ATOM      2  C   UNL A   1     -23.969  -1.113  30.683  0.00  0.00    +0.174 A 
ATOM      3  C   UNL A   1     -23.519   0.169  30.948  0.00  0.00    +0.033 A 
ATOM      4  C   UNL A   1     -23.034   0.928  29.843  0.00  0.00    +0.007 A 
ATOM      5  C   UNL A   1     -23.175   0.363  28.627  0.00  0.00    +0.061 A 
ATOM      6  C   UNL A   1     -23.706  -0.852  28.473  0.00  0.00    +0.045 A 
ATOM      7  F   UNL A   1     -24.356  -1.839  31.848  0.00  0.00    -0.201 F 
ENDROOT
BRANCH   5   8
ATOM      8  C   UNL A   1     -22.706   1.194  27.501  0.00  0.00    +0.275 C 
ATOM      9  N   UNL A   1     -23.357   1.559  26.672  0.00  0.00    -0.232 NA
ATOM     10  O   UNL A   1     -21.394   1.411  27.467  0.00  0.00    -0.266 OA
ATOM     11  C   UNL A   1     -22.926   2.418  25.498  0.00  0.00    +0.155 C 
ENDBRANCH   5   8
BRANCH   1  12
ATOM     12  O   UNL A   1     -24.502  -2.935  29.391  0.00  0.00    -0.449 OA
BRANCH  12  13
ATOM     13  C   UNL A   1     -23.977  -3.831  28.865  0.00  0.00    +0.175 C 
ATOM     14  C   UNL A   1     -24.592  -4.972  28.831  0.00  0.00    +0.015 C 
ATOM     15  C   UNL A   1     -25.881  -4.764  29.541  0.00  0.00    +0.034 C 
ENDBRANCH  12  13
ENDBRANCH   1  12
TORSDOF 3
ENDMDL
ENDMDL
