MODEL 153
MODEL 1
REMARK VINA RESULT:    -5.975      0.000      0.000
REMARK INTER + INTRA:         -11.064
REMARK INTER:                  -8.070
REMARK INTRA:                  -2.993
REMARK UNBOUND:                -2.993
REMARK  Name = No_153-gen_results/8p0m/2024-11-27-11-27-31/
REMARK  6 active torsions:
REMARK  status: ('A' for Active; 'I' for Inactive)
REMARK    1  A    between atoms: C_1  and  C_2
REMARK    2  A    between atoms: C_1  and  N_8
REMARK    3  A    between atoms: C_5  and  C_14
REMARK    4  A    between atoms: N_8  and  C_9
REMARK    5  A    between atoms: C_9  and  C_10
REMARK    6  A    between atoms: C_10  and  C_11
REMARK                            x       y       z     vdW  Elec       q    Type
REMARK                         _______ _______ _______ _____ _____    ______ ____
ROOT
ATOM      1  C   UNL A   1      -9.043   2.877  34.095  0.00  0.00    +0.243 C 
ATOM      2  O   UNL A   1      -9.218   2.614  32.853  0.00  0.00    -0.285 OA
ENDROOT
BRANCH   1   3
ATOM      3  C   UNL A   1      -9.614   3.990  34.774  0.00  0.00    +0.286 C 
ATOM      4  O   UNL A   1      -8.878   4.866  35.128  0.00  0.00    -0.267 OA
ATOM      5  N   UNL A   1     -10.920   4.038  35.164  0.00  0.00    -0.269 N 
ATOM      6  C   UNL A   1     -11.863   2.991  34.957  0.00  0.00    +0.099 C 
ATOM      7  C   UNL A   1     -12.637   2.800  35.825  0.00  0.00    +0.048 C 
ATOM      8  C   UNL A   1     -12.354   2.663  36.985  0.00  0.00    -0.023 A 
ATOM      9  C   UNL A   1     -11.280   3.637  37.576  0.00  0.00    -0.006 A 
ATOM     10  C   UNL A   1     -11.165   4.661  36.443  0.00  0.00    +0.120 C 
ATOM     11  C   UNL A   1     -12.901   1.908  38.179  0.00  0.00    -0.004 A 
ATOM     12  C   UNL A   1     -12.479   2.044  39.409  0.00  0.00    -0.000 A 
ATOM     13  C   UNL A   1     -11.527   3.049  39.797  0.00  0.00    -0.000 A 
ATOM     14  C   UNL A   1     -10.950   3.834  38.887  0.00  0.00    -0.003 A 
ENDBRANCH   1   3
BRANCH   1  15
ATOM     15  C   UNL A   1      -8.139   2.269  34.712  0.00  0.00    +0.163 C 
BRANCH  15  16
ATOM     16  N   UNL A   1      -8.434   1.179  35.516  0.00  0.00    -0.205 NA
BRANCH  16  17
ATOM     17  C   UNL A   1      -8.536   1.177  36.903  0.00  0.00    +0.116 C 
BRANCH  17  18
ATOM     18  C   UNL A   1      -9.296   0.422  37.464  0.00  0.00    -0.005 A 
ATOM     19  C   UNL A   1     -10.187  -0.374  36.820  0.00  0.00    -0.003 A 
ATOM     20  C   UNL A   1     -11.122  -1.305  37.491  0.00  0.00    +0.004 A 
ATOM     21  C   UNL A   1     -11.054  -1.373  38.922  0.00  0.00    +0.071 A 
ATOM     22  C   UNL A   1     -10.065  -0.582  39.549  0.00  0.00    +0.004 A 
ATOM     23  C   UNL A   1      -9.231   0.259  38.860  0.00  0.00    -0.003 A 
BRANCH  21  24
ATOM     24  C   UNL A   1     -11.882  -2.250  39.687  0.00  0.00    +0.419 C 
ATOM     25  F   UNL A   1     -12.408  -3.051  39.225  0.00  0.00    -0.166 F 
ATOM     26  F   UNL A   1     -12.777  -1.465  40.436  0.00  0.00    -0.166 F 
ATOM     27  F   UNL A   1     -11.074  -2.728  40.740  0.00  0.00    -0.166 F 
ENDBRANCH  21  24
ENDBRANCH  17  18
ENDBRANCH  16  17
ENDBRANCH  15  16
ENDBRANCH   1  15
TORSDOF 6
ENDMDL
ENDMDL
