REMARK  Name = outputs/IAG933/test6/raw/output_154_IAG933_linker_design_.xyz
REMARK  13 active torsions:
REMARK  status: ('A' for Active; 'I' for Inactive)
REMARK    1  A    between atoms: C_1  and  C_2
REMARK    2  A    between atoms: C_1  and  C_8
REMARK    3  A    between atoms: C_1  and  C_28
REMARK    4  A    between atoms: C_13  and  N_40
REMARK    5  A    between atoms: C_14  and  C_15
REMARK    6  A    between atoms: C_21  and  O_22
REMARK    7  A    between atoms: O_22  and  C_23
REMARK    8  A    between atoms: C_23  and  C_24
REMARK    9  A    between atoms: C_29  and  C_34
REMARK   10  A    between atoms: C_29  and  C_36
REMARK   11  A    between atoms: C_31  and  N_40
REMARK   12  A    between atoms: O_33  and  C_35
REMARK   13  A    between atoms: C_35  and  N_40
REMARK                            x       y       z     vdW  Elec       q    Type
REMARK                         _______ _______ _______ _____ _____    ______ ____
ROOT
ATOM      1  C   UNL A   1     -25.742  -0.016  29.336  0.00  0.00    +0.116 C 
ATOM      2  C   UNL A   1     -25.796   0.923  28.731  0.00  0.00    +0.157 C 
ATOM      3  C   UNL A   1     -28.182   0.174  28.780  0.00  0.00    +0.226 C 
ATOM      4  O   UNL A   1     -28.918  -0.748  28.436  0.00  0.00    -0.275 OA
ATOM      5  N   UNL A   1     -26.874   0.068  28.857  0.00  0.00    -0.265 N 
ENDROOT
BRANCH   3   6
ATOM      6  C   UNL A   1     -28.695   1.638  29.079  0.00  0.00    +0.077 C 
ATOM      7  C   UNL A   1     -29.120   1.960  30.517  0.00  0.00    +0.010 C 
BRANCH   6   8
ATOM      8  C   UNL A   1     -29.782   2.382  28.229  0.00  0.00    +0.009 C 
ATOM      9  C   UNL A   1     -30.877   1.698  28.979  0.00  0.00    +0.001 C 
ENDBRANCH   6   8
ENDBRANCH   3   6
BRANCH   1  10
ATOM     10  C   UNL A   1     -24.855  -1.012  30.143  0.00  0.00    +0.060 C 
BRANCH  10  11
ATOM     11  C   UNL A   1     -24.973  -2.505  29.788  0.00  0.00    -0.019 C 
ATOM     12  C   UNL A   1     -23.906  -3.173  29.146  0.00  0.00    -0.004 C 
ATOM     13  C   UNL A   1     -23.989  -4.549  28.853  0.00  0.00    -0.000 C 
ATOM     14  C   UNL A   1     -25.137  -5.280  29.205  0.00  0.00    -0.000 C 
ATOM     15  C   UNL A   1     -26.232  -4.611  29.784  0.00  0.00    -0.000 C 
ATOM     16  C   UNL A   1     -26.155  -3.232  30.065  0.00  0.00    -0.004 C 
ENDBRANCH  10  11
BRANCH  10  17
ATOM     17  C   UNL A   1     -25.387  -0.679  31.571  0.00  0.00    +0.079 C 
ATOM     18  C   UNL A   1     -25.189   0.773  32.028  0.00  0.00    +0.019 C 
ATOM     19  C   UNL A   1     -25.336   0.684  33.544  0.00  0.00    +0.020 C 
ATOM     20  C   UNL A   1     -24.829  -0.715  33.905  0.00  0.00    +0.089 C 
ATOM     21  N   UNL A   1     -24.758  -1.481  32.646  0.00  0.00    -0.219 NA
ENDBRANCH  10  17
ENDBRANCH   1  10
BRANCH   2  22
ATOM     22  N   UNL A   1     -24.954   1.385  27.667  0.00  0.00    -0.229 NA
BRANCH  22  23
ATOM     23  C   UNL A   1     -25.688   1.614  26.461  0.00  0.00    +0.131 C 
ATOM     24  C   UNL A   1     -26.250   2.920  26.395  0.00  0.00    +0.070 C 
ATOM     25  C   UNL A   1     -27.438   3.091  25.645  0.00  0.00    +0.103 C 
ATOM     26  N   UNL A   1     -28.075   2.089  25.003  0.00  0.00    -0.212 NA
ATOM     27  C   UNL A   1     -27.543   0.849  25.079  0.00  0.00    +0.235 C 
ATOM     28  C   UNL A   1     -26.354   0.576  25.777  0.00  0.00    +0.255 C 
ATOM     29  F   UNL A   1     -25.860  -0.681  25.795  0.00  0.00    -0.225 F 
BRANCH  24  30
ATOM     30  C   UNL A   1     -25.642   4.093  27.123  0.00  0.00    +0.264 C 
ATOM     31  N   UNL A   1     -25.614   5.252  26.449  0.00  0.00    -0.200 NA
ATOM     32  C   UNL A   1     -25.026   6.479  26.963  0.00  0.00    +0.139 C 
ATOM     33  O   UNL A   1     -25.143   3.966  28.243  0.00  0.00    -0.269 OA
ENDBRANCH  24  30
BRANCH  27  34
ATOM     34  O   UNL A   1     -28.193  -0.208  24.477  0.00  0.00    -0.459 OA
BRANCH  34  35
ATOM     35  C   UNL A   1     -29.460   0.005  23.866  0.00  0.00    +0.242 C 
BRANCH  35  36
ATOM     36  C   UNL A   1     -30.065  -1.377  23.573  0.00  0.00    +0.229 C 
ATOM     37  O   UNL A   1     -30.729  -1.878  24.721  0.00  0.00    -0.216 OA
ENDBRANCH  35  36
ENDBRANCH  34  35
ENDBRANCH  27  34
ENDBRANCH  22  23
BRANCH  22  38
ATOM     38  C   UNL A   1     -23.641   1.522  27.966  0.00  0.00    +0.178 C 
ATOM     39  C   UNL A   1     -23.151   1.454  26.481  0.00  0.00    +0.051 C 
BRANCH  38  41
ATOM     40  C   UNL A   1     -21.549   1.453  28.413  0.00  0.00    +0.176 C 
ATOM     41  O   UNL A   1     -22.940   1.449  28.948  0.00  0.00    -0.338 OA
ENDBRANCH  38  41
ENDBRANCH  22  38
ENDBRANCH   2  22
TORSDOF 13
