MODEL 1540
MODEL 1
REMARK VINA RESULT:    -5.194      0.000      0.000
REMARK INTER + INTRA:          -5.547
REMARK INTER:                  -5.498
REMARK INTRA:                  -0.049
REMARK UNBOUND:                -0.049
REMARK  Name = No_1540-gen_results/8p0m/2024-11-27-11-27-31/
REMARK  1 active torsions:
REMARK  status: ('A' for Active; 'I' for Inactive)
REMARK    1  A    between atoms: C_4  and  C_5
REMARK                            x       y       z     vdW  Elec       q    Type
REMARK                         _______ _______ _______ _____ _____    ______ ____
ROOT
ATOM      1  C   UNL A   1     -25.987  -4.888  29.505  0.00  0.00    +0.000 A 
ATOM      2  C   UNL A   1     -26.322  -3.768  29.815  0.00  0.00    +0.000 A 
ATOM      3  C   UNL A   1     -25.628  -2.670  29.716  0.00  0.00    +0.002 A 
ATOM      4  C   UNL A   1     -24.301  -2.759  29.195  0.00  0.00    +0.019 A 
ATOM      5  C   UNL A   1     -24.732  -5.119  28.878  0.00  0.00    +0.000 A 
ATOM      6  C   UNL A   1     -23.908  -4.005  28.728  0.00  0.00    +0.002 A 
ENDROOT
BRANCH   4   7
ATOM      7  C   UNL A   1     -23.482  -1.637  29.066  0.00  0.00    +0.093 C 
ATOM      8  N   UNL A   1     -22.445  -1.569  29.018  0.00  0.00    -0.267 NA
ATOM      9  C   UNL A   1     -21.620  -0.373  28.961  0.00  0.00    +0.152 C 
ENDBRANCH   4   7
TORSDOF 1
ENDMDL
ENDMDL
