MODEL 1541
MODEL 1
REMARK VINA RESULT:    -5.897      0.000      0.000
REMARK INTER + INTRA:          -9.717
REMARK INTER:                  -7.966
REMARK INTRA:                  -1.752
REMARK UNBOUND:                -1.752
REMARK  Name = No_1541-gen_results/8p0m/2024-11-27-11-27-31/
REMARK  6 active torsions:
REMARK  status: ('A' for Active; 'I' for Inactive)
REMARK    1  A    between atoms: C_2  and  C_18
REMARK    2  A    between atoms: C_4  and  C_7
REMARK    3  A    between atoms: C_7  and  C_8
REMARK    4  A    between atoms: C_8  and  C_9
REMARK    5  A    between atoms: C_9  and  C_10
REMARK    6  A    between atoms: C_10  and  C_11
REMARK                            x       y       z     vdW  Elec       q    Type
REMARK                         _______ _______ _______ _____ _____    ______ ____
ROOT
ATOM      1  C   UNL A   1     -21.821   0.304  28.701  0.00  0.00    +0.155 C 
ATOM      2  O   UNL A   1     -20.606   0.163  28.189  0.00  0.00    -0.296 OA
ENDROOT
BRANCH   1   3
ATOM      3  C   UNL A   1     -22.121  -0.397  29.905  0.00  0.00    +0.091 C 
BRANCH   3   7
ATOM      4  C   UNL A   1     -25.529  -1.953  30.784  0.00  0.00    +0.006 A 
ATOM      5  C   UNL A   1     -25.519  -2.677  30.018  0.00  0.00    +0.080 A 
ATOM      6  C   UNL A   1     -24.297  -1.080  30.868  0.00  0.00    -0.004 A 
ATOM      7  C   UNL A   1     -23.308  -1.180  29.867  0.00  0.00    -0.015 A 
ATOM      8  C   UNL A   1     -24.654  -2.963  28.851  0.00  0.00    +0.006 A 
ATOM      9  C   UNL A   1     -23.513  -2.174  28.891  0.00  0.00    -0.004 A 
BRANCH   5  10
ATOM     10  C   UNL A   1     -26.827  -3.667  30.000  0.00  0.00    +0.388 C 
ATOM     11  O   UNL A   1     -26.820  -4.738  29.915  0.00  0.00    -0.241 OA
ATOM     12  O   UNL A   1     -27.978  -2.995  30.065  0.00  0.00    -0.241 OA
ENDBRANCH   5  10
ENDBRANCH   3   7
ENDBRANCH   1   3
BRANCH   1  13
ATOM     13  C   UNL A   1     -22.605   1.300  28.199  0.00  0.00    +0.065 C 
BRANCH  13  14
ATOM     14  C   UNL A   1     -23.263   1.176  26.940  0.00  0.00    +0.009 C 
BRANCH  14  15
ATOM     15  C   UNL A   1     -24.608   0.996  27.044  0.00  0.00    +0.017 C 
ATOM     16  C   UNL A   1     -25.193   0.585  25.985  0.00  0.00    +0.072 C 
ATOM     17  N   UNL A   1     -26.568   0.548  25.903  0.00  0.00    -0.272 NA
ATOM     18  C   UNL A   1     -27.234   0.486  26.793  0.00  0.00    +0.072 C 
ATOM     19  C   UNL A   1     -26.831   0.635  27.840  0.00  0.00    +0.017 C 
ATOM     20  C   UNL A   1     -25.400   0.974  28.179  0.00  0.00    +0.003 C 
ATOM     21  C   UNL A   1     -27.133   0.285  24.422  0.00  0.00    +0.090 C 
ENDBRANCH  14  15
ENDBRANCH  13  14
ENDBRANCH   1  13
TORSDOF 6
ENDMDL
ENDMDL
