MODEL 1542
MODEL 1
REMARK VINA RESULT:    -7.345      0.000      0.000
REMARK INTER + INTRA:          -9.252
REMARK INTER:                  -8.633
REMARK INTRA:                  -0.619
REMARK UNBOUND:                -0.619
REMARK  Name = No_1542-gen_results/8p0m/2024-11-27-11-27-31/
REMARK  3 active torsions:
REMARK  status: ('A' for Active; 'I' for Inactive)
REMARK    1  A    between atoms: C_2  and  C_5
REMARK    2  A    between atoms: C_4  and  C_16
REMARK    3  A    between atoms: N_9  and  C_10
REMARK                            x       y       z     vdW  Elec       q    Type
REMARK                         _______ _______ _______ _____ _____    ______ ____
ROOT
ATOM      1  C   UNL A   1     -10.581   1.357  36.350  0.00  0.00    +0.005 A 
ATOM      2  C   UNL A   1     -10.451   1.246  35.310  0.00  0.00    +0.055 A 
ATOM      3  C   UNL A   1     -11.916   1.923  36.781  0.00  0.00    +0.000 A 
ATOM      4  C   UNL A   1     -12.711   2.266  35.941  0.00  0.00    +0.000 A 
ATOM      5  C   UNL A   1     -12.534   2.103  34.554  0.00  0.00    +0.000 A 
ATOM      6  C   UNL A   1     -11.312   1.517  34.184  0.00  0.00    +0.005 A 
ENDROOT
BRANCH   4   7
ATOM      7  C   UNL A   1     -14.096   2.878  36.332  0.00  0.00    +0.000 A 
ATOM      8  C   UNL A   1     -14.982   3.250  35.739  0.00  0.00    +0.000 A 
ATOM      9  C   UNL A   1     -14.308   2.969  37.820  0.00  0.00    +0.000 A 
ATOM     10  C   UNL A   1     -15.516   3.400  38.306  0.00  0.00    +0.000 A 
ATOM     11  C   UNL A   1     -16.250   3.775  36.053  0.00  0.00    +0.000 A 
ATOM     12  C   UNL A   1     -16.483   3.807  37.474  0.00  0.00    +0.000 A 
ENDBRANCH   4   7
BRANCH   2  13
ATOM     13  C   UNL A   1      -9.119   0.637  34.830  0.00  0.00    +0.269 C 
ATOM     14  O   UNL A   1      -8.737   1.056  33.828  0.00  0.00    -0.268 OA
ATOM     15  N   UNL A   1      -8.384  -0.263  35.618  0.00  0.00    -0.175 NA
BRANCH  15  16
ATOM     16  C   UNL A   1      -7.103  -0.725  35.162  0.00  0.00    +0.074 A 
ATOM     17  C   UNL A   1      -6.937  -1.595  34.631  0.00  0.00    +0.017 A 
ATOM     18  C   UNL A   1      -5.648  -2.077  34.189  0.00  0.00    +0.001 A 
ATOM     19  C   UNL A   1      -4.545  -1.257  34.538  0.00  0.00    +0.000 A 
ATOM     20  C   UNL A   1      -4.787  -0.140  35.280  0.00  0.00    +0.001 A 
ATOM     21  C   UNL A   1      -6.037   0.232  35.606  0.00  0.00    +0.017 A 
ENDBRANCH  15  16
ENDBRANCH   2  13
TORSDOF 3
ENDMDL
ENDMDL
