MODEL 1543
MODEL 1
REMARK VINA RESULT:    -4.746      0.000      0.000
REMARK INTER + INTRA:          -4.746
REMARK INTER:                  -4.746
REMARK INTRA:                   0.000
REMARK UNBOUND:                 0.000
REMARK  Name = No_1543-gen_results/8p0m/2024-11-27-11-27-31/
REMARK  0 active torsions:
REMARK  status: ('A' for Active; 'I' for Inactive)
REMARK                            x       y       z     vdW  Elec       q    Type
REMARK                         _______ _______ _______ _____ _____    ______ ____
ROOT
ATOM      1  O   UNL A   1     -23.161  -2.483  28.876  0.00  0.00    -0.270 OA
ATOM      2  C   UNL A   1     -24.071  -3.176  29.020  0.00  0.00    +0.275 C 
ATOM      3  C   UNL A   1     -24.376  -4.208  28.886  0.00  0.00    +0.238 C 
ATOM      4  N   UNL A   1     -25.208  -2.407  29.737  0.00  0.00    -0.188 NA
ATOM      5  F   UNL A   1     -23.486  -4.957  28.202  0.00  0.00    -0.227 F 
ATOM      6  C   UNL A   1     -26.368  -3.026  30.168  0.00  0.00    +0.174 C 
ATOM      7  C   UNL A   1     -26.532  -4.361  29.826  0.00  0.00    +0.042 C 
ATOM      8  C   UNL A   1     -25.578  -5.023  29.205  0.00  0.00    +0.048 C 
ATOM      9 CL   UNL A   1     -27.554  -2.112  30.944  0.00  0.00    -0.091 Cl
ENDROOT
TORSDOF 0
ENDMDL
ENDMDL
