MODEL 1544
MODEL 1
REMARK VINA RESULT:    -7.783      0.000      0.000
REMARK INTER + INTRA:         -11.185
REMARK INTER:                 -10.058
REMARK INTRA:                  -1.126
REMARK UNBOUND:                -1.126
REMARK  Name = No_1544-gen_results/8p0m/2024-11-27-11-27-31/
REMARK  5 active torsions:
REMARK  status: ('A' for Active; 'I' for Inactive)
REMARK    1  A    between atoms: C_5  and  C_11
REMARK    2  A    between atoms: C_7  and  C_14
REMARK    3  A    between atoms: C_8  and  C_20
REMARK    4  A    between atoms: C_20  and  O_22
REMARK    5  A    between atoms: O_22  and  C_23
REMARK                            x       y       z     vdW  Elec       q    Type
REMARK                         _______ _______ _______ _____ _____    ______ ____
ROOT
ATOM      1  C   UNL A   1     -11.841   1.538  36.650  0.00  0.00    +0.006 A 
ATOM      2  C   UNL A   1     -10.808   1.028  36.282  0.00  0.00    +0.000 A 
ATOM      3  C   UNL A   1      -9.966   1.677  35.386  0.00  0.00    +0.000 A 
ATOM      4  C   UNL A   1      -8.677   1.152  34.850  0.00  0.00    +0.004 A 
ATOM      5  C   UNL A   1      -8.205  -0.059  35.439  0.00  0.00    +0.050 A 
ATOM      6  C   UNL A   1      -9.046  -0.669  36.390  0.00  0.00    +0.004 A 
ATOM      7  C   UNL A   1     -10.224  -0.172  36.793  0.00  0.00    +0.000 A 
ATOM      8  C   UNL A   1     -12.579   2.499  35.756  0.00  0.00    +0.076 A 
ATOM      9  C   UNL A   1     -11.730   3.304  34.908  0.00  0.00    +0.006 A 
ATOM     10  C   UNL A   1     -10.446   2.833  34.605  0.00  0.00    +0.000 A 
ENDROOT
BRANCH   7  11
ATOM     11  C   UNL A   1     -10.937  -0.877  37.889  0.00  0.00    +0.000 A 
ATOM     12  C   UNL A   1     -11.441  -1.948  37.630  0.00  0.00    +0.000 A 
ATOM     13  C   UNL A   1     -10.962  -0.275  39.152  0.00  0.00    +0.000 A 
ATOM     14  C   UNL A   1     -11.654  -0.793  40.221  0.00  0.00    +0.000 A 
ATOM     15  C   UNL A   1     -12.183  -2.648  38.700  0.00  0.00    +0.000 A 
ATOM     16  C   UNL A   1     -12.198  -2.071  39.996  0.00  0.00    +0.000 A 
ENDBRANCH   7  11
BRANCH   5  17
ATOM     17  C   UNL A   1      -6.894  -0.573  35.015  0.00  0.00    +0.254 C 
ATOM     18 CL   UNL A   1      -6.633  -1.927  34.146  0.00  0.00    -0.038 Cl
ATOM     19  O   UNL A   1      -5.827   0.209  35.251  0.00  0.00    -0.274 OA
ENDBRANCH   5  17
BRANCH   8  20
ATOM     20  C   UNL A   1     -13.869   3.029  36.178  0.00  0.00    +0.346 C 
ATOM     21  O   UNL A   1     -14.848   3.021  35.549  0.00  0.00    -0.244 OA
BRANCH  20  22
ATOM     22  O   UNL A   1     -13.925   3.484  37.420  0.00  0.00    -0.421 OA
BRANCH  22  23
ATOM     23  C   UNL A   1     -14.524   3.242  38.309  0.00  0.00    +0.149 A 
ATOM     24  C   UNL A   1     -15.876   3.325  38.360  0.00  0.00    +0.038 A 
ATOM     25  C   UNL A   1     -16.654   3.064  39.482  0.00  0.00    +0.003 A 
ATOM     26  C   UNL A   1     -13.878   2.858  39.534  0.00  0.00    +0.038 A 
ATOM     27  C   UNL A   1     -14.597   2.545  40.701  0.00  0.00    +0.003 A 
ATOM     28  C   UNL A   1     -15.995   2.652  40.633  0.00  0.00    +0.000 A 
ENDBRANCH  22  23
ENDBRANCH  20  22
ENDBRANCH   8  20
TORSDOF 5
ENDMDL
ENDMDL
