REMARK  Name = outputs/IAG933/test6/raw/output_1544_IAG933_linker_design_.xyz
REMARK  12 active torsions:
REMARK  status: ('A' for Active; 'I' for Inactive)
REMARK    1  A    between atoms: C_1  and  C_2
REMARK    2  A    between atoms: C_1  and  C_8
REMARK    3  A    between atoms: C_1  and  C_38
REMARK    4  A    between atoms: C_13  and  C_32
REMARK    5  A    between atoms: C_14  and  C_15
REMARK    6  A    between atoms: C_21  and  O_22
REMARK    7  A    between atoms: O_22  and  C_23
REMARK    8  A    between atoms: C_23  and  C_24
REMARK    9  A    between atoms: C_28  and  O_35
REMARK   10  A    between atoms: C_29  and  O_35
REMARK   11  A    between atoms: C_29  and  C_41
REMARK   12  A    between atoms: C_37  and  C_41
REMARK                            x       y       z     vdW  Elec       q    Type
REMARK                         _______ _______ _______ _____ _____    ______ ____
ROOT
ATOM      1  C   UNL A   1     -24.874   0.606  28.367  0.00  0.00    +0.127 C 
ATOM      2  O   UNL A   1     -20.433   0.909  28.396  0.00  0.00    -0.266 OA
ATOM      3  C   UNL A   1     -24.573   1.314  27.289  0.00  0.00    +0.160 C 
ATOM      4  O   UNL A   1     -23.376   2.487  25.527  0.00  0.00    -0.272 OA
ATOM      5  N   UNL A   1     -21.757  -1.074  29.393  0.00  0.00    -0.143 NA
ATOM      6  N   UNL A   1     -22.055   1.578  26.997  0.00  0.00    -0.139 NA
ATOM      7  C   UNL A   1     -24.042  -0.146  29.170  0.00  0.00    +0.037 C 
ATOM      8  C   UNL A   1     -23.332   1.812  26.579  0.00  0.00    +0.259 C 
ATOM      9  C   UNL A   1     -22.509  -0.084  28.945  0.00  0.00    +0.157 C 
ATOM     10  C   UNL A   1     -21.608   0.738  28.138  0.00  0.00    +0.291 C 
ENDROOT
BRANCH   3  11
ATOM     11  C   UNL A   1     -25.688   1.614  26.461  0.00  0.00    +0.031 C 
ATOM     12  C   UNL A   1     -26.250   2.920  26.395  0.00  0.00    +0.073 C 
ATOM     13  C   UNL A   1     -27.438   3.091  25.645  0.00  0.00    +0.106 C 
ATOM     14  N   UNL A   1     -28.075   2.089  25.003  0.00  0.00    -0.208 NA
ATOM     15  C   UNL A   1     -27.543   0.849  25.079  0.00  0.00    +0.253 C 
ATOM     16  C   UNL A   1     -26.354   0.576  25.777  0.00  0.00    +0.190 C 
ATOM     17  F   UNL A   1     -25.860  -0.681  25.795  0.00  0.00    -0.200 F 
BRANCH  12  18
ATOM     18  C   UNL A   1     -25.642   4.093  27.123  0.00  0.00    +0.266 C 
ATOM     19  N   UNL A   1     -25.614   5.252  26.449  0.00  0.00    -0.200 NA
ATOM     20  C   UNL A   1     -25.026   6.479  26.963  0.00  0.00    +0.139 C 
ATOM     21  O   UNL A   1     -25.143   3.966  28.243  0.00  0.00    -0.268 OA
ENDBRANCH  12  18
BRANCH  15  22
ATOM     22  O   UNL A   1     -28.193  -0.208  24.477  0.00  0.00    -0.456 OA
BRANCH  22  23
ATOM     23  C   UNL A   1     -29.460   0.005  23.866  0.00  0.00    +0.243 C 
BRANCH  23  24
ATOM     24  C   UNL A   1     -30.065  -1.377  23.573  0.00  0.00    +0.229 C 
ATOM     25  O   UNL A   1     -30.729  -1.878  24.721  0.00  0.00    -0.216 OA
ENDBRANCH  23  24
ENDBRANCH  22  23
ENDBRANCH  15  22
ENDBRANCH   3  11
BRANCH   7  26
ATOM     26  C   UNL A   1     -24.855  -1.012  30.143  0.00  0.00    +0.065 C 
BRANCH  26  27
ATOM     27  C   UNL A   1     -24.973  -2.505  29.788  0.00  0.00    -0.017 C 
ATOM     28  C   UNL A   1     -23.906  -3.173  29.146  0.00  0.00    -0.004 C 
ATOM     29  C   UNL A   1     -23.989  -4.549  28.853  0.00  0.00    -0.000 C 
ATOM     30  C   UNL A   1     -25.137  -5.280  29.205  0.00  0.00    -0.000 C 
ATOM     31  C   UNL A   1     -26.232  -4.611  29.784  0.00  0.00    -0.000 C 
ATOM     32  C   UNL A   1     -26.155  -3.232  30.065  0.00  0.00    -0.004 C 
ENDBRANCH  26  27
BRANCH  26  33
ATOM     33  C   UNL A   1     -25.387  -0.679  31.571  0.00  0.00    +0.081 C 
ATOM     34  C   UNL A   1     -25.189   0.773  32.028  0.00  0.00    +0.019 C 
ATOM     35  C   UNL A   1     -25.336   0.684  33.544  0.00  0.00    +0.020 C 
ATOM     36  C   UNL A   1     -24.829  -0.715  33.905  0.00  0.00    +0.089 C 
ATOM     37  N   UNL A   1     -24.758  -1.481  32.646  0.00  0.00    -0.219 NA
ENDBRANCH  26  33
ENDBRANCH   7  26
BRANCH   1  38
ATOM     38  O   UNL A   1     -26.255   0.683  28.754  0.00  0.00    -0.479 OA
BRANCH  38  39
ATOM     39  C   UNL A   1     -27.090  -0.392  28.356  0.00  0.00    +0.206 C 
BRANCH  39  40
ATOM     40  C   UNL A   1     -28.565  -0.206  28.798  0.00  0.00    +0.068 C 
BRANCH  40  42
ATOM     41  N   UNL A   1     -29.905   0.943  30.589  0.00  0.00    -0.131 NA
ATOM     42  C   UNL A   1     -28.671   0.221  30.284  0.00  0.00    +0.113 C 
ENDBRANCH  40  42
ENDBRANCH  39  40
ENDBRANCH  38  39
ENDBRANCH   1  38
TORSDOF 12
