MODEL 1545
MODEL 1
REMARK VINA RESULT:    -7.440      0.000      0.000
REMARK INTER + INTRA:         -11.662
REMARK INTER:                 -10.920
REMARK INTRA:                  -0.742
REMARK UNBOUND:                -0.742
REMARK  Name = No_1545-gen_results/8p0m/2024-11-27-11-27-31/
REMARK  8 active torsions:
REMARK  status: ('A' for Active; 'I' for Inactive)
REMARK    1  A    between atoms: C_3  and  C_8
REMARK    2  A    between atoms: C_6  and  O_7
REMARK    3  A    between atoms: O_7  and  C_14
REMARK    4  A    between atoms: C_14  and  C_15
REMARK    5  A    between atoms: C_20  and  O_21
REMARK    6  A    between atoms: O_21  and  C_25
REMARK    7  A    between atoms: C_25  and  C_26
REMARK    8  A    between atoms: C_26  and  C_27
REMARK                            x       y       z     vdW  Elec       q    Type
REMARK                         _______ _______ _______ _____ _____    ______ ____
ROOT
ATOM      1  C   UNL A   1     -24.997   0.494  26.243  0.00  0.00    +0.191 C 
ATOM      2  O   UNL A   1     -24.537   1.521  25.733  0.00  0.00    -0.321 OA
ATOM      3  C   UNL A   1     -23.113   1.807  25.866  0.00  0.00    +0.312 C 
ATOM      4  C   UNL A   1     -22.794   1.832  27.195  0.00  0.00    +0.246 C 
ATOM      5  C   UNL A   1     -23.188   0.599  27.875  0.00  0.00    +0.217 C 
ATOM      6  C   UNL A   1     -24.681   0.373  27.617  0.00  0.00    +0.179 C 
ATOM      7  F   UNL A   1     -22.897   3.033  25.190  0.00  0.00    -0.201 F 
ATOM      8  O   UNL A   1     -21.338   1.998  27.335  0.00  0.00    -0.214 OA
ATOM      9  O   UNL A   1     -23.032   0.607  29.265  0.00  0.00    -0.217 OA
ENDROOT
BRANCH   1  10
ATOM     10  C   UNL A   1     -26.383   0.315  26.060  0.00  0.00    +0.237 C 
BRANCH  10  11
ATOM     11  O   UNL A   1     -26.693   0.122  24.728  0.00  0.00    -0.473 OA
BRANCH  11  17
ATOM     12  C   UNL A   1     -28.926  -0.161  23.731  0.00  0.00    +0.037 A 
ATOM     13  C   UNL A   1     -29.958   0.314  23.318  0.00  0.00    +0.003 A 
ATOM     14  C   UNL A   1     -30.120   1.690  23.203  0.00  0.00    +0.000 A 
ATOM     15  C   UNL A   1     -29.078   2.596  23.616  0.00  0.00    +0.003 A 
ATOM     16  C   UNL A   1     -27.928   1.962  24.103  0.00  0.00    +0.037 A 
ATOM     17  C   UNL A   1     -27.831   0.656  24.208  0.00  0.00    +0.139 A 
BRANCH  14  18
ATOM     18  C   UNL A   1     -31.350   2.401  22.694  0.00  0.00    +0.000 A 
ATOM     19  C   UNL A   1     -31.822   3.504  23.157  0.00  0.00    +0.000 A 
ATOM     20  C   UNL A   1     -32.966   4.155  22.543  0.00  0.00    +0.000 A 
ATOM     21  C   UNL A   1     -33.384   3.720  21.276  0.00  0.00    +0.000 A 
ATOM     22  C   UNL A   1     -31.820   2.007  21.370  0.00  0.00    +0.000 A 
ATOM     23  C   UNL A   1     -32.834   2.658  20.737  0.00  0.00    +0.000 A 
ENDBRANCH  14  18
ENDBRANCH  11  17
ENDBRANCH  10  11
ENDBRANCH   1  10
BRANCH   6  24
ATOM     24  O   UNL A   1     -25.323  -0.288  28.489  0.00  0.00    -0.351 OA
BRANCH  24  25
ATOM     25  C   UNL A   1     -25.015  -1.589  28.608  0.00  0.00    +0.147 C 
BRANCH  25  26
ATOM     26  C   UNL A   1     -25.607  -2.146  29.759  0.00  0.00    +0.058 C 
BRANCH  26  27
ATOM     27  C   UNL A   1     -25.743  -3.461  29.699  0.00  0.00    -0.028 C 
ATOM     28  C   UNL A   1     -24.750  -4.115  29.024  0.00  0.00    -0.030 C 
ATOM     29  C   UNL A   1     -24.766  -5.601  28.869  0.00  0.00    +0.030 C 
ENDBRANCH  26  27
ENDBRANCH  25  26
ENDBRANCH  24  25
ENDBRANCH   6  24
TORSDOF 8
ENDMDL
ENDMDL
