REMARK  Name = outputs/IAG933/test6/raw/output_1546_IAG933_linker_design_.xyz
REMARK  13 active torsions:
REMARK  status: ('A' for Active; 'I' for Inactive)
REMARK    1  A    between atoms: C_1  and  C_2
REMARK    2  A    between atoms: C_1  and  C_8
REMARK    3  A    between atoms: C_1  and  N_39
REMARK    4  A    between atoms: C_13  and  C_34
REMARK    5  A    between atoms: C_14  and  C_15
REMARK    6  A    between atoms: C_21  and  O_22
REMARK    7  A    between atoms: O_22  and  C_23
REMARK    8  A    between atoms: C_23  and  C_24
REMARK    9  A    between atoms: C_28  and  C_34
REMARK   10  A    between atoms: C_32  and  C_40
REMARK   11  A    between atoms: C_36  and  C_37
REMARK   12  A    between atoms: C_36  and  C_38
REMARK   13  A    between atoms: C_38  and  C_41
REMARK                            x       y       z     vdW  Elec       q    Type
REMARK                         _______ _______ _______ _____ _____    ______ ____
ROOT
ATOM      1  C   UNL A   1     -24.527   1.351  27.108  0.00  0.00    -0.005 C 
ATOM      2  C   UNL A   1     -23.201   1.765  26.618  0.00  0.00    +0.035 C 
ENDROOT
BRANCH   1   3
ATOM      3  C   UNL A   1     -25.688   1.614  26.461  0.00  0.00    +0.035 C 
ATOM      4  C   UNL A   1     -26.250   2.920  26.395  0.00  0.00    +0.076 C 
ATOM      5  C   UNL A   1     -27.438   3.091  25.645  0.00  0.00    +0.107 C 
ATOM      6  N   UNL A   1     -28.075   2.089  25.003  0.00  0.00    -0.208 NA
ATOM      7  C   UNL A   1     -27.543   0.849  25.079  0.00  0.00    +0.253 C 
ATOM      8  C   UNL A   1     -26.354   0.576  25.777  0.00  0.00    +0.193 C 
ATOM      9  F   UNL A   1     -25.860  -0.681  25.795  0.00  0.00    -0.199 F 
BRANCH   4  10
ATOM     10  C   UNL A   1     -25.642   4.093  27.123  0.00  0.00    +0.266 C 
ATOM     11  N   UNL A   1     -25.614   5.252  26.449  0.00  0.00    -0.200 NA
ATOM     12  C   UNL A   1     -25.026   6.479  26.963  0.00  0.00    +0.139 C 
ATOM     13  O   UNL A   1     -25.143   3.966  28.243  0.00  0.00    -0.268 OA
ENDBRANCH   4  10
BRANCH   7  14
ATOM     14  O   UNL A   1     -28.193  -0.208  24.477  0.00  0.00    -0.456 OA
BRANCH  14  15
ATOM     15  C   UNL A   1     -29.460   0.005  23.866  0.00  0.00    +0.243 C 
BRANCH  15  16
ATOM     16  C   UNL A   1     -30.065  -1.377  23.573  0.00  0.00    +0.229 C 
ATOM     17  O   UNL A   1     -30.729  -1.878  24.721  0.00  0.00    -0.216 OA
ENDBRANCH  15  16
ENDBRANCH  14  15
ENDBRANCH   7  14
ENDBRANCH   1   3
BRANCH   1  18
ATOM     18  C   UNL A   1     -24.889   0.620  28.346  0.00  0.00    +0.099 C 
ATOM     19  C   UNL A   1     -25.781   0.622  28.833  0.00  0.00    +0.100 C 
ATOM     20  N   UNL A   1     -24.651   0.086  29.189  0.00  0.00    -0.262 NA
BRANCH  19  24
ATOM     21  C   UNL A   1     -29.388   0.335  28.153  0.00  0.00    -0.000 C 
ATOM     22  C   UNL A   1     -27.666   1.828  29.845  0.00  0.00    -0.003 C 
ATOM     23  C   UNL A   1     -29.837   1.518  28.769  0.00  0.00    -0.000 C 
ATOM     24  C   UNL A   1     -27.180   0.760  29.041  0.00  0.00    -0.006 C 
ATOM     25  C   UNL A   1     -28.084  -0.107  28.370  0.00  0.00    -0.003 C 
ATOM     26  C   UNL A   1     -28.997   2.237  29.628  0.00  0.00    -0.000 C 
ENDBRANCH  19  24
BRANCH  20  27
ATOM     27  C   UNL A   1     -24.855  -1.012  30.143  0.00  0.00    +0.097 C 
BRANCH  27  28
ATOM     28  C   UNL A   1     -24.973  -2.505  29.788  0.00  0.00    -0.006 C 
ATOM     29  C   UNL A   1     -23.906  -3.173  29.146  0.00  0.00    -0.003 C 
ATOM     30  C   UNL A   1     -23.989  -4.549  28.853  0.00  0.00    -0.000 C 
ATOM     31  C   UNL A   1     -25.137  -5.280  29.205  0.00  0.00    -0.000 C 
ATOM     32  C   UNL A   1     -26.232  -4.611  29.784  0.00  0.00    -0.000 C 
ATOM     33  C   UNL A   1     -26.155  -3.232  30.065  0.00  0.00    -0.003 C 
ENDBRANCH  27  28
BRANCH  27  34
ATOM     34  C   UNL A   1     -25.387  -0.679  31.571  0.00  0.00    +0.092 C 
ATOM     35  C   UNL A   1     -25.189   0.773  32.028  0.00  0.00    +0.021 C 
ATOM     36  C   UNL A   1     -25.336   0.684  33.544  0.00  0.00    +0.020 C 
ATOM     37  C   UNL A   1     -24.829  -0.715  33.905  0.00  0.00    +0.089 C 
ATOM     38  N   UNL A   1     -24.758  -1.481  32.646  0.00  0.00    -0.218 NA
ENDBRANCH  27  34
ENDBRANCH  20  27
ENDBRANCH   1  18
BRANCH   2  40
ATOM     39  F   UNL A   1     -21.017   2.256  27.628  0.00  0.00    -0.216 F 
ATOM     40  C   UNL A   1     -22.188   1.585  27.486  0.00  0.00    +0.271 C 
BRANCH  40  42
ATOM     41  N   UNL A   1     -22.061  -0.063  29.438  0.00  0.00    -0.193 NA
ATOM     42  C   UNL A   1     -22.247   0.745  28.578  0.00  0.00    +0.113 C 
ENDBRANCH  40  42
ENDBRANCH   2  40
BRANCH   2  43
ATOM     43  C   UNL A   1     -22.941   2.321  25.369  0.00  0.00    +0.219 C 
ATOM     44  F   UNL A   1     -21.566   2.346  25.120  0.00  0.00    -0.229 F 
ENDBRANCH   2  43
TORSDOF 13
