MODEL 1547
MODEL 1
REMARK VINA RESULT:    -4.942      0.000      0.000
REMARK INTER + INTRA:          -5.295
REMARK INTER:                  -5.231
REMARK INTRA:                  -0.064
REMARK UNBOUND:                -0.064
REMARK  Name = No_1547-gen_results/8p0m/2024-11-27-11-27-31/
REMARK  1 active torsions:
REMARK  status: ('A' for Active; 'I' for Inactive)
REMARK    1  A    between atoms: C_2  and  C_7
REMARK                            x       y       z     vdW  Elec       q    Type
REMARK                         _______ _______ _______ _____ _____    ______ ____
ROOT
ATOM      1  C   UNL A   1     -23.910  -3.698  28.789  0.00  0.00    +0.006 A 
ATOM      2  C   UNL A   1     -24.402  -2.830  29.128  0.00  0.00    +0.068 A 
ATOM      3  C   UNL A   1     -24.650  -4.996  29.024  0.00  0.00    +0.000 A 
ATOM      4  C   UNL A   1     -25.966  -4.960  29.531  0.00  0.00    +0.000 A 
ATOM      5  C   UNL A   1     -25.754  -2.519  29.643  0.00  0.00    +0.006 A 
ATOM      6  C   UNL A   1     -26.466  -3.689  29.867  0.00  0.00    +0.000 A 
ENDROOT
BRANCH   2   7
ATOM      7  C   UNL A   1     -23.475  -1.574  28.862  0.00  0.00    +0.333 C 
ATOM      8  O   UNL A   1     -22.308  -1.625  28.958  0.00  0.00    -0.254 OA
ATOM      9  F   UNL A   1     -23.968  -0.692  28.071  0.00  0.00    -0.159 F 
ENDBRANCH   2   7
TORSDOF 1
ENDMDL
ENDMDL
