REMARK  Name = outputs/IAG933/test6/raw/output_1547_IAG933_linker_design_.xyz
REMARK  12 active torsions:
REMARK  status: ('A' for Active; 'I' for Inactive)
REMARK    1  A    between atoms: C_1  and  C_2
REMARK    2  A    between atoms: C_1  and  C_8
REMARK    3  A    between atoms: C_1  and  C_42
REMARK    4  A    between atoms: C_13  and  C_34
REMARK    5  A    between atoms: C_14  and  C_15
REMARK    6  A    between atoms: C_21  and  O_22
REMARK    7  A    between atoms: O_22  and  C_23
REMARK    8  A    between atoms: C_23  and  C_24
REMARK    9  A    between atoms: C_29  and  C_32
REMARK   10  A    between atoms: C_32  and  C_41
REMARK   11  A    between atoms: N_33  and  C_42
REMARK   12  A    between atoms: C_37  and  C_42
REMARK                            x       y       z     vdW  Elec       q    Type
REMARK                         _______ _______ _______ _____ _____    ______ ____
ROOT
ATOM      1  C   UNL A   1     -23.411   1.425  26.821  0.00  0.00    +0.074 C 
ATOM      2  C   UNL A   1     -24.612   1.132  27.096  0.00  0.00    +0.025 C 
ATOM      3  F   UNL A   1     -21.265   1.263  27.829  0.00  0.00    -0.185 F 
ATOM      4  I   UNL A   1     -22.784   2.556  25.309  0.00  0.00    -0.039 I 
ATOM      5  C   UNL A   1     -24.583   0.390  28.250  0.00  0.00    +0.074 C 
ATOM      6  N   UNL A   1     -23.209   0.142  28.599  0.00  0.00    -0.188 NA
ATOM      7  C   UNL A   1     -22.601   0.926  27.823  0.00  0.00    +0.217 C 
ENDROOT
BRANCH   2   8
ATOM      8  C   UNL A   1     -25.688   1.614  26.461  0.00  0.00    +0.040 C 
ATOM      9  C   UNL A   1     -26.250   2.920  26.395  0.00  0.00    +0.077 C 
ATOM     10  C   UNL A   1     -27.438   3.091  25.645  0.00  0.00    +0.107 C 
ATOM     11  N   UNL A   1     -28.075   2.089  25.003  0.00  0.00    -0.208 NA
ATOM     12  C   UNL A   1     -27.543   0.849  25.079  0.00  0.00    +0.253 C 
ATOM     13  C   UNL A   1     -26.354   0.576  25.777  0.00  0.00    +0.193 C 
ATOM     14  F   UNL A   1     -25.860  -0.681  25.795  0.00  0.00    -0.199 F 
BRANCH   9  15
ATOM     15  C   UNL A   1     -25.642   4.093  27.123  0.00  0.00    +0.266 C 
ATOM     16  N   UNL A   1     -25.614   5.252  26.449  0.00  0.00    -0.200 NA
ATOM     17  C   UNL A   1     -25.026   6.479  26.963  0.00  0.00    +0.139 C 
ATOM     18  O   UNL A   1     -25.143   3.966  28.243  0.00  0.00    -0.268 OA
ENDBRANCH   9  15
BRANCH  12  19
ATOM     19  O   UNL A   1     -28.193  -0.208  24.477  0.00  0.00    -0.456 OA
BRANCH  19  20
ATOM     20  C   UNL A   1     -29.460   0.005  23.866  0.00  0.00    +0.243 C 
BRANCH  20  21
ATOM     21  C   UNL A   1     -30.065  -1.377  23.573  0.00  0.00    +0.229 C 
ATOM     22  O   UNL A   1     -30.729  -1.878  24.721  0.00  0.00    -0.216 OA
ENDBRANCH  20  21
ENDBRANCH  19  20
ENDBRANCH  12  19
ENDBRANCH   2   8
BRANCH   5  23
ATOM     23  C   UNL A   1     -25.548  -0.162  29.149  0.00  0.00    +0.146 C 
BRANCH  23  25
ATOM     24  C   UNL A   1     -28.065   0.199  28.364  0.00  0.00    +0.131 C 
ATOM     25  N   UNL A   1     -26.904   0.011  29.229  0.00  0.00    -0.262 NA
BRANCH  24  26
ATOM     26  C   UNL A   1     -29.419   0.108  28.758  0.00  0.00    +0.191 C 
ATOM     27  O   UNL A   1     -30.183  -0.607  28.093  0.00  0.00    -0.290 OA
BRANCH  26  31
ATOM     28  C   UNL A   1     -30.017   2.164  29.909  0.00  0.00    +0.008 C 
ATOM     29  C   UNL A   1     -28.946   1.405  30.682  0.00  0.00    +0.008 C 
ATOM     30  C   UNL A   1     -28.674   2.744  29.940  0.00  0.00    +0.001 C 
ATOM     31  C   UNL A   1     -30.107   0.705  30.059  0.00  0.00    +0.064 C 
ENDBRANCH  26  31
ENDBRANCH  24  26
ENDBRANCH  23  25
BRANCH  23  32
ATOM     32  C   UNL A   1     -24.855  -1.012  30.143  0.00  0.00    +0.066 C 
BRANCH  32  33
ATOM     33  C   UNL A   1     -24.973  -2.505  29.788  0.00  0.00    -0.019 C 
ATOM     34  C   UNL A   1     -23.906  -3.173  29.146  0.00  0.00    -0.004 C 
ATOM     35  C   UNL A   1     -23.989  -4.549  28.853  0.00  0.00    -0.000 C 
ATOM     36  C   UNL A   1     -25.137  -5.280  29.205  0.00  0.00    -0.000 C 
ATOM     37  C   UNL A   1     -26.232  -4.611  29.784  0.00  0.00    -0.000 C 
ATOM     38  C   UNL A   1     -26.155  -3.232  30.065  0.00  0.00    -0.004 C 
ENDBRANCH  32  33
BRANCH  32  39
ATOM     39  C   UNL A   1     -25.387  -0.679  31.571  0.00  0.00    +0.079 C 
ATOM     40  C   UNL A   1     -25.189   0.773  32.028  0.00  0.00    +0.019 C 
ATOM     41  C   UNL A   1     -25.336   0.684  33.544  0.00  0.00    +0.020 C 
ATOM     42  C   UNL A   1     -24.829  -0.715  33.905  0.00  0.00    +0.089 C 
ATOM     43  N   UNL A   1     -24.758  -1.481  32.646  0.00  0.00    -0.219 NA
ENDBRANCH  32  39
ENDBRANCH  23  32
ENDBRANCH   5  23
TORSDOF 12
