MODEL 1548
MODEL 1
REMARK VINA RESULT:    -5.896      0.000      0.000
REMARK INTER + INTRA:         -12.477
REMARK INTER:                  -9.687
REMARK INTRA:                  -2.790
REMARK UNBOUND:                -2.790
REMARK  Name = No_1548-gen_results/8p0m/2024-11-27-11-27-31/
REMARK  11 active torsions:
REMARK  status: ('A' for Active; 'I' for Inactive)
REMARK    1  A    between atoms: C_1  and  C_28
REMARK    2  A    between atoms: C_3  and  C_11
REMARK    3  A    between atoms: C_5  and  P_7
REMARK    4  A    between atoms: C_11  and  C_12
REMARK    5  A    between atoms: C_12  and  C_14
REMARK    6  A    between atoms: C_13  and  N_16
REMARK    7  A    between atoms: C_14  and  C_25
REMARK    8  A    between atoms: N_16  and  C_17
REMARK    9  A    between atoms: C_20  and  C_31
REMARK   10  A    between atoms: N_32  and  C_33
REMARK   11  A    between atoms: C_33  and  C_34
REMARK                            x       y       z     vdW  Elec       q    Type
REMARK                         _______ _______ _______ _____ _____    ______ ____
ROOT
ATOM      1  C   UNL A   1     -10.571   0.278  38.736  0.00  0.00    -0.015 C 
ATOM      2  C   UNL A   1      -9.428  -0.018  38.668  0.00  0.00    +0.058 C 
ENDROOT
BRANCH   1   3
ATOM      3  C   UNL A   1     -11.235  -0.884  39.565  0.00  0.00    +0.110 C 
ATOM      4  C   UNL A   1     -12.383  -0.729  40.265  0.00  0.00    +0.015 C 
ATOM      5  C   UNL A   1     -10.217  -1.578  40.476  0.00  0.00    +0.015 C 
BRANCH   3   6
ATOM      6  C   UNL A   1     -11.586  -1.997  38.405  0.00  0.00    +0.367 C 
ATOM      7  O   UNL A   1     -11.391  -1.838  37.373  0.00  0.00    -0.245 OA
ATOM      8  O   UNL A   1     -12.493  -2.939  38.772  0.00  0.00    -0.245 OA
ENDBRANCH   3   6
ENDBRANCH   1   3
BRANCH   2   9
ATOM      9  N   UNL A   1      -8.677   1.076  38.332  0.00  0.00    -0.283 N 
ATOM     10  C   UNL A   1      -8.129   1.811  39.461  0.00  0.00    +0.117 C 
BRANCH   9  11
ATOM     11  C   UNL A   1      -8.399   1.386  37.071  0.00  0.00    +0.071 A 
ATOM     12  C   UNL A   1      -8.347   2.522  36.528  0.00  0.00    +0.019 A 
ATOM     13  C   UNL A   1      -7.946   0.255  36.178  0.00  0.00    +0.114 A 
ATOM     14  C   UNL A   1      -7.873   2.872  35.235  0.00  0.00    +0.039 A 
ATOM     15  N   UNL A   1      -7.435   0.516  35.006  0.00  0.00    -0.241 NA
ATOM     16  C   UNL A   1      -7.481   1.728  34.474  0.00  0.00    +0.101 A 
BRANCH  14  17
ATOM     17  C   UNL A   1      -7.809   4.192  34.650  0.00  0.00    +0.095 C 
ATOM     18  N   UNL A   1      -8.420   5.222  34.261  0.00  0.00    -0.269 NA
BRANCH  18  19
ATOM     19  C   UNL A   1      -9.823   5.075  34.324  0.00  0.00    +0.126 C 
BRANCH  19  20
ATOM     20  C   UNL A   1     -10.371   6.048  35.439  0.00  0.00    +0.026 C 
ATOM     21  C   UNL A   1     -11.025   5.263  36.519  0.00  0.00    +0.002 C 
ENDBRANCH  19  20
ENDBRANCH  18  19
ENDBRANCH  14  17
ENDBRANCH   9  11
ENDBRANCH   2   9
BRANCH   1  22
ATOM     22  C   UNL A   1     -11.304   1.481  38.849  0.00  0.00    +0.050 C 
BRANCH  22  25
ATOM     23  C   UNL A   1     -12.307   1.962  35.351  0.00  0.00    +0.080 A 
ATOM     24  C   UNL A   1     -11.757   1.577  36.357  0.00  0.00    +0.003 A 
ATOM     25  C   UNL A   1     -12.180   1.842  37.648  0.00  0.00    -0.018 A 
ATOM     26  C   UNL A   1     -13.377   2.604  37.795  0.00  0.00    -0.001 A 
ATOM     27  C   UNL A   1     -14.043   2.887  36.657  0.00  0.00    +0.029 A 
ATOM     28  C   UNL A   1     -13.588   2.506  35.461  0.00  0.00    +0.009 A 
BRANCH  27  29
ATOM     29  P   UNL A   1     -15.556   3.766  36.875  0.00  0.00    +0.140 P 
ATOM     30  O   UNL A   1     -16.284   3.882  35.960  0.00  0.00    -0.354 OA
ATOM     31  O   UNL A   1     -15.078   5.139  37.518  0.00  0.00    -0.456 OA
ATOM     32  O   UNL A   1     -16.151   2.980  38.125  0.00  0.00    -0.354 OA
ENDBRANCH  27  29
BRANCH  23  33
ATOM     33  C   UNL A   1     -11.866   1.539  33.964  0.00  0.00    +0.388 C 
ATOM     34  O   UNL A   1     -12.872   1.411  33.166  0.00  0.00    -0.241 OA
ATOM     35  O   UNL A   1     -10.718   1.721  33.498  0.00  0.00    -0.241 OA
ENDBRANCH  23  33
ENDBRANCH  22  25
ENDBRANCH   1  22
TORSDOF 11
ENDMDL
ENDMDL
