REMARK  Name = No_1548-gen_results/8p0m/2024-11-27-11-27-31/
REMARK  11 active torsions:
REMARK  status: ('A' for Active; 'I' for Inactive)
REMARK    1  A    between atoms: C_1  and  C_28
REMARK    2  A    between atoms: C_3  and  C_11
REMARK    3  A    between atoms: C_5  and  P_7
REMARK    4  A    between atoms: C_11  and  C_12
REMARK    5  A    between atoms: C_12  and  C_14
REMARK    6  A    between atoms: C_13  and  N_16
REMARK    7  A    between atoms: C_14  and  C_25
REMARK    8  A    between atoms: N_16  and  C_17
REMARK    9  A    between atoms: C_20  and  C_31
REMARK   10  A    between atoms: N_32  and  C_33
REMARK   11  A    between atoms: C_33  and  C_34
REMARK                            x       y       z     vdW  Elec       q    Type
REMARK                         _______ _______ _______ _____ _____    ______ ____
ROOT
ATOM      1  C   UNL A   1     -25.206   2.389  28.049  0.00  0.00    -0.015 C 
ATOM      2  C   UNL A   1     -24.172   2.695  28.536  0.00  0.00    +0.058 C 
ENDROOT
BRANCH   1   3
ATOM      3  C   UNL A   1     -25.959   3.753  27.823  0.00  0.00    +0.110 C 
ATOM      4  C   UNL A   1     -27.153   3.842  27.192  0.00  0.00    +0.015 C 
ATOM      5  C   UNL A   1     -25.030   4.816  27.227  0.00  0.00    +0.015 C 
BRANCH   3   6
ATOM      6  C   UNL A   1     -26.247   4.263  29.360  0.00  0.00    +0.367 C 
ATOM      7  O   UNL A   1     -27.075   3.928  29.935  0.00  0.00    -0.245 OA
ATOM      8  O   UNL A   1     -25.622   5.418  29.706  0.00  0.00    -0.245 OA
ENDBRANCH   3   6
ENDBRANCH   1   3
BRANCH   2   9
ATOM      9  N   UNL A   1     -23.274   1.669  28.417  0.00  0.00    -0.283 N 
ATOM     10  C   UNL A   1     -22.445   1.718  27.223  0.00  0.00    +0.117 C 
BRANCH   9  11
ATOM     11  C   UNL A   1     -23.113   0.752  29.364  0.00  0.00    +0.071 A 
ATOM     12  C   UNL A   1     -23.745   0.610  30.445  0.00  0.00    +0.019 A 
ATOM     13  C   UNL A   1     -22.140  -0.365  29.068  0.00  0.00    +0.114 A 
ATOM     14  C   UNL A   1     -23.702  -0.469  31.368  0.00  0.00    +0.039 A 
ATOM     15  N   UNL A   1     -22.103  -1.417  29.839  0.00  0.00    -0.241 NA
ATOM     16  C   UNL A   1     -22.744  -1.462  30.997  0.00  0.00    +0.101 A 
BRANCH  14  17
ATOM     17  C   UNL A   1     -24.459  -0.609  32.592  0.00  0.00    +0.095 C 
ATOM     18  N   UNL A   1     -25.514  -0.360  33.233  0.00  0.00    -0.269 NA
BRANCH  18  19
ATOM     19  C   UNL A   1     -26.379   0.511  32.535  0.00  0.00    +0.126 C 
BRANCH  19  20
ATOM     20  C   UNL A   1     -26.662   1.764  33.452  0.00  0.00    +0.026 C 
ATOM     21  C   UNL A   1     -27.734   2.600  32.850  0.00  0.00    +0.002 C 
ENDBRANCH  19  20
ENDBRANCH  18  19
ENDBRANCH  14  17
ENDBRANCH   9  11
ENDBRANCH   2   9
BRANCH   1  22
ATOM     22  C   UNL A   1     -25.650   1.395  27.148  0.00  0.00    +0.050 C 
BRANCH  22  25
ATOM     23  C   UNL A   1     -28.016  -0.814  28.878  0.00  0.00    +0.080 A 
ATOM     24  C   UNL A   1     -27.064  -0.119  28.608  0.00  0.00    +0.003 A 
ATOM     25  C   UNL A   1     -26.972   0.714  27.506  0.00  0.00    -0.018 A 
ATOM     26  C   UNL A   1     -28.105   0.774  26.642  0.00  0.00    -0.001 A 
ATOM     27  C   UNL A   1     -29.201   0.104  27.053  0.00  0.00    +0.029 A 
ATOM     28  C   UNL A   1     -29.210  -0.603  28.185  0.00  0.00    +0.009 A 
BRANCH  27  29
ATOM     29  P   UNL A   1     -30.609   0.257  26.002  0.00  0.00    +0.140 P 
ATOM     30  O   UNL A   1     -31.539  -0.435  26.194  0.00  0.00    -0.354 OA
ATOM     31  O   UNL A   1     -29.980   0.132  24.548  0.00  0.00    -0.456 OA
ATOM     32  O   UNL A   1     -30.881   1.820  26.136  0.00  0.00    -0.354 OA
ENDBRANCH  27  29
BRANCH  23  33
ATOM     33  C   UNL A   1     -28.109  -1.613  30.162  0.00  0.00    +0.388 C 
ATOM     34  O   UNL A   1     -27.662  -2.813  30.007  0.00  0.00    -0.241 OA
ATOM     35  O   UNL A   1     -28.165  -1.110  31.308  0.00  0.00    -0.241 OA
ENDBRANCH  23  33
ENDBRANCH  22  25
ENDBRANCH   1  22
TORSDOF 11
