MODEL 1549
MODEL 1
REMARK VINA RESULT:    -5.965      0.000      0.000
REMARK INTER + INTRA:          -6.464
REMARK INTER:                  -6.314
REMARK INTRA:                  -0.150
REMARK UNBOUND:                -0.150
REMARK  Name = No_1549-gen_results/8p0m/2024-11-27-11-27-31/
REMARK  1 active torsions:
REMARK  status: ('A' for Active; 'I' for Inactive)
REMARK    1  A    between atoms: C_11  and  C_12
REMARK                            x       y       z     vdW  Elec       q    Type
REMARK                         _______ _______ _______ _____ _____    ______ ____
ROOT
ATOM      1  O   UNL A   1     -23.142   2.628  25.455  0.00  0.00    -0.268 OA
ATOM      2  C   UNL A   1     -23.527   1.775  26.263  0.00  0.00    +0.265 C 
ATOM      3  C   UNL A   1     -23.175   1.192  27.048  0.00  0.00    +0.051 A 
ATOM      4  N   UNL A   1     -24.977   1.234  25.798  0.00  0.00    -0.201 NA
ATOM      5  C   UNL A   1     -23.680   0.041  27.864  0.00  0.00    -0.011 A 
ATOM      6  C   UNL A   1     -25.021  -0.300  27.471  0.00  0.00    +0.050 C 
ATOM      7  C   UNL A   1     -25.579   0.290  26.411  0.00  0.00    +0.120 C 
ATOM      8  C   UNL A   1     -21.713   1.337  27.713  0.00  0.00    +0.004 A 
ATOM      9  C   UNL A   1     -21.024   0.477  28.282  0.00  0.00    +0.000 A 
ATOM     10  C   UNL A   1     -21.694  -0.619  29.003  0.00  0.00    +0.005 A 
ATOM     11  C   UNL A   1     -23.031  -0.822  28.805  0.00  0.00    +0.064 A 
ENDROOT
BRANCH  11  12
ATOM     12  C   UNL A   1     -23.658  -2.017  29.353  0.00  0.00    +0.333 C 
ATOM     13  O   UNL A   1     -23.379  -3.051  28.790  0.00  0.00    -0.254 OA
ATOM     14  F   UNL A   1     -24.170  -2.009  30.531  0.00  0.00    -0.159 F 
ENDBRANCH  11  12
TORSDOF 1
ENDMDL
ENDMDL
