REMARK  Name = No_1549-gen_results/8p0m/2024-11-27-11-27-31/
REMARK  1 active torsions:
REMARK  status: ('A' for Active; 'I' for Inactive)
REMARK    1  A    between atoms: C_11  and  C_12
REMARK                            x       y       z     vdW  Elec       q    Type
REMARK                         _______ _______ _______ _____ _____    ______ ____
ROOT
ATOM      1  O   UNL A   1     -28.123  -1.335  28.487  0.00  0.00    -0.268 OA
ATOM      2  C   UNL A   1     -27.064  -0.824  28.869  0.00  0.00    +0.265 C 
ATOM      3  C   UNL A   1     -26.402  -0.062  28.622  0.00  0.00    +0.051 A 
ATOM      4  N   UNL A   1     -26.381  -1.799  29.962  0.00  0.00    -0.201 NA
ATOM      5  C   UNL A   1     -25.033   0.374  29.048  0.00  0.00    -0.011 A 
ATOM      6  C   UNL A   1     -24.546  -0.470  30.107  0.00  0.00    +0.050 C 
ATOM      7  C   UNL A   1     -25.236  -1.553  30.471  0.00  0.00    +0.120 C 
ATOM      8  C   UNL A   1     -26.664   1.045  27.480  0.00  0.00    +0.004 A 
ATOM      9  C   UNL A   1     -25.842   1.671  26.794  0.00  0.00    +0.000 A 
ATOM     10  C   UNL A   1     -24.516   1.974  27.360  0.00  0.00    +0.005 A 
ATOM     11  C   UNL A   1     -24.122   1.335  28.502  0.00  0.00    +0.064 A 
ENDROOT
BRANCH  11  12
ATOM     12  C   UNL A   1     -22.745   1.475  28.956  0.00  0.00    +0.333 C 
ATOM     13  O   UNL A   1     -22.143   2.419  28.497  0.00  0.00    -0.254 OA
ATOM     14  F   UNL A   1     -22.334   0.861  30.007  0.00  0.00    -0.159 F 
ENDBRANCH  11  12
TORSDOF 1
