MODEL 154
MODEL 1
REMARK VINA RESULT:    -7.114      0.000      0.000
REMARK INTER + INTRA:         -11.035
REMARK INTER:                  -9.610
REMARK INTRA:                  -1.425
REMARK UNBOUND:                -1.425
REMARK  Name = No_154-gen_results/8p0m/2024-11-27-11-27-31/
REMARK  6 active torsions:
REMARK  status: ('A' for Active; 'I' for Inactive)
REMARK    1  A    between atoms: C_3  and  C_7
REMARK    2  A    between atoms: C_7  and  C_8
REMARK    3  A    between atoms: C_7  and  C_16
REMARK    4  A    between atoms: C_8  and  C_9
REMARK    5  A    between atoms: C_16  and  C_17
REMARK    6  A    between atoms: C_17  and  C_20
REMARK                            x       y       z     vdW  Elec       q    Type
REMARK                         _______ _______ _______ _____ _____    ______ ____
ROOT
ATOM      1  C   UNL A   1     -24.699  -0.303  29.084  0.00  0.00    +0.031 C 
ENDROOT
BRANCH   1   4
ATOM      2  C   UNL A   1     -24.945   0.220  26.588  0.00  0.00    -0.004 A 
ATOM      3  C   UNL A   1     -24.593   0.767  25.758  0.00  0.00    -0.000 A 
ATOM      4  C   UNL A   1     -24.276   0.388  27.820  0.00  0.00    -0.022 A 
ATOM      5  C   UNL A   1     -23.186   1.226  27.951  0.00  0.00    -0.004 A 
ATOM      6  C   UNL A   1     -23.470   1.716  25.630  0.00  0.00    -0.000 A 
ATOM      7  C   UNL A   1     -22.800   1.905  26.788  0.00  0.00    -0.000 A 
ENDBRANCH   1   4
BRANCH   1   8
ATOM      8  C   UNL A   1     -24.111  -1.264  29.532  0.00  0.00    +0.027 C 
ATOM      9  C   UNL A   1     -23.131  -0.946  30.643  0.00  0.00    +0.005 C 
BRANCH   8  10
ATOM     10  C   UNL A   1     -24.450  -2.566  29.212  0.00  0.00    -0.022 A 
ATOM     11  C   UNL A   1     -23.721  -3.385  28.713  0.00  0.00    -0.004 A 
ATOM     12  C   UNL A   1     -24.180  -4.848  28.634  0.00  0.00    -0.000 A 
ATOM     13  C   UNL A   1     -25.455  -5.112  29.053  0.00  0.00    -0.000 A 
ATOM     14  C   UNL A   1     -25.718  -2.975  29.893  0.00  0.00    -0.004 A 
ATOM     15  C   UNL A   1     -26.176  -4.235  29.765  0.00  0.00    -0.000 A 
ENDBRANCH   8  10
ENDBRANCH   1   8
BRANCH   1  16
ATOM     16  C   UNL A   1     -25.922   0.346  29.608  0.00  0.00    +0.035 C 
BRANCH  16  17
ATOM     17  C   UNL A   1     -25.810   1.040  30.897  0.00  0.00    +0.027 C 
ATOM     18  C   UNL A   1     -25.984   0.832  31.961  0.00  0.00    -0.043 C 
ATOM     19  C   UNL A   1     -25.640   1.579  33.145  0.00  0.00    +0.026 C 
ATOM     20  C   UNL A   1     -26.858  -0.458  32.259  0.00  0.00    +0.026 C 
BRANCH  17  21
ATOM     21  C   UNL A   1     -24.906   2.340  30.904  0.00  0.00    +0.280 C 
ATOM     22  N   UNL A   1     -25.458   3.642  30.650  0.00  0.00    -0.084 NA
ATOM     23  O   UNL A   1     -23.759   2.390  31.176  0.00  0.00    -0.267 OA
ENDBRANCH  17  21
ENDBRANCH  16  17
ENDBRANCH   1  16
TORSDOF 6
ENDMDL
ENDMDL
