MODEL 1551
MODEL 1
REMARK VINA RESULT:    -4.764      0.000      0.000
REMARK INTER + INTRA:          -5.891
REMARK INTER:                  -5.599
REMARK INTRA:                  -0.292
REMARK UNBOUND:                -0.292
REMARK  Name = No_1551-gen_results/8p0m/2024-11-27-11-27-31/
REMARK  3 active torsions:
REMARK  status: ('A' for Active; 'I' for Inactive)
REMARK    1  A    between atoms: C_2  and  C_7
REMARK    2  A    between atoms: C_7  and  N_8
REMARK    3  A    between atoms: N_8  and  C_9
REMARK                            x       y       z     vdW  Elec       q    Type
REMARK                         _______ _______ _______ _____ _____    ______ ____
ROOT
ATOM      1  C   UNL A   1     -26.054  -3.314  29.923  0.00  0.00    -0.003 A 
ATOM      2  C   UNL A   1     -25.232  -2.784  29.531  0.00  0.00    -0.001 A 
ATOM      3  C   UNL A   1     -26.116  -4.753  29.618  0.00  0.00    -0.000 A 
ATOM      4  C   UNL A   1     -25.036  -5.398  28.948  0.00  0.00    -0.000 A 
ATOM      5  C   UNL A   1     -23.972  -3.215  28.867  0.00  0.00    -0.003 A 
ATOM      6  C   UNL A   1     -23.996  -4.543  28.559  0.00  0.00    -0.000 A 
ENDROOT
BRANCH   2   7
ATOM      7  C   UNL A   1     -25.119  -1.227  29.855  0.00  0.00    +0.139 C 
BRANCH   7   8
ATOM      8  N   UNL A   1     -24.033  -0.690  29.961  0.00  0.00    -0.232 NA
BRANCH   8   9
ATOM      9  C   UNL A   1     -23.516  -0.210  31.038  0.00  0.00    +0.081 C 
ATOM     10  C   UNL A   1     -23.103  -1.065  32.093  0.00  0.00    +0.019 C 
ENDBRANCH   8   9
ENDBRANCH   7   8
ENDBRANCH   2   7
TORSDOF 3
ENDMDL
ENDMDL
