MODEL 1552
MODEL 1
REMARK VINA RESULT:    -5.424      0.000      0.000
REMARK INTER + INTRA:          -5.424
REMARK INTER:                  -5.424
REMARK INTRA:                   0.000
REMARK UNBOUND:                 0.000
REMARK  Name = No_1552-gen_results/8p0m/2024-11-27-11-27-31/
REMARK  0 active torsions:
REMARK  status: ('A' for Active; 'I' for Inactive)
REMARK                            x       y       z     vdW  Elec       q    Type
REMARK                         _______ _______ _______ _____ _____    ______ ____
ROOT
ATOM      1  C   UNL A   1     -24.945  -5.178  28.974  0.00  0.00    +0.000 A 
ATOM      2  C   UNL A   1     -24.094  -4.344  28.771  0.00  0.00    +0.000 A 
ATOM      3  C   UNL A   1     -24.211  -3.010  29.161  0.00  0.00    +0.000 A 
ATOM      4  C   UNL A   1     -25.437  -2.566  29.796  0.00  0.00    +0.000 A 
ATOM      5  C   UNL A   1     -26.399  -3.556  29.993  0.00  0.00    +0.000 A 
ATOM      6  C   UNL A   1     -26.209  -4.794  29.581  0.00  0.00    +0.000 A 
ATOM      7  C   UNL A   1     -23.206  -1.920  28.953  0.00  0.00    +0.000 A 
ATOM      8  C   UNL A   1     -23.293  -0.711  29.474  0.00  0.00    +0.000 A 
ATOM      9  C   UNL A   1     -24.381  -0.340  30.234  0.00  0.00    +0.000 A 
ATOM     10  C   UNL A   1     -25.517  -1.257  30.390  0.00  0.00    +0.000 A 
ENDROOT
TORSDOF 0
ENDMDL
ENDMDL
