MODEL 1553
MODEL 1
REMARK VINA RESULT:    -6.675      0.000      0.000
REMARK INTER + INTRA:          -8.863
REMARK INTER:                  -8.236
REMARK INTRA:                  -0.627
REMARK UNBOUND:                -0.627
REMARK  Name = No_1553-gen_results/8p0m/2024-11-27-11-27-31/
REMARK  4 active torsions:
REMARK  status: ('A' for Active; 'I' for Inactive)
REMARK    1  A    between atoms: C_2  and  C_17
REMARK    2  A    between atoms: C_4  and  C_7
REMARK    3  A    between atoms: C_8  and  C_14
REMARK    4  A    between atoms: C_12  and  N_20
REMARK                            x       y       z     vdW  Elec       q    Type
REMARK                         _______ _______ _______ _____ _____    ______ ____
ROOT
ATOM      1  C   UNL A   1     -24.365   1.055  27.584  0.00  0.00    +0.046 C 
ATOM      2  C   UNL A   1     -23.232   1.677  26.984  0.00  0.00    +0.109 C 
ATOM      3  C   UNL A   1     -21.974   1.538  27.605  0.00  0.00    +0.012 C 
ATOM      4  C   UNL A   1     -21.877   0.827  28.825  0.00  0.00    +0.002 C 
ATOM      5  C   UNL A   1     -24.646   1.798  28.819  0.00  0.00    +0.007 C 
ATOM      6  C   UNL A   1     -23.871  -0.256  28.269  0.00  0.00    +0.080 C 
ATOM      7  C   UNL A   1     -22.781  -0.419  28.547  0.00  0.00    +0.020 C 
ENDROOT
BRANCH   1  11
ATOM      8  C   UNL A   1     -26.370  -0.367  24.622  0.00  0.00    +0.006 A 
ATOM      9  C   UNL A   1     -27.261   0.157  24.832  0.00  0.00    +0.080 A 
ATOM     10  C   UNL A   1     -25.212  -0.077  25.551  0.00  0.00    -0.004 A 
ATOM     11  C   UNL A   1     -25.422   0.733  26.686  0.00  0.00    -0.021 A 
ATOM     12  C   UNL A   1     -27.744   1.009  25.942  0.00  0.00    +0.006 A 
ATOM     13  C   UNL A   1     -26.707   1.292  26.820  0.00  0.00    -0.004 A 
BRANCH   9  14
ATOM     14  C   UNL A   1     -28.480  -0.158  23.843  0.00  0.00    +0.388 C 
ATOM     15  O   UNL A   1     -28.723  -1.375  23.529  0.00  0.00    -0.241 OA
ATOM     16  O   UNL A   1     -29.183   0.764  23.491  0.00  0.00    -0.241 OA
ENDBRANCH   9  14
ENDBRANCH   1  11
BRANCH   6  17
ATOM     17  N   UNL A   1     -24.817  -1.206  28.621  0.00  0.00    -0.271 N 
ATOM     18  C   UNL A   1     -25.849  -1.473  29.167  0.00  0.00    +0.185 C 
ATOM     19  N   UNL A   1     -26.172  -2.744  29.450  0.00  0.00    -0.144 NA
ATOM     20  C   UNL A   1     -24.340  -2.633  28.589  0.00  0.00    +0.231 C 
ATOM     21  N   UNL A   1     -25.281  -3.397  28.991  0.00  0.00    -0.120 NA
ENDBRANCH   6  17
BRANCH   2  22
ATOM     22  C   UNL A   1     -23.310   2.544  25.810  0.00  0.00    +0.365 C 
ATOM     23  O   UNL A   1     -22.639   2.272  24.783  0.00  0.00    -0.246 OA
ATOM     24  O   UNL A   1     -24.156   3.595  25.853  0.00  0.00    -0.246 OA
ENDBRANCH   2  22
TORSDOF 4
ENDMDL
ENDMDL
