REMARK  Name = No_1553-gen_results/8p0m/2024-11-27-11-27-31/
REMARK  4 active torsions:
REMARK  status: ('A' for Active; 'I' for Inactive)
REMARK    1  A    between atoms: C_2  and  C_17
REMARK    2  A    between atoms: C_4  and  C_7
REMARK    3  A    between atoms: C_8  and  C_14
REMARK    4  A    between atoms: C_12  and  N_20
REMARK                            x       y       z     vdW  Elec       q    Type
REMARK                         _______ _______ _______ _____ _____    ______ ____
ROOT
ATOM      1  C   UNL A   1     -24.389  -0.805  30.164  0.00  0.00    +0.046 C 
ATOM      2  C   UNL A   1     -23.817   0.476  29.912  0.00  0.00    +0.109 C 
ATOM      3  C   UNL A   1     -22.501   0.545  29.410  0.00  0.00    +0.012 C 
ATOM      4  C   UNL A   1     -21.770  -0.652  29.213  0.00  0.00    +0.002 C 
ATOM      5  C   UNL A   1     -23.681  -1.359  31.325  0.00  0.00    +0.007 C 
ATOM      6  C   UNL A   1     -23.806  -1.793  29.108  0.00  0.00    +0.080 C 
ATOM      7  C   UNL A   1     -22.840  -1.579  28.548  0.00  0.00    +0.020 C 
ENDROOT
BRANCH   1  11
ATOM      8  C   UNL A   1     -28.016  -0.814  28.878  0.00  0.00    +0.006 A 
ATOM      9  C   UNL A   1     -28.469  -0.785  29.829  0.00  0.00    +0.080 A 
ATOM     10  C   UNL A   1     -26.504  -0.778  28.877  0.00  0.00    -0.004 A 
ATOM     11  C   UNL A   1     -25.810  -0.853  30.103  0.00  0.00    -0.021 A 
ATOM     12  C   UNL A   1     -27.991  -0.892  31.226  0.00  0.00    +0.006 A 
ATOM     13  C   UNL A   1     -26.604  -0.868  31.265  0.00  0.00    -0.004 A 
BRANCH   9  14
ATOM     14  C   UNL A   1     -30.070  -0.824  29.818  0.00  0.00    +0.388 C 
ATOM     15  O   UNL A   1     -30.715   0.079  30.456  0.00  0.00    -0.241 OA
ATOM     16  O   UNL A   1     -30.616  -1.664  29.136  0.00  0.00    -0.241 OA
ENDBRANCH   9  14
ENDBRANCH   1  11
BRANCH   6  17
ATOM     17  N   UNL A   1     -24.453  -3.004  28.919  0.00  0.00    -0.271 N 
ATOM     18  C   UNL A   1     -25.467  -3.601  28.693  0.00  0.00    +0.185 C 
ATOM     19  N   UNL A   1     -25.556  -4.920  28.919  0.00  0.00    -0.144 NA
ATOM     20  C   UNL A   1     -23.738  -4.210  29.465  0.00  0.00    +0.231 C 
ATOM     21  N   UNL A   1     -24.464  -5.245  29.283  0.00  0.00    -0.120 NA
ENDBRANCH   6  17
BRANCH   2  22
ATOM     22  C   UNL A   1     -24.477   1.738  30.242  0.00  0.00    +0.365 C 
ATOM     23  O   UNL A   1     -24.852   2.508  29.323  0.00  0.00    -0.246 OA
ATOM     24  O   UNL A   1     -24.711   2.009  31.543  0.00  0.00    -0.246 OA
ENDBRANCH   2  22
TORSDOF 4
