MODEL 1554
MODEL 1
REMARK VINA RESULT:    -4.579      0.000      0.000
REMARK INTER + INTRA:          -4.579
REMARK INTER:                  -4.579
REMARK INTRA:                   0.000
REMARK UNBOUND:                 0.000
REMARK  Name = No_1554-gen_results/8p0m/2024-11-27-11-27-31/
REMARK  0 active torsions:
REMARK  status: ('A' for Active; 'I' for Inactive)
REMARK                            x       y       z     vdW  Elec       q    Type
REMARK                         _______ _______ _______ _____ _____    ______ ____
ROOT
ATOM      1  C   UNL A   1     -10.176  -9.818  18.344  0.00  0.00    +0.030 A 
ATOM      2  C   UNL A   1      -9.176 -10.389  17.976  0.00  0.00    +0.140 A 
ATOM      3  C   UNL A   1      -8.046 -10.451  18.785  0.00  0.00    +0.030 A 
ATOM      4  C   UNL A   1      -8.016  -9.797  20.068  0.00  0.00    +0.002 A 
ATOM      5  C   UNL A   1      -9.207  -9.140  20.404  0.00  0.00    +0.000 A 
ATOM      6  C   UNL A   1     -10.242  -9.096  19.596  0.00  0.00    +0.002 A 
ATOM      7  F   UNL A   1      -9.047 -10.981  16.788  0.00  0.00    -0.204 F 
ENDROOT
TORSDOF 0
ENDMDL
ENDMDL
