MODEL 1555
MODEL 1
REMARK VINA RESULT:    -6.562      0.000      0.000
REMARK INTER + INTRA:          -7.455
REMARK INTER:                  -7.329
REMARK INTRA:                  -0.126
REMARK UNBOUND:                -0.126
REMARK  Name = No_1555-gen_results/8p0m/2024-11-27-11-27-31/
REMARK  2 active torsions:
REMARK  status: ('A' for Active; 'I' for Inactive)
REMARK    1  A    between atoms: C_2  and  C_14
REMARK    2  A    between atoms: C_9  and  C_11
REMARK                            x       y       z     vdW  Elec       q    Type
REMARK                         _______ _______ _______ _____ _____    ______ ____
ROOT
ATOM      1  C   UNL A   1     -30.908  -9.664  29.271  0.00  0.00    +0.007 A 
ATOM      2  C   UNL A   1     -30.937 -10.166  28.345  0.00  0.00    +0.080 A 
ATOM      3  C   UNL A   1     -29.947 -10.234  30.290  0.00  0.00    +0.000 A 
ATOM      4  C   UNL A   1     -29.824  -9.828  31.668  0.00  0.00    +0.000 A 
ATOM      5  C   UNL A   1     -30.063 -11.191  27.759  0.00  0.00    +0.007 A 
ATOM      6  C   UNL A   1     -29.140 -11.742  28.621  0.00  0.00    +0.000 A 
ATOM      7  C   UNL A   1     -29.021 -11.269  29.902  0.00  0.00    +0.000 A 
ATOM      8  C   UNL A   1     -29.208 -10.667  32.615  0.00  0.00    +0.005 A 
ATOM      9  C   UNL A   1     -28.274 -11.628  32.159  0.00  0.00    +0.057 A 
ATOM     10  C   UNL A   1     -28.244 -11.992  30.882  0.00  0.00    +0.005 A 
ENDROOT
BRANCH   9  11
ATOM     11  C   UNL A   1     -27.492 -12.358  33.198  0.00  0.00    +0.284 C 
ATOM     12  N   UNL A   1     -27.758 -12.387  34.459  0.00  0.00    -0.084 NA
ATOM     13  O   UNL A   1     -26.400 -12.885  32.795  0.00  0.00    -0.267 OA
ENDBRANCH   9  11
BRANCH   2  14
ATOM     14  C   UNL A   1     -31.884  -9.544  27.219  0.00  0.00    +0.388 C 
ATOM     15  O   UNL A   1     -31.612  -8.308  26.791  0.00  0.00    -0.241 OA
ATOM     16  O   UNL A   1     -32.712 -10.215  26.673  0.00  0.00    -0.241 OA
ENDBRANCH   2  14
TORSDOF 2
ENDMDL
ENDMDL
