MODEL 1556
MODEL 1
REMARK VINA RESULT:    -5.976      0.000      0.000
REMARK INTER + INTRA:          -6.416
REMARK INTER:                  -6.325
REMARK INTRA:                  -0.091
REMARK UNBOUND:                -0.091
REMARK  Name = No_1556-gen_results/8p0m/2024-11-27-11-27-31/
REMARK  1 active torsions:
REMARK  status: ('A' for Active; 'I' for Inactive)
REMARK    1  A    between atoms: C_10  and  C_11
REMARK                            x       y       z     vdW  Elec       q    Type
REMARK                         _______ _______ _______ _____ _____    ______ ____
ROOT
ATOM      1  C   UNL A   1     -26.083  -4.675  29.646  0.00  0.00    +0.000 A 
ATOM      2  C   UNL A   1     -25.333  -5.231  29.158  0.00  0.00    +0.000 A 
ATOM      3  C   UNL A   1     -25.880  -3.286  29.801  0.00  0.00    +0.000 A 
ATOM      4  C   UNL A   1     -24.736  -2.660  29.346  0.00  0.00    +0.006 A 
ATOM      5  C   UNL A   1     -23.804  -3.464  28.710  0.00  0.00    +0.000 A 
ATOM      6  C   UNL A   1     -24.063  -4.808  28.549  0.00  0.00    +0.000 A 
ATOM      7  C   UNL A   1     -26.875  -2.375  30.455  0.00  0.00    +0.000 A 
ATOM      8  C   UNL A   1     -26.482  -1.053  30.724  0.00  0.00    +0.000 A 
ATOM      9  C   UNL A   1     -25.358  -0.480  30.165  0.00  0.00    +0.007 A 
ATOM     10  C   UNL A   1     -24.414  -1.301  29.551  0.00  0.00    +0.080 A 
ENDROOT
BRANCH  10  11
ATOM     11  C   UNL A   1     -23.164  -0.632  29.083  0.00  0.00    +0.388 C 
ATOM     12  O   UNL A   1     -22.115  -0.676  29.842  0.00  0.00    -0.241 OA
ATOM     13  O   UNL A   1     -23.210   0.042  27.992  0.00  0.00    -0.241 OA
ENDBRANCH  10  11
TORSDOF 1
ENDMDL
ENDMDL
