REMARK  Name = No_1556-gen_results/8p0m/2024-11-27-11-27-31/
REMARK  1 active torsions:
REMARK  status: ('A' for Active; 'I' for Inactive)
REMARK    1  A    between atoms: C_10  and  C_11
REMARK                            x       y       z     vdW  Elec       q    Type
REMARK                         _______ _______ _______ _____ _____    ______ ____
ROOT
ATOM      1  C   UNL A   1     -28.016  -0.814  28.878  0.00  0.00    +0.000 A 
ATOM      2  C   UNL A   1     -28.469  -0.785  29.829  0.00  0.00    +0.000 A 
ATOM      3  C   UNL A   1     -27.136   0.236  28.535  0.00  0.00    +0.000 A 
ATOM      4  C   UNL A   1     -26.875   1.282  29.398  0.00  0.00    +0.006 A 
ATOM      5  C   UNL A   1     -27.507   1.238  30.630  0.00  0.00    +0.000 A 
ATOM      6  C   UNL A   1     -28.329   0.174  30.935  0.00  0.00    +0.000 A 
ATOM      7  C   UNL A   1     -26.408   0.307  27.226  0.00  0.00    +0.000 A 
ATOM      8  C   UNL A   1     -25.713   1.490  26.921  0.00  0.00    +0.000 A 
ATOM      9  C   UNL A   1     -25.430   2.454  27.866  0.00  0.00    +0.007 A 
ATOM     10  C   UNL A   1     -26.091   2.416  29.092  0.00  0.00    +0.080 A 
ENDROOT
BRANCH  10  11
ATOM     11  C   UNL A   1     -25.833   3.559  30.016  0.00  0.00    +0.388 C 
ATOM     12  O   UNL A   1     -25.956   4.766  29.560  0.00  0.00    -0.241 OA
ATOM     13  O   UNL A   1     -25.405   3.298  31.197  0.00  0.00    -0.241 OA
ENDBRANCH  10  11
TORSDOF 1
