MODEL 155
MODEL 1
REMARK VINA RESULT:    -4.454      0.000      0.000
REMARK INTER + INTRA:          -4.454
REMARK INTER:                  -4.454
REMARK INTRA:                   0.000
REMARK UNBOUND:                 0.000
REMARK  Name = No_155-gen_results/8p0m/2024-11-27-11-27-31/
REMARK  0 active torsions:
REMARK  status: ('A' for Active; 'I' for Inactive)
REMARK                            x       y       z     vdW  Elec       q    Type
REMARK                         _______ _______ _______ _____ _____    ______ ____
ROOT
ATOM      1  C   UNL A   1      -9.204  -9.159  19.981  0.00  0.00    +0.011 A 
ATOM      2  C   UNL A   1      -8.210  -9.836  19.858  0.00  0.00    +0.058 A 
ATOM      3  C   UNL A   1      -8.069 -10.718  18.792  0.00  0.00    +0.011 A 
ATOM      4  C   UNL A   1      -9.124 -10.887  17.826  0.00  0.00    +0.001 A 
ATOM      5  C   UNL A   1     -10.248 -10.083  18.058  0.00  0.00    +0.000 A 
ATOM      6  C   UNL A   1     -10.338  -9.276  19.091  0.00  0.00    +0.001 A 
ATOM      7 CL   UNL A   1      -6.881  -9.799  20.937  0.00  0.00    -0.082 Cl
ENDROOT
TORSDOF 0
ENDMDL
ENDMDL
