REMARK  Name = No_156-gen_results/8p0m/2024-11-27-11-27-31/
REMARK  12 active torsions:
REMARK  status: ('A' for Active; 'I' for Inactive)
REMARK    1  A    between atoms: C_4  and  C_9
REMARK    2  A    between atoms: C_10  and  N_12
REMARK    3  A    between atoms: N_12  and  C_17
REMARK    4  A    between atoms: C_17  and  C_19
REMARK    5  A    between atoms: C_19  and  C_20
REMARK    6  A    between atoms: C_20  and  C_21
REMARK    7  A    between atoms: C_21  and  C_22
REMARK    8  A    between atoms: C_23  and  C_24
REMARK    9  A    between atoms: C_24  and  C_25
REMARK   10  A    between atoms: C_25  and  C_26
REMARK   11  A    between atoms: C_27  and  C_28
REMARK   12  A    between atoms: C_27  and  C_34
REMARK                            x       y       z     vdW  Elec       q    Type
REMARK                         _______ _______ _______ _____ _____    ______ ____
ROOT
ATOM      1  C   UNL A   1     -23.205   0.321  30.077  0.00  0.00    +0.072 C 
ENDROOT
BRANCH   1   2
ATOM      2  N   UNL A   1     -23.952   1.462  30.302  0.00  0.00    -0.272 NA
ATOM      3  C   UNL A   1     -24.290   1.758  31.770  0.00  0.00    +0.090 C 
BRANCH   2   5
ATOM      4  C   UNL A   1     -25.885   2.374  29.326  0.00  0.00    +0.060 C 
ATOM      5  C   UNL A   1     -24.572   2.220  29.390  0.00  0.00    +0.070 C 
ATOM      6  C   UNL A   1     -26.427   3.650  28.962  0.00  0.00    -0.021 C 
ATOM      7  C   UNL A   1     -25.764   4.454  28.038  0.00  0.00    -0.004 C 
ATOM      8  C   UNL A   1     -24.971   4.201  27.366  0.00  0.00    -0.005 C 
ATOM      9  C   UNL A   1     -23.710   3.342  27.424  0.00  0.00    -0.025 C 
ATOM     10  C   UNL A   1     -23.537   2.586  28.465  0.00  0.00    +0.043 C 
BRANCH   4  14
ATOM     11  C   UNL A   1     -28.016  -0.814  28.878  0.00  0.00    +0.022 A 
ATOM     12  C   UNL A   1     -28.469  -0.785  29.829  0.00  0.00    +0.059 A 
ATOM     13  C   UNL A   1     -27.087   0.290  28.638  0.00  0.00    +0.055 A 
ATOM     14  C   UNL A   1     -26.832   1.249  29.587  0.00  0.00    -0.006 A 
ATOM     15  C   UNL A   1     -28.391   0.080  31.006  0.00  0.00    +0.011 A 
ATOM     16  C   UNL A   1     -27.494   1.152  30.784  0.00  0.00    -0.002 A 
ATOM     17 CL   UNL A   1     -26.209   0.394  27.165  0.00  0.00    -0.083 Cl
ATOM     18 CL   UNL A   1     -29.605  -2.168  30.256  0.00  0.00    -0.082 Cl
ENDBRANCH   4  14
ENDBRANCH   2   5
ENDBRANCH   1   2
BRANCH   1  19
ATOM     19  C   UNL A   1     -23.603  -0.881  30.767  0.00  0.00    +0.018 C 
BRANCH  19  20
ATOM     20  C   UNL A   1     -24.723  -1.533  30.191  0.00  0.00    +0.006 C 
BRANCH  20  21
ATOM     21  C   UNL A   1     -24.312  -2.577  29.270  0.00  0.00    +0.026 C 
BRANCH  21  22
ATOM     22  C   UNL A   1     -25.196  -3.736  29.157  0.00  0.00    -0.031 C 
ATOM     23  C   UNL A   1     -26.466  -3.610  29.767  0.00  0.00    -0.030 C 
BRANCH  23  24
ATOM     24  C   UNL A   1     -27.343  -4.682  29.656  0.00  0.00    +0.030 C 
BRANCH  24  25
ATOM     25  C   UNL A   1     -28.474  -4.597  30.379  0.00  0.00    +0.031 C 
BRANCH  25  26
ATOM     26  C   UNL A   1     -29.392  -5.837  30.476  0.00  0.00    -0.026 C 
ATOM     27  C   UNL A   1     -30.709  -5.789  30.818  0.00  0.00    -0.004 C 
BRANCH  27  28
ATOM     28  C   UNL A   1     -31.494  -6.826  30.752  0.00  0.00    -0.000 A 
ATOM     29  C   UNL A   1     -30.939  -8.001  30.272  0.00  0.00    -0.000 A 
ATOM     30  C   UNL A   1     -31.790  -9.166  30.193  0.00  0.00    -0.000 A 
ATOM     31  C   UNL A   1     -33.076  -9.060  30.437  0.00  0.00    -0.000 A 
ATOM     32  C   UNL A   1     -33.658  -7.907  30.840  0.00  0.00    -0.000 A 
ATOM     33  C   UNL A   1     -32.895  -6.780  31.002  0.00  0.00    -0.000 A 
ENDBRANCH  27  28
BRANCH  27  34
ATOM     34  C   UNL A   1     -31.216  -4.447  31.191  0.00  0.00    -0.000 C 
ATOM     35  C   UNL A   1     -31.797  -4.386  32.435  0.00  0.00    -0.000 C 
ENDBRANCH  27  34
ENDBRANCH  25  26
ENDBRANCH  24  25
ENDBRANCH  23  24
ENDBRANCH  21  22
ENDBRANCH  20  21
ENDBRANCH  19  20
ENDBRANCH   1  19
TORSDOF 12
