REMARK  Name = outputs/IAG933/test6/raw/output_1560_IAG933_linker_design_.xyz
REMARK  10 active torsions:
REMARK  status: ('A' for Active; 'I' for Inactive)
REMARK    1  A    between atoms: C_1  and  C_2
REMARK    2  A    between atoms: C_1  and  C_8
REMARK    3  A    between atoms: C_1  and  C_41
REMARK    4  A    between atoms: C_13  and  C_44
REMARK    5  A    between atoms: C_14  and  C_15
REMARK    6  A    between atoms: C_21  and  O_22
REMARK    7  A    between atoms: O_22  and  C_23
REMARK    8  A    between atoms: C_23  and  C_24
REMARK    9  A    between atoms: C_37  and  C_41
REMARK   10  A    between atoms: C_38  and  C_41
REMARK                            x       y       z     vdW  Elec       q    Type
REMARK                         _______ _______ _______ _____ _____    ______ ____
ROOT
ATOM      1  C   UNL A   1     -25.356  -0.093  29.034  0.00  0.00    +0.064 C 
ENDROOT
BRANCH   1   8
ATOM      2  C   UNL A   1     -29.114  -0.179  29.188  0.00  0.00    +0.077 C 
ATOM      3  C   UNL A   1     -28.252   3.520  29.734  0.00  0.00    +0.021 C 
ATOM      4  C   UNL A   1     -29.468   3.789  30.741  0.00  0.00    +0.003 C 
ATOM      5  C   UNL A   1     -30.635   2.918  30.438  0.00  0.00    +0.017 C 
ATOM      6  N   UNL A   1     -29.089   1.133  29.712  0.00  0.00    -0.270 NA
ATOM      7  C   UNL A   1     -27.754  -0.699  28.767  0.00  0.00    +0.039 C 
ATOM      8  C   UNL A   1     -26.692   0.297  28.978  0.00  0.00    -0.040 C 
ATOM      9  C   UNL A   1     -28.247   2.099  29.046  0.00  0.00    +0.079 C 
ATOM     10  C   UNL A   1     -26.909   1.571  29.150  0.00  0.00    -0.019 C 
ATOM     11  C   UNL A   1     -30.484   1.590  29.759  0.00  0.00    +0.072 C 
ENDBRANCH   1   8
BRANCH   1  15
ATOM     12  C   UNL A   1     -22.223   1.908  26.635  0.00  0.00    +0.050 C 
ATOM     13  F   UNL A   1     -20.897   1.304  28.354  0.00  0.00    -0.183 F 
ATOM     14  C   UNL A   1     -23.518   1.844  26.081  0.00  0.00    +0.005 C 
ATOM     15  C   UNL A   1     -24.297   0.538  28.104  0.00  0.00    +0.065 C 
ATOM     16  N   UNL A   1     -23.011   0.627  28.538  0.00  0.00    -0.222 NA
ATOM     17  C   UNL A   1     -22.062   1.268  27.856  0.00  0.00    +0.222 C 
ATOM     18  C   UNL A   1     -24.488   1.254  26.894  0.00  0.00    +0.017 C 
BRANCH  18  19
ATOM     19  C   UNL A   1     -25.688   1.614  26.461  0.00  0.00    +0.039 C 
ATOM     20  C   UNL A   1     -26.250   2.920  26.395  0.00  0.00    +0.077 C 
ATOM     21  C   UNL A   1     -27.438   3.091  25.645  0.00  0.00    +0.107 C 
ATOM     22  N   UNL A   1     -28.075   2.089  25.003  0.00  0.00    -0.208 NA
ATOM     23  C   UNL A   1     -27.543   0.849  25.079  0.00  0.00    +0.253 C 
ATOM     24  C   UNL A   1     -26.354   0.576  25.777  0.00  0.00    +0.193 C 
ATOM     25  F   UNL A   1     -25.860  -0.681  25.795  0.00  0.00    -0.199 F 
BRANCH  20  26
ATOM     26  C   UNL A   1     -25.642   4.093  27.123  0.00  0.00    +0.266 C 
ATOM     27  N   UNL A   1     -25.614   5.252  26.449  0.00  0.00    -0.200 NA
ATOM     28  C   UNL A   1     -25.026   6.479  26.963  0.00  0.00    +0.139 C 
ATOM     29  O   UNL A   1     -25.143   3.966  28.243  0.00  0.00    -0.268 OA
ENDBRANCH  20  26
BRANCH  23  30
ATOM     30  O   UNL A   1     -28.193  -0.208  24.477  0.00  0.00    -0.456 OA
BRANCH  30  31
ATOM     31  C   UNL A   1     -29.460   0.005  23.866  0.00  0.00    +0.243 C 
BRANCH  31  32
ATOM     32  C   UNL A   1     -30.065  -1.377  23.573  0.00  0.00    +0.229 C 
ATOM     33  O   UNL A   1     -30.729  -1.878  24.721  0.00  0.00    -0.216 OA
ENDBRANCH  31  32
ENDBRANCH  30  31
ENDBRANCH  23  30
ENDBRANCH  18  19
ENDBRANCH   1  15
BRANCH   1  34
ATOM     34  C   UNL A   1     -24.855  -1.012  30.143  0.00  0.00    +0.048 C 
BRANCH  34  35
ATOM     35  C   UNL A   1     -24.973  -2.505  29.788  0.00  0.00    -0.021 C 
ATOM     36  C   UNL A   1     -23.906  -3.173  29.146  0.00  0.00    -0.004 C 
ATOM     37  C   UNL A   1     -23.989  -4.549  28.853  0.00  0.00    -0.000 C 
ATOM     38  C   UNL A   1     -25.137  -5.280  29.205  0.00  0.00    -0.000 C 
ATOM     39  C   UNL A   1     -26.232  -4.611  29.784  0.00  0.00    -0.000 C 
ATOM     40  C   UNL A   1     -26.155  -3.232  30.065  0.00  0.00    -0.004 C 
ENDBRANCH  34  35
BRANCH  34  41
ATOM     41  C   UNL A   1     -25.387  -0.679  31.571  0.00  0.00    +0.077 C 
ATOM     42  C   UNL A   1     -25.189   0.773  32.028  0.00  0.00    +0.019 C 
ATOM     43  C   UNL A   1     -25.336   0.684  33.544  0.00  0.00    +0.020 C 
ATOM     44  C   UNL A   1     -24.829  -0.715  33.905  0.00  0.00    +0.089 C 
ATOM     45  N   UNL A   1     -24.758  -1.481  32.646  0.00  0.00    -0.219 NA
ENDBRANCH  34  41
ENDBRANCH   1  34
TORSDOF 10
