MODEL 1560
MODEL 1
REMARK VINA RESULT:    -6.675      0.000      0.000
REMARK INTER + INTRA:          -8.106
REMARK INTER:                  -7.456
REMARK INTRA:                  -0.650
REMARK UNBOUND:                -0.650
REMARK  Name = No_1560-gen_results/8p0m/2024-11-27-11-27-31/
REMARK  2 active torsions:
REMARK  status: ('A' for Active; 'I' for Inactive)
REMARK    1  A    between atoms: C_3  and  C_4
REMARK    2  A    between atoms: C_4  and  C_5
REMARK                            x       y       z     vdW  Elec       q    Type
REMARK                         _______ _______ _______ _____ _____    ______ ____
ROOT
ATOM      1  C   UNL A   1     -24.090  -0.987  29.497  0.00  0.00    +0.045 C 
ATOM      2  C   UNL A   1     -22.920  -0.716  30.381  0.00  0.00    +0.009 C 
ENDROOT
BRANCH   1   5
ATOM      3  C   UNL A   1     -26.363  -3.800  29.839  0.00  0.00    -0.000 A 
ATOM      4  C   UNL A   1     -25.905  -2.681  29.888  0.00  0.00    -0.004 A 
ATOM      5  C   UNL A   1     -24.665  -2.350  29.447  0.00  0.00    -0.018 A 
ATOM      6  C   UNL A   1     -25.572  -4.883  29.227  0.00  0.00    -0.000 A 
ATOM      7  C   UNL A   1     -24.338  -4.650  28.795  0.00  0.00    -0.000 A 
ATOM      8  C   UNL A   1     -23.833  -3.359  28.870  0.00  0.00    -0.004 A 
ENDBRANCH   1   5
BRANCH   1   9
ATOM      9  C   UNL A   1     -23.576  -0.454  28.269  0.00  0.00    -0.018 A 
ATOM     10  C   UNL A   1     -24.434   0.015  27.263  0.00  0.00    -0.004 A 
ATOM     11  C   UNL A   1     -24.358   1.027  26.653  0.00  0.00    -0.000 A 
ATOM     12  C   UNL A   1     -23.414   2.043  26.992  0.00  0.00    -0.000 A 
ATOM     13  C   UNL A   1     -22.317   1.646  27.844  0.00  0.00    -0.000 A 
ATOM     14  C   UNL A   1     -22.338   0.392  28.419  0.00  0.00    -0.004 A 
ENDBRANCH   1   9
TORSDOF 2
ENDMDL
ENDMDL
