REMARK  Name = No_1561-gen_results/8p0m/2024-11-27-11-27-31/
REMARK  4 active torsions:
REMARK  status: ('A' for Active; 'I' for Inactive)
REMARK    1  A    between atoms: N_1  and  C_3
REMARK    2  A    between atoms: C_3  and  C_4
REMARK    3  A    between atoms: C_4  and  C_5
REMARK    4  A    between atoms: C_6  and  C_7
REMARK                            x       y       z     vdW  Elec       q    Type
REMARK                         _______ _______ _______ _____ _____    ______ ____
ROOT
ATOM      1  C   UNL A   1     -25.594   0.145  27.482  0.00  0.00    -0.025 C 
ATOM      2  C   UNL A   1     -24.375   0.789  27.435  0.00  0.00    -0.005 C 
ENDROOT
BRANCH   2   3
ATOM      3  C   UNL A   1     -23.231   0.337  28.131  0.00  0.00    -0.005 C 
ATOM      4  C   UNL A   1     -21.971   0.999  28.093  0.00  0.00    -0.026 C 
ATOM      5  C   UNL A   1     -21.932   2.086  27.168  0.00  0.00    +0.031 C 
ENDBRANCH   2   3
BRANCH   1   6
ATOM      6  C   UNL A   1     -25.651  -1.103  28.165  0.00  0.00    +0.045 C 
BRANCH   6   7
ATOM      7  C   UNL A   1     -26.695  -1.322  29.024  0.00  0.00    +0.093 C 
BRANCH   7   8
ATOM      8  N   UNL A   1     -28.054  -1.050  28.725  0.00  0.00    -0.216 NA
ATOM      9  C   UNL A   1     -28.654  -0.567  29.508  0.00  0.00    +0.107 C 
ENDBRANCH   7   8
ENDBRANCH   6   7
ENDBRANCH   1   6
TORSDOF 4
