MODEL 1561
MODEL 1
REMARK VINA RESULT:    -3.927      0.000      0.000
REMARK INTER + INTRA:          -5.179
REMARK INTER:                  -4.846
REMARK INTRA:                  -0.333
REMARK UNBOUND:                -0.333
REMARK  Name = No_1561-gen_results/8p0m/2024-11-27-11-27-31/
REMARK  4 active torsions:
REMARK  status: ('A' for Active; 'I' for Inactive)
REMARK    1  A    between atoms: N_1  and  C_3
REMARK    2  A    between atoms: C_3  and  C_4
REMARK    3  A    between atoms: C_4  and  C_5
REMARK    4  A    between atoms: C_6  and  C_7
REMARK                            x       y       z     vdW  Elec       q    Type
REMARK                         _______ _______ _______ _____ _____    ______ ____
ROOT
ATOM      1  C   UNL A   1     -25.491  -1.235  28.928  0.00  0.00    -0.025 C 
ATOM      2  C   UNL A   1     -25.111  -2.488  29.365  0.00  0.00    -0.005 C 
ENDROOT
BRANCH   2   3
ATOM      3  C   UNL A   1     -24.061  -3.229  28.778  0.00  0.00    -0.005 C 
ATOM      4  C   UNL A   1     -24.095  -4.642  28.601  0.00  0.00    -0.026 C 
ATOM      5  C   UNL A   1     -25.231  -5.259  29.205  0.00  0.00    +0.031 C 
ENDBRANCH   2   3
BRANCH   1   6
ATOM      6  C   UNL A   1     -24.693  -0.622  27.922  0.00  0.00    +0.045 C 
BRANCH   6   7
ATOM      7  C   UNL A   1     -23.912   0.446  28.277  0.00  0.00    +0.093 C 
BRANCH   7   8
ATOM      8  N   UNL A   1     -22.495   0.459  28.232  0.00  0.00    -0.216 NA
ATOM      9  C   UNL A   1     -21.962  -0.063  29.038  0.00  0.00    +0.107 C 
ENDBRANCH   7   8
ENDBRANCH   6   7
ENDBRANCH   1   6
TORSDOF 4
ENDMDL
ENDMDL
