REMARK  Name = outputs/IAG933/test6/raw/output_1562_IAG933_linker_design_.xyz
REMARK  12 active torsions:
REMARK  status: ('A' for Active; 'I' for Inactive)
REMARK    1  A    between atoms: C_1  and  C_2
REMARK    2  A    between atoms: C_1  and  C_8
REMARK    3  A    between atoms: C_1  and  C_34
REMARK    4  A    between atoms: C_13  and  C_29
REMARK    5  A    between atoms: C_14  and  C_15
REMARK    6  A    between atoms: C_21  and  O_22
REMARK    7  A    between atoms: O_22  and  C_23
REMARK    8  A    between atoms: C_23  and  C_24
REMARK    9  A    between atoms: N_31  and  C_40
REMARK   10  A    between atoms: C_33  and  C_34
REMARK   11  A    between atoms: C_34  and  O_39
REMARK   12  A    between atoms: O_39  and  C_40
REMARK                            x       y       z     vdW  Elec       q    Type
REMARK                         _______ _______ _______ _____ _____    ______ ____
ROOT
ATOM      1  C   UNL A   1     -24.372   1.304  26.816  0.00  0.00    +0.022 C 
ATOM      2  C   UNL A   1     -22.253   2.091  25.963  0.00  0.00    +0.058 C 
ATOM      3  C   UNL A   1     -23.498   1.667  25.641  0.00  0.00    +0.006 C 
ATOM      4  C   UNL A   1     -24.030   0.851  28.070  0.00  0.00    +0.142 C 
ATOM      5  C   UNL A   1     -22.829   0.800  28.697  0.00  0.00    +0.389 C 
ATOM      6  C   UNL A   1     -21.453   1.681  26.995  0.00  0.00    +0.263 C 
ATOM      7  N   UNL A   1     -21.663   1.262  28.210  0.00  0.00    -0.062 NA
ATOM      8  N   UNL A   1     -22.506   0.150  29.832  0.00  0.00    +0.211 NA
ENDROOT
BRANCH   1   9
ATOM      9  C   UNL A   1     -25.688   1.614  26.461  0.00  0.00    +0.071 C 
ATOM     10  C   UNL A   1     -26.250   2.920  26.395  0.00  0.00    +0.055 C 
ATOM     11  C   UNL A   1     -27.438   3.091  25.645  0.00  0.00    +0.102 C 
ATOM     12  N   UNL A   1     -28.075   2.089  25.003  0.00  0.00    -0.212 NA
ATOM     13  C   UNL A   1     -27.543   0.849  25.079  0.00  0.00    +0.234 C 
ATOM     14  C   UNL A   1     -26.354   0.576  25.777  0.00  0.00    +0.240 C 
ATOM     15  F   UNL A   1     -25.860  -0.681  25.795  0.00  0.00    -0.227 F 
BRANCH  10  16
ATOM     16  C   UNL A   1     -25.642   4.093  27.123  0.00  0.00    +0.262 C 
ATOM     17  N   UNL A   1     -25.614   5.252  26.449  0.00  0.00    -0.200 NA
ATOM     18  C   UNL A   1     -25.026   6.479  26.963  0.00  0.00    +0.139 C 
ATOM     19  O   UNL A   1     -25.143   3.966  28.243  0.00  0.00    -0.269 OA
ENDBRANCH  10  16
BRANCH  13  20
ATOM     20  O   UNL A   1     -28.193  -0.208  24.477  0.00  0.00    -0.459 OA
BRANCH  20  21
ATOM     21  C   UNL A   1     -29.460   0.005  23.866  0.00  0.00    +0.242 C 
BRANCH  21  22
ATOM     22  C   UNL A   1     -30.065  -1.377  23.573  0.00  0.00    +0.229 C 
ATOM     23  O   UNL A   1     -30.729  -1.878  24.721  0.00  0.00    -0.216 OA
ENDBRANCH  21  22
ENDBRANCH  20  21
ENDBRANCH  13  20
ENDBRANCH   1   9
BRANCH   4  24
ATOM     24  C   UNL A   1     -25.239   0.053  29.018  0.00  0.00    +0.134 C 
BRANCH  24  25
ATOM     25  C   UNL A   1     -24.855  -1.012  30.143  0.00  0.00    +0.066 C 
BRANCH  25  26
ATOM     26  C   UNL A   1     -24.973  -2.505  29.788  0.00  0.00    -0.019 C 
ATOM     27  C   UNL A   1     -23.906  -3.173  29.146  0.00  0.00    -0.004 C 
ATOM     28  C   UNL A   1     -23.989  -4.549  28.853  0.00  0.00    -0.000 C 
ATOM     29  C   UNL A   1     -25.137  -5.280  29.205  0.00  0.00    -0.000 C 
ATOM     30  C   UNL A   1     -26.232  -4.611  29.784  0.00  0.00    -0.000 C 
ATOM     31  C   UNL A   1     -26.155  -3.232  30.065  0.00  0.00    -0.004 C 
ENDBRANCH  25  26
BRANCH  25  32
ATOM     32  C   UNL A   1     -25.387  -0.679  31.571  0.00  0.00    +0.079 C 
ATOM     33  C   UNL A   1     -25.189   0.773  32.028  0.00  0.00    +0.019 C 
ATOM     34  C   UNL A   1     -25.336   0.684  33.544  0.00  0.00    +0.020 C 
ATOM     35  C   UNL A   1     -24.829  -0.715  33.905  0.00  0.00    +0.089 C 
ATOM     36  N   UNL A   1     -24.758  -1.481  32.646  0.00  0.00    -0.219 NA
ENDBRANCH  25  32
ENDBRANCH  24  25
BRANCH  24  37
ATOM     37  O   UNL A   1     -26.762   0.096  28.911  0.00  0.00    -0.337 OA
BRANCH  37  38
ATOM     38  C   UNL A   1     -27.871  -0.828  29.322  0.00  0.00    +0.245 C 
BRANCH  38  40
ATOM     39  C   UNL A   1     -31.594   0.941  28.420  0.00  0.00    +0.036 C 
ATOM     40  N   UNL A   1     -29.227  -0.348  29.011  0.00  0.00    -0.137 NA
ATOM     41  C   UNL A   1     -29.469   1.004  29.767  0.00  0.00    +0.104 C 
ATOM     42  O   UNL A   1     -29.811  -0.805  27.802  0.00  0.00    -0.280 OA
ATOM     43  C   UNL A   1     -30.413   1.842  28.856  0.00  0.00    +0.023 C 
ATOM     44  C   UNL A   1     -31.129  -0.277  27.593  0.00  0.00    +0.167 C 
ENDBRANCH  38  40
ENDBRANCH  37  38
ENDBRANCH  24  37
ENDBRANCH   4  24
TORSDOF 12
