MODEL 1562
MODEL 1
REMARK VINA RESULT:    -6.021      0.000      0.000
REMARK INTER + INTRA:          -7.195
REMARK INTER:                  -7.077
REMARK INTRA:                  -0.117
REMARK UNBOUND:                -0.117
REMARK  Name = No_1562-gen_results/8p0m/2024-11-27-11-27-31/
REMARK  3 active torsions:
REMARK  status: ('A' for Active; 'I' for Inactive)
REMARK    1  A    between atoms: C_4  and  C_13
REMARK    2  A    between atoms: C_5  and  C_10
REMARK    3  A    between atoms: N_11  and  C_14
REMARK                            x       y       z     vdW  Elec       q    Type
REMARK                         _______ _______ _______ _____ _____    ______ ____
ROOT
ATOM      1  C   UNL A   1     -29.696 -11.728  28.801  0.00  0.00    +0.271 C 
ATOM      2  C   UNL A   1     -29.369 -11.381  29.913  0.00  0.00    +0.012 C 
ATOM      3  C   UNL A   1     -28.365 -11.963  30.666  0.00  0.00    +0.035 C 
ATOM      4  C   UNL A   1     -28.008 -11.624  32.022  0.00  0.00    +0.078 C 
ATOM      5  C   UNL A   1     -28.731 -10.596  32.675  0.00  0.00    +0.086 C 
ATOM      6  C   UNL A   1     -29.773  -9.954  31.956  0.00  0.00    +0.014 C 
ATOM      7  C   UNL A   1     -30.053 -10.366  30.690  0.00  0.00    +0.027 C 
ATOM      8  F   UNL A   1     -28.947 -12.523  28.320  0.00  0.00    -0.173 F 
ATOM      9  F   UNL A   1     -29.771 -10.601  27.939  0.00  0.00    -0.173 F 
ENDROOT
BRANCH   5  10
ATOM     10  C   UNL A   1     -28.403 -10.172  34.033  0.00  0.00    +0.244 C 
ATOM     11  N   UNL A   1     -29.182 -10.494  35.049  0.00  0.00    -0.171 NA
ATOM     12  O   UNL A   1     -27.807  -8.964  34.200  0.00  0.00    -0.273 OA
BRANCH  11  13
ATOM     13  C   UNL A   1     -30.097 -11.640  35.031  0.00  0.00    +0.298 C 
ATOM     14  O   UNL A   1     -29.613 -12.735  35.411  0.00  0.00    -0.194 OA
ENDBRANCH  11  13
ENDBRANCH   5  10
BRANCH   4  15
ATOM     15  C   UNL A   1     -26.989 -12.336  32.756  0.00  0.00    +0.208 C 
ATOM     16  O   UNL A   1     -26.821 -12.722  33.765  0.00  0.00    -0.288 OA
ENDBRANCH   4  15
TORSDOF 3
ENDMDL
ENDMDL
