MODEL 1563
MODEL 1
REMARK VINA RESULT:    -6.944      0.000      0.000
REMARK INTER + INTRA:         -12.238
REMARK INTER:                  -9.785
REMARK INTRA:                  -2.453
REMARK UNBOUND:                -2.453
REMARK  Name = No_1563-gen_results/8p0m/2024-11-27-11-27-31/
REMARK  7 active torsions:
REMARK  status: ('A' for Active; 'I' for Inactive)
REMARK    1  A    between atoms: C_4  and  C_9
REMARK    2  A    between atoms: C_5  and  O_19
REMARK    3  A    between atoms: C_6  and  O_8
REMARK    4  A    between atoms: O_8  and  C_26
REMARK    5  A    between atoms: C_10  and  C_11
REMARK    6  A    between atoms: O_19  and  C_30
REMARK    7  A    between atoms: C_26  and  C_27
REMARK                            x       y       z     vdW  Elec       q    Type
REMARK                         _______ _______ _______ _____ _____    ______ ____
ROOT
ATOM      1  C   UNL A   1     -21.429   0.370  28.174  0.00  0.00    +0.033 A 
ATOM      2  C   UNL A   1     -22.022  -0.073  28.925  0.00  0.00    +0.042 A 
ATOM      3  C   UNL A   1     -21.965   1.550  27.558  0.00  0.00    +0.143 A 
ATOM      4  C   UNL A   1     -23.206   1.990  27.782  0.00  0.00    +0.065 A 
ATOM      5  C   UNL A   1     -23.933   1.309  28.718  0.00  0.00    +0.181 A 
ATOM      6  C   UNL A   1     -23.374   0.227  29.345  0.00  0.00    +0.174 A 
ATOM      7  F   UNL A   1     -21.160   2.157  26.626  0.00  0.00    -0.204 F 
ENDROOT
BRANCH   4   8
ATOM      8  C   UNL A   1     -23.711   3.146  27.075  0.00  0.00    +0.005 C 
ATOM      9  C   UNL A   1     -24.621   3.114  26.100  0.00  0.00    +0.003 C 
BRANCH   9  10
ATOM     10  C   UNL A   1     -25.196   1.887  25.779  0.00  0.00    +0.038 A 
ATOM     11  C   UNL A   1     -24.443   0.973  24.975  0.00  0.00    +0.003 A 
ATOM     12  C   UNL A   1     -24.948  -0.247  24.618  0.00  0.00    +0.003 A 
ATOM     13  C   UNL A   1     -26.181  -0.702  25.187  0.00  0.00    +0.041 A 
ATOM     14  C   UNL A   1     -26.903   0.247  25.929  0.00  0.00    +0.180 A 
ATOM     15  C   UNL A   1     -26.455   1.463  26.213  0.00  0.00    +0.180 A 
ATOM     16  O   UNL A   1     -27.426   2.207  26.270  0.00  0.00    -0.447 OA
ATOM     17  C   UNL A   1     -28.512   1.899  25.169  0.00  0.00    +0.180 A 
ATOM     18  C   UNL A   1     -29.074   3.112  24.726  0.00  0.00    +0.041 A 
ATOM     19  C   UNL A   1     -30.059   3.087  23.723  0.00  0.00    +0.003 A 
ATOM     20  C   UNL A   1     -30.457   1.836  23.294  0.00  0.00    +0.003 A 
ATOM     21  C   UNL A   1     -29.877   0.669  23.774  0.00  0.00    +0.041 A 
ATOM     22  C   UNL A   1     -28.943   0.815  24.743  0.00  0.00    +0.180 A 
ATOM     23  O   UNL A   1     -28.256   0.190  25.292  0.00  0.00    -0.447 OA
ENDBRANCH   9  10
ENDBRANCH   4   8
BRANCH   6  24
ATOM     24  O   UNL A   1     -24.006  -0.514  30.318  0.00  0.00    -0.461 OA
BRANCH  24  25
ATOM     25  C   UNL A   1     -23.877  -1.744  30.624  0.00  0.00    +0.319 C 
BRANCH  25  26
ATOM     26  C   UNL A   1     -24.466  -2.563  29.656  0.00  0.00    +0.408 C 
ATOM     27  O   UNL A   1     -23.809  -3.278  29.087  0.00  0.00    -0.241 OA
ATOM     28  O   UNL A   1     -25.724  -2.458  29.460  0.00  0.00    -0.241 OA
ENDBRANCH  25  26
ENDBRANCH  24  25
ENDBRANCH   6  24
BRANCH   5  29
ATOM     29  O   UNL A   1     -24.573   2.156  29.690  0.00  0.00    -0.450 OA
BRANCH  29  30
ATOM     30  C   UNL A   1     -25.817   2.492  29.751  0.00  0.00    +0.145 A 
ATOM     31  C   UNL A   1     -26.132   3.796  29.570  0.00  0.00    +0.037 A 
ATOM     32  C   UNL A   1     -27.418   4.064  29.426  0.00  0.00    +0.003 A 
ATOM     33  C   UNL A   1     -28.538   3.149  29.615  0.00  0.00    +0.000 A 
ATOM     34  C   UNL A   1     -28.136   1.814  29.773  0.00  0.00    +0.003 A 
ATOM     35  C   UNL A   1     -26.805   1.510  29.836  0.00  0.00    +0.037 A 
ENDBRANCH  29  30
ENDBRANCH   5  29
TORSDOF 7
ENDMDL
ENDMDL
