MODEL 1564
MODEL 1
REMARK VINA RESULT:    -6.606      0.000      0.000
REMARK INTER + INTRA:          -9.355
REMARK INTER:                  -8.538
REMARK INTRA:                  -0.818
REMARK UNBOUND:                -0.818
REMARK  Name = No_1564-gen_results/8p0m/2024-11-27-11-27-31/
REMARK  5 active torsions:
REMARK  status: ('A' for Active; 'I' for Inactive)
REMARK    1  A    between atoms: C_2  and  C_7
REMARK    2  A    between atoms: C_4  and  C_14
REMARK    3  A    between atoms: C_6  and  C_11
REMARK    4  A    between atoms: C_14  and  C_15
REMARK    5  A    between atoms: C_16  and  C_17
REMARK                            x       y       z     vdW  Elec       q    Type
REMARK                         _______ _______ _______ _____ _____    ______ ____
ROOT
ATOM      1  C   UNL A   1     -13.975   2.705  35.112  0.00  0.00    +0.010 A 
ATOM      2  C   UNL A   1     -14.006   2.863  36.311  0.00  0.00    +0.071 A 
ATOM      3  C   UNL A   1     -13.025   2.319  37.132  0.00  0.00    -0.000 A 
ATOM      4  C   UNL A   1     -11.965   1.511  36.586  0.00  0.00    -0.018 A 
ATOM      5  C   UNL A   1     -12.019   1.360  35.194  0.00  0.00    +0.003 A 
ATOM      6  C   UNL A   1     -12.979   1.882  34.464  0.00  0.00    +0.079 A 
ENDROOT
BRANCH   2   7
ATOM      7  C   UNL A   1     -15.038   3.642  37.048  0.00  0.00    +0.419 C 
ATOM      8  F   UNL A   1     -14.843   4.721  37.166  0.00  0.00    -0.166 F 
ATOM      9  F   UNL A   1     -16.219   3.468  36.288  0.00  0.00    -0.166 F 
ATOM     10  F   UNL A   1     -15.389   3.037  38.249  0.00  0.00    -0.166 F 
ENDBRANCH   2   7
BRANCH   6  11
ATOM     11  C   UNL A   1     -12.958   1.574  33.022  0.00  0.00    +0.388 C 
ATOM     12  O   UNL A   1     -12.099   1.051  32.580  0.00  0.00    -0.241 OA
ATOM     13  O   UNL A   1     -13.819   2.232  32.272  0.00  0.00    -0.241 OA
ENDBRANCH   6  11
BRANCH   4  14
ATOM     14  C   UNL A   1     -10.963   0.963  37.474  0.00  0.00    +0.052 C 
BRANCH  14  15
ATOM     15  C   UNL A   1     -10.468  -0.352  37.067  0.00  0.00    -0.021 C 
ATOM     16  C   UNL A   1     -10.499  -1.333  37.845  0.00  0.00    -0.004 C 
BRANCH  16  17
ATOM     17  C   UNL A   1     -11.602  -2.191  37.763  0.00  0.00    -0.000 C 
ATOM     18  C   UNL A   1     -12.313  -2.622  38.990  0.00  0.00    -0.000 C 
ENDBRANCH  16  17
ENDBRANCH  14  15
ENDBRANCH   4  14
TORSDOF 5
ENDMDL
ENDMDL
