REMARK  Name = No_1565-gen_results/8p0m/2024-11-27-11-27-31/
REMARK  1 active torsions:
REMARK  status: ('A' for Active; 'I' for Inactive)
REMARK    1  A    between atoms: C_4  and  C_8
REMARK                            x       y       z     vdW  Elec       q    Type
REMARK                         _______ _______ _______ _____ _____    ______ ____
ROOT
ATOM      1  C   UNL A   1     -28.016  -0.814  28.878  0.00  0.00    +0.004 C 
ATOM      2  C   UNL A   1     -27.064  -0.119  28.608  0.00  0.00    +0.022 C 
ATOM      3  C   UNL A   1     -25.792  -0.430  29.076  0.00  0.00    -0.043 C 
ATOM      4  C   UNL A   1     -24.632   0.310  28.729  0.00  0.00    +0.014 C 
ATOM      5  C   UNL A   1     -27.895  -1.861  29.895  0.00  0.00    +0.001 C 
ATOM      6  C   UNL A   1     -26.671  -2.298  30.337  0.00  0.00    +0.004 C 
ATOM      7  C   UNL A   1     -25.551  -1.563  29.941  0.00  0.00    +0.022 C 
ENDROOT
BRANCH   4   8
ATOM      8  C   UNL A   1     -24.065   1.292  29.422  0.00  0.00    +0.121 C 
ATOM      9  N   UNL A   1     -23.187   1.929  29.162  0.00  0.00    -0.146 NA
ENDBRANCH   4   8
TORSDOF 1
