MODEL 1565
MODEL 1
REMARK VINA RESULT:    -5.082      0.000      0.000
REMARK INTER + INTRA:          -5.427
REMARK INTER:                  -5.379
REMARK INTRA:                  -0.048
REMARK UNBOUND:                -0.048
REMARK  Name = No_1565-gen_results/8p0m/2024-11-27-11-27-31/
REMARK  1 active torsions:
REMARK  status: ('A' for Active; 'I' for Inactive)
REMARK    1  A    between atoms: C_4  and  C_8
REMARK                            x       y       z     vdW  Elec       q    Type
REMARK                         _______ _______ _______ _____ _____    ______ ____
ROOT
ATOM      1  C   UNL A   1     -26.531  -3.535  29.897  0.00  0.00    +0.004 C 
ATOM      2  C   UNL A   1     -25.821  -2.578  29.690  0.00  0.00    +0.022 C 
ATOM      3  C   UNL A   1     -24.598  -2.717  29.043  0.00  0.00    -0.043 C 
ATOM      4  C   UNL A   1     -23.763  -1.619  28.712  0.00  0.00    +0.014 C 
ATOM      5  C   UNL A   1     -26.016  -4.889  29.686  0.00  0.00    +0.001 C 
ATOM      6  C   UNL A   1     -24.868  -5.120  28.969  0.00  0.00    +0.004 C 
ATOM      7  C   UNL A   1     -24.094  -4.008  28.630  0.00  0.00    +0.022 C 
ENDROOT
BRANCH   4   8
ATOM      8  C   UNL A   1     -22.734  -1.149  29.411  0.00  0.00    +0.121 C 
ATOM      9  N   UNL A   1     -21.669  -1.019  29.106  0.00  0.00    -0.146 NA
ENDBRANCH   4   8
TORSDOF 1
ENDMDL
ENDMDL
