MODEL 1566
MODEL 1
REMARK VINA RESULT:    -5.380      0.000      0.000
REMARK INTER + INTRA:          -7.367
REMARK INTER:                  -6.638
REMARK INTRA:                  -0.729
REMARK UNBOUND:                -0.729
REMARK  Name = No_1566-gen_results/8p0m/2024-11-27-11-27-31/
REMARK  4 active torsions:
REMARK  status: ('A' for Active; 'I' for Inactive)
REMARK    1  A    between atoms: C_3  and  C_7
REMARK    2  A    between atoms: C_7  and  C_8
REMARK    3  A    between atoms: C_9  and  C_10
REMARK    4  A    between atoms: C_11  and  C_12
REMARK                            x       y       z     vdW  Elec       q    Type
REMARK                         _______ _______ _______ _____ _____    ______ ____
ROOT
ATOM      1  C   UNL A   1     -22.196  -0.450  29.770  0.00  0.00    +0.052 C 
ENDROOT
BRANCH   1   4
ATOM      2  C   UNL A   1     -23.566  -2.408  28.917  0.00  0.00    -0.004 A 
ATOM      3  C   UNL A   1     -24.401  -3.040  29.036  0.00  0.00    -0.000 A 
ATOM      4  C   UNL A   1     -23.455  -1.323  29.850  0.00  0.00    -0.018 A 
ATOM      5  C   UNL A   1     -24.420  -1.007  30.719  0.00  0.00    -0.004 A 
ATOM      6  C   UNL A   1     -25.570  -2.881  29.890  0.00  0.00    -0.000 A 
ATOM      7  C   UNL A   1     -25.493  -1.869  30.743  0.00  0.00    -0.000 A 
ENDBRANCH   1   4
BRANCH   1   8
ATOM      8  C   UNL A   1     -21.961   0.297  28.547  0.00  0.00    -0.021 C 
ATOM      9  C   UNL A   1     -22.762   1.334  28.165  0.00  0.00    -0.004 C 
BRANCH   9  10
ATOM     10  C   UNL A   1     -22.543   1.988  26.920  0.00  0.00    -0.000 C 
ATOM     11  C   UNL A   1     -23.433   1.737  25.814  0.00  0.00    -0.000 C 
BRANCH  11  12
ATOM     12  C   UNL A   1     -24.645   1.076  26.048  0.00  0.00    -0.000 C 
ATOM     13  C   UNL A   1     -25.100   0.144  25.191  0.00  0.00    -0.000 C 
ENDBRANCH  11  12
ENDBRANCH   9  10
ENDBRANCH   1   8
TORSDOF 4
ENDMDL
ENDMDL
