MODEL 1567
MODEL 1
REMARK VINA RESULT:    -6.255      0.000      0.000
REMARK INTER + INTRA:          -7.287
REMARK INTER:                  -6.986
REMARK INTRA:                  -0.301
REMARK UNBOUND:                -0.301
REMARK  Name = No_1567-gen_results/8p0m/2024-11-27-11-27-31/
REMARK  2 active torsions:
REMARK  status: ('A' for Active; 'I' for Inactive)
REMARK    1  A    between atoms: C_6  and  C_8
REMARK    2  A    between atoms: N_9  and  C_11
REMARK                            x       y       z     vdW  Elec       q    Type
REMARK                         _______ _______ _______ _____ _____    ______ ____
ROOT
ATOM      1  C   UNL A   1     -24.963  -1.016  28.757  0.00  0.00    +0.269 C 
ATOM      2  N   UNL A   1     -24.682  -0.639  27.635  0.00  0.00    -0.175 NA
ATOM      3  O   UNL A   1     -25.019  -0.184  29.727  0.00  0.00    -0.268 OA
ENDROOT
BRANCH   1   9
ATOM      4  C   UNL A   1     -26.367  -3.010  29.626  0.00  0.00    +0.016 A 
ATOM      5  C   UNL A   1     -26.534  -4.200  29.762  0.00  0.00    +0.058 A 
ATOM      6  C   UNL A   1     -25.545  -5.109  29.403  0.00  0.00    +0.011 A 
ATOM      7  C   UNL A   1     -24.308  -4.665  28.815  0.00  0.00    +0.001 A 
ATOM      8  C   UNL A   1     -24.207  -3.275  28.672  0.00  0.00    +0.005 A 
ATOM      9  C   UNL A   1     -25.179  -2.458  29.012  0.00  0.00    +0.056 A 
ATOM     10 CL   UNL A   1     -27.959  -4.905  30.398  0.00  0.00    -0.082 Cl
ENDBRANCH   1   9
BRANCH   2  11
ATOM     11  C   UNL A   1     -24.486   0.776  27.246  0.00  0.00    +0.074 A 
ATOM     12  C   UNL A   1     -25.349   1.378  26.753  0.00  0.00    +0.017 A 
ATOM     13  C   UNL A   1     -25.199   2.392  25.992  0.00  0.00    +0.001 A 
ATOM     14  C   UNL A   1     -23.872   3.013  25.974  0.00  0.00    +0.000 A 
ATOM     15  C   UNL A   1     -22.846   2.354  26.589  0.00  0.00    +0.001 A 
ATOM     16  C   UNL A   1     -23.098   1.125  27.148  0.00  0.00    +0.017 A 
ENDBRANCH   2  11
TORSDOF 2
ENDMDL
ENDMDL
