REMARK  Name = No_1567-gen_results/8p0m/2024-11-27-11-27-31/
REMARK  2 active torsions:
REMARK  status: ('A' for Active; 'I' for Inactive)
REMARK    1  A    between atoms: C_6  and  C_8
REMARK    2  A    between atoms: N_9  and  C_11
REMARK                            x       y       z     vdW  Elec       q    Type
REMARK                         _______ _______ _______ _____ _____    ______ ____
ROOT
ATOM      1  C   UNL A   1     -29.068  -2.788  30.181  0.00  0.00    +0.269 C 
ATOM      2  N   UNL A   1     -30.189  -2.315  30.170  0.00  0.00    -0.175 NA
ATOM      3  O   UNL A   1     -28.869  -3.979  30.603  0.00  0.00    -0.268 OA
ENDROOT
BRANCH   1   9
ATOM      4  C   UNL A   1     -28.016  -0.814  28.878  0.00  0.00    +0.016 A 
ATOM      5  C   UNL A   1     -27.064  -0.119  28.608  0.00  0.00    +0.058 A 
ATOM      6  C   UNL A   1     -25.792  -0.430  29.076  0.00  0.00    +0.011 A 
ATOM      7  C   UNL A   1     -25.576  -1.565  29.936  0.00  0.00    +0.001 A 
ATOM      8  C   UNL A   1     -26.735  -2.300  30.217  0.00  0.00    +0.005 A 
ATOM      9  C   UNL A   1     -27.918  -1.954  29.763  0.00  0.00    +0.056 A 
ATOM     10 CL   UNL A   1     -27.146   1.292  27.641  0.00  0.00    -0.082 Cl
ENDBRANCH   1   9
BRANCH   2  11
ATOM     11  C   UNL A   1     -31.420  -3.058  30.522  0.00  0.00    +0.074 A 
ATOM     12  C   UNL A   1     -32.404  -2.489  30.766  0.00  0.00    +0.017 A 
ATOM     13  C   UNL A   1     -33.355  -2.940  31.488  0.00  0.00    +0.001 A 
ATOM     14  C   UNL A   1     -33.335  -4.374  31.788  0.00  0.00    +0.000 A 
ATOM     15  C   UNL A   1     -32.211  -5.081  31.467  0.00  0.00    +0.001 A 
ATOM     16  C   UNL A   1     -31.143  -4.406  30.927  0.00  0.00    +0.017 A 
ENDBRANCH   2  11
TORSDOF 2
