REMARK  Name = No_1568-gen_results/8p0m/2024-11-27-11-27-31/
REMARK  0 active torsions:
REMARK  status: ('A' for Active; 'I' for Inactive)
REMARK                            x       y       z     vdW  Elec       q    Type
REMARK                         _______ _______ _______ _____ _____    ______ ____
ROOT
ATOM      1  C   UNL A   1     -28.016  -0.814  28.878  0.00  0.00    -0.005 A 
ATOM      2  C   UNL A   1     -28.469  -0.785  29.829  0.00  0.00    -0.000 A 
ATOM      3  C   UNL A   1     -26.504  -0.778  28.877  0.00  0.00    -0.026 A 
ATOM      4  C   UNL A   1     -25.654  -0.660  27.719  0.00  0.00    +0.031 C 
ATOM      5  C   UNL A   1     -27.918  -0.937  31.182  0.00  0.00    -0.000 A 
ATOM      6  C   UNL A   1     -26.542  -0.940  31.261  0.00  0.00    -0.005 A 
ATOM      7  C   UNL A   1     -25.783  -0.893  30.120  0.00  0.00    -0.026 A 
ATOM      8  C   UNL A   1     -25.926   0.282  26.744  0.00  0.00    +0.031 C 
ATOM      9  C   UNL A   1     -25.626   1.472  26.819  0.00  0.00    -0.026 A 
ATOM     10  C   UNL A   1     -25.939   2.392  25.741  0.00  0.00    -0.005 A 
ATOM     11  C   UNL A   1     -25.644   3.770  25.952  0.00  0.00    -0.000 A 
ATOM     12  C   UNL A   1     -24.890   4.199  27.080  0.00  0.00    -0.000 A 
ATOM     13  C   UNL A   1     -24.926   2.053  27.960  0.00  0.00    -0.026 A 
ATOM     14  C   UNL A   1     -24.487   1.223  29.061  0.00  0.00    +0.031 C 
ATOM     15  C   UNL A   1     -24.607   3.446  28.021  0.00  0.00    -0.005 A 
ATOM     16  C   UNL A   1     -24.961   0.521  30.186  0.00  0.00    +0.031 C 
ENDROOT
TORSDOF 0
