MODEL 1568
MODEL 1
REMARK VINA RESULT:    -7.367      0.000      0.000
REMARK INTER + INTRA:          -7.367
REMARK INTER:                  -7.367
REMARK INTRA:                   0.000
REMARK UNBOUND:                 0.000
REMARK  Name = No_1568-gen_results/8p0m/2024-11-27-11-27-31/
REMARK  0 active torsions:
REMARK  status: ('A' for Active; 'I' for Inactive)
REMARK                            x       y       z     vdW  Elec       q    Type
REMARK                         _______ _______ _______ _____ _____    ______ ____
ROOT
ATOM      1  C   UNL A   1     -11.340  -2.117  37.528  0.00  0.00    -0.005 A 
ATOM      2  C   UNL A   1     -11.902  -2.685  38.216  0.00  0.00    -0.000 A 
ATOM      3  C   UNL A   1     -10.913  -0.749  38.010  0.00  0.00    -0.026 A 
ATOM      4  C   UNL A   1     -10.271   0.272  37.221  0.00  0.00    +0.031 C 
ATOM      5  C   UNL A   1     -12.173  -2.501  39.648  0.00  0.00    -0.000 A 
ATOM      6  C   UNL A   1     -11.787  -1.285  40.169  0.00  0.00    -0.005 A 
ATOM      7  C   UNL A   1     -11.118  -0.377  39.388  0.00  0.00    -0.026 A 
ATOM      8  C   UNL A   1     -10.750   0.589  35.963  0.00  0.00    +0.031 C 
ATOM      9  C   UNL A   1     -11.709   1.328  35.747  0.00  0.00    -0.026 A 
ATOM     10  C   UNL A   1     -12.138   1.618  34.391  0.00  0.00    -0.005 A 
ATOM     11  C   UNL A   1     -13.316   2.404  34.234  0.00  0.00    -0.000 A 
ATOM     12  C   UNL A   1     -13.929   3.047  35.346  0.00  0.00    -0.000 A 
ATOM     13  C   UNL A   1     -12.473   1.982  36.804  0.00  0.00    -0.026 A 
ATOM     14  C   UNL A   1     -12.092   1.836  38.192  0.00  0.00    +0.031 C 
ATOM     15  C   UNL A   1     -13.594   2.822  36.516  0.00  0.00    -0.005 A 
ATOM     16  C   UNL A   1     -12.107   0.921  39.262  0.00  0.00    +0.031 C 
ENDROOT
TORSDOF 0
ENDMDL
ENDMDL
