MODEL 1569
MODEL 1
REMARK VINA RESULT:    -6.431      0.000      0.000
REMARK INTER + INTRA:          -6.887
REMARK INTER:                  -6.807
REMARK INTRA:                  -0.080
REMARK UNBOUND:                -0.080
REMARK  Name = No_1569-gen_results/8p0m/2024-11-27-11-27-31/
REMARK  1 active torsions:
REMARK  status: ('A' for Active; 'I' for Inactive)
REMARK    1  A    between atoms: C_5  and  C_11
REMARK                            x       y       z     vdW  Elec       q    Type
REMARK                         _______ _______ _______ _____ _____    ______ ____
ROOT
ATOM      1  C   UNL A   1     -30.612  -9.906  29.646  0.00  0.00    +0.000 A 
ATOM      2  C   UNL A   1     -29.832 -10.444  30.397  0.00  0.00    +0.000 A 
ATOM      3  C   UNL A   1     -28.917 -11.323  30.104  0.00  0.00    +0.000 A 
ATOM      4  C   UNL A   1     -27.972 -11.958  31.056  0.00  0.00    +0.005 A 
ATOM      5  C   UNL A   1     -28.051 -11.522  32.410  0.00  0.00    +0.057 A 
ATOM      6  C   UNL A   1     -28.973 -10.552  32.712  0.00  0.00    +0.005 A 
ATOM      7  C   UNL A   1     -29.808  -9.987  31.808  0.00  0.00    +0.000 A 
ATOM      8  C   UNL A   1     -30.880 -10.614  28.460  0.00  0.00    +0.000 A 
ATOM      9  C   UNL A   1     -30.038 -11.604  28.032  0.00  0.00    +0.000 A 
ATOM     10  C   UNL A   1     -29.101 -12.093  28.916  0.00  0.00    +0.000 A 
ENDROOT
BRANCH   5  11
ATOM     11  C   UNL A   1     -27.113 -11.928  33.437  0.00  0.00    +0.284 C 
ATOM     12  O   UNL A   1     -26.767 -12.920  33.683  0.00  0.00    -0.267 OA
ATOM     13  N   UNL A   1     -27.117 -11.005  34.508  0.00  0.00    -0.084 NA
ENDBRANCH   5  11
TORSDOF 1
ENDMDL
ENDMDL
