MODEL 156
MODEL 1
REMARK VINA RESULT:    -6.237      0.000      0.000
REMARK INTER + INTRA:         -14.963
REMARK INTER:                 -10.613
REMARK INTRA:                  -4.350
REMARK UNBOUND:                -4.350
REMARK  Name = No_156-gen_results/8p0m/2024-11-27-11-27-31/
REMARK  12 active torsions:
REMARK  status: ('A' for Active; 'I' for Inactive)
REMARK    1  A    between atoms: C_4  and  C_9
REMARK    2  A    between atoms: C_10  and  N_12
REMARK    3  A    between atoms: N_12  and  C_17
REMARK    4  A    between atoms: C_17  and  C_19
REMARK    5  A    between atoms: C_19  and  C_20
REMARK    6  A    between atoms: C_20  and  C_21
REMARK    7  A    between atoms: C_21  and  C_22
REMARK    8  A    between atoms: C_23  and  C_24
REMARK    9  A    between atoms: C_24  and  C_25
REMARK   10  A    between atoms: C_25  and  C_26
REMARK   11  A    between atoms: C_27  and  C_28
REMARK   12  A    between atoms: C_27  and  C_34
REMARK                            x       y       z     vdW  Elec       q    Type
REMARK                         _______ _______ _______ _____ _____    ______ ____
ROOT
ATOM      1  C   UNL A   1     -26.341  -0.809  31.794  0.00  0.00    +0.072 C 
ENDROOT
BRANCH   1   2
ATOM      2  N   UNL A   1     -26.476  -1.157  30.463  0.00  0.00    -0.272 NA
ATOM      3  C   UNL A   1     -27.597  -0.441  29.698  0.00  0.00    +0.090 C 
BRANCH   2   5
ATOM      4  C   UNL A   1     -24.795  -2.041  29.080  0.00  0.00    +0.060 C 
ATOM      5  C   UNL A   1     -25.881  -2.172  29.825  0.00  0.00    +0.070 C 
ATOM      6  C   UNL A   1     -23.807  -3.079  29.089  0.00  0.00    -0.021 C 
ATOM      7  C   UNL A   1     -24.192  -4.411  29.217  0.00  0.00    -0.004 C 
ATOM      8  C   UNL A   1     -25.163  -4.848  29.116  0.00  0.00    -0.005 C 
ATOM      9  C   UNL A   1     -26.589  -4.467  29.511  0.00  0.00    -0.025 C 
ATOM     10  C   UNL A   1     -26.792  -3.271  29.974  0.00  0.00    +0.043 C 
BRANCH   4  14
ATOM     11  C   UNL A   1     -23.460   1.297  27.673  0.00  0.00    +0.022 A 
ATOM     12  C   UNL A   1     -24.056   1.302  26.804  0.00  0.00    +0.059 A 
ATOM     13  C   UNL A   1     -23.682   0.131  28.527  0.00  0.00    +0.055 A 
ATOM     14  C   UNL A   1     -24.574  -0.859  28.195  0.00  0.00    -0.006 A 
ATOM     15  C   UNL A   1     -25.054   0.416  26.206  0.00  0.00    +0.011 A 
ATOM     16  C   UNL A   1     -25.276  -0.716  27.026  0.00  0.00    -0.002 A 
ATOM     17 CL   UNL A   1     -22.771  -0.089  29.967  0.00  0.00    -0.083 Cl
ATOM     18 CL   UNL A   1     -23.804   2.694  25.627  0.00  0.00    -0.082 Cl
ENDBRANCH   4  14
ENDBRANCH   2   5
ENDBRANCH   1   2
BRANCH   1  19
ATOM     19  C   UNL A   1     -25.083  -0.238  32.208  0.00  0.00    +0.018 C 
BRANCH  19  20
ATOM     20  C   UNL A   1     -25.166   1.124  32.595  0.00  0.00    +0.006 C 
BRANCH  20  21
ATOM     21  C   UNL A   1     -26.516   1.636  32.442  0.00  0.00    +0.026 C 
BRANCH  21  22
ATOM     22  C   UNL A   1     -26.710   2.684  31.442  0.00  0.00    -0.031 C 
ATOM     23  C   UNL A   1     -25.646   2.876  30.530  0.00  0.00    -0.030 C 
BRANCH  23  24
ATOM     24  C   UNL A   1     -25.807   3.845  29.547  0.00  0.00    +0.030 C 
BRANCH  24  25
ATOM     25  C   UNL A   1     -26.977   3.826  28.885  0.00  0.00    +0.031 C 
BRANCH  25  26
ATOM     26  C   UNL A   1     -27.085   3.000  27.583  0.00  0.00    -0.026 C 
ATOM     27  C   UNL A   1     -28.204   2.330  27.192  0.00  0.00    -0.004 C 
BRANCH  27  28
ATOM     28  C   UNL A   1     -28.316   1.763  26.025  0.00  0.00    -0.000 A 
ATOM     29  C   UNL A   1     -28.039   2.549  24.919  0.00  0.00    -0.000 A 
ATOM     30  C   UNL A   1     -28.154   1.940  23.613  0.00  0.00    -0.000 A 
ATOM     31  C   UNL A   1     -28.640   0.726  23.493  0.00  0.00    -0.000 A 
ATOM     32  C   UNL A   1     -28.984  -0.040  24.554  0.00  0.00    -0.000 A 
ATOM     33  C   UNL A   1     -28.836   0.452  25.825  0.00  0.00    -0.000 A 
ENDBRANCH  27  28
BRANCH  27  34
ATOM     34  C   UNL A   1     -29.329   2.363  28.157  0.00  0.00    -0.000 C 
ATOM     35  C   UNL A   1     -30.357   3.201  27.799  0.00  0.00    -0.000 C 
ENDBRANCH  27  34
ENDBRANCH  25  26
ENDBRANCH  24  25
ENDBRANCH  23  24
ENDBRANCH  21  22
ENDBRANCH  20  21
ENDBRANCH  19  20
ENDBRANCH   1  19
TORSDOF 12
ENDMDL
ENDMDL
