MODEL 1570
MODEL 1
REMARK VINA RESULT:    -6.843      0.000      0.000
REMARK INTER + INTRA:         -13.070
REMARK INTER:                  -9.644
REMARK INTRA:                  -3.426
REMARK UNBOUND:                -3.426
REMARK  Name = No_1570-gen_results/8p0m/2024-11-27-11-27-31/
REMARK  7 active torsions:
REMARK  status: ('A' for Active; 'I' for Inactive)
REMARK    1  A    between atoms: C_1  and  C_2
REMARK    2  A    between atoms: C_5  and  C_10
REMARK    3  A    between atoms: N_8  and  C_9
REMARK    4  A    between atoms: N_8  and  C_14
REMARK    5  A    between atoms: C_10  and  N_11
REMARK    6  A    between atoms: C_19  and  C_25
REMARK    7  A    between atoms: C_26  and  C_34
REMARK                            x       y       z     vdW  Elec       q    Type
REMARK                         _______ _______ _______ _____ _____    ______ ____
ROOT
ATOM      1  C   UNL A   1     -26.000   0.879  25.254  0.00  0.00    +0.257 C 
ATOM      2  N   UNL A   1     -27.093   1.469  25.528  0.00  0.00    -0.234 N 
ATOM      3  O   UNL A   1     -26.140   0.043  24.265  0.00  0.00    -0.269 OA
ENDROOT
BRANCH   2   4
ATOM      4  C   UNL A   1     -27.230   2.434  26.583  0.00  0.00    +0.054 A 
ATOM      5  C   UNL A   1     -28.340   2.184  27.388  0.00  0.00    +0.015 A 
ATOM      6  C   UNL A   1     -29.272   3.087  27.548  0.00  0.00    -0.003 A 
ATOM      7  C   UNL A   1     -28.965   4.396  27.105  0.00  0.00    -0.022 A 
ATOM      8  C   UNL A   1     -27.817   4.710  26.464  0.00  0.00    -0.007 A 
ATOM      9  C   UNL A   1     -26.851   3.746  26.400  0.00  0.00    -0.008 A 
ATOM     10  C   UNL A   1     -30.049   5.428  27.365  0.00  0.00    +0.031 C 
BRANCH   9  11
ATOM     11  C   UNL A   1     -25.842   4.236  27.636  0.00  0.00    +0.036 C 
ATOM     12  C   UNL A   1     -25.972   3.878  28.720  0.00  0.00    +0.048 C 
ATOM     13  C   UNL A   1     -24.915   5.279  27.096  0.00  0.00    +0.031 C 
ATOM     14  C   UNL A   1     -25.021   6.597  27.474  0.00  0.00    -0.026 C 
ATOM     15  C   UNL A   1     -25.494   6.954  28.617  0.00  0.00    -0.005 C 
ATOM     16  C   UNL A   1     -25.909   6.196  29.799  0.00  0.00    -0.005 C 
ATOM     17  C   UNL A   1     -26.336   4.978  29.831  0.00  0.00    -0.022 C 
BRANCH  12  18
ATOM     18  C   UNL A   1     -25.486   2.682  29.309  0.00  0.00    -0.022 C 
ATOM     19  C   UNL A   1     -26.191   2.027  30.361  0.00  0.00    -0.005 C 
ENDBRANCH  12  18
ENDBRANCH   9  11
ENDBRANCH   2   4
BRANCH   1  20
ATOM     20  C   UNL A   1     -25.209   0.622  26.132  0.00  0.00    +0.054 A 
ATOM     21  C   UNL A   1     -25.367  -0.391  27.022  0.00  0.00    +0.004 A 
ATOM     22  C   UNL A   1     -24.408  -0.720  28.100  0.00  0.00    -0.003 A 
ATOM     23  C   UNL A   1     -23.224   0.083  28.182  0.00  0.00    -0.006 A 
ATOM     24  C   UNL A   1     -23.062   1.080  27.194  0.00  0.00    -0.003 A 
ATOM     25  C   UNL A   1     -23.996   1.329  26.222  0.00  0.00    +0.004 A 
BRANCH  23  26
ATOM     26  C   UNL A   1     -22.195  -0.162  29.157  0.00  0.00    +0.095 C 
ATOM     27  C   UNL A   1     -20.827  -0.040  28.536  0.00  0.00    +0.024 C 
BRANCH  26  28
ATOM     28  N   UNL A   1     -22.243  -0.636  30.304  0.00  0.00    -0.213 NA
ATOM     29  C   UNL A   1     -23.145  -0.320  31.384  0.00  0.00    +0.108 C 
ENDBRANCH  26  28
ENDBRANCH  23  26
ENDBRANCH   1  20
BRANCH   2  30
ATOM     30  C   UNL A   1     -28.214   1.336  24.701  0.00  0.00    +0.058 A 
ATOM     31  C   UNL A   1     -29.004   0.239  24.906  0.00  0.00    +0.015 A 
ATOM     32  C   UNL A   1     -30.165   0.075  24.303  0.00  0.00    +0.001 A 
ATOM     33  C   UNL A   1     -30.533   1.044  23.331  0.00  0.00    +0.000 A 
ATOM     34  C   UNL A   1     -29.751   2.136  23.088  0.00  0.00    +0.001 A 
ATOM     35  C   UNL A   1     -28.604   2.269  23.813  0.00  0.00    +0.015 A 
ENDBRANCH   2  30
TORSDOF 7
ENDMDL
ENDMDL
