REMARK  Name = outputs/IAG933/test6/raw/output_1570_IAG933_linker_design_.xyz
REMARK  11 active torsions:
REMARK  status: ('A' for Active; 'I' for Inactive)
REMARK    1  A    between atoms: C_1  and  C_2
REMARK    2  A    between atoms: C_1  and  C_8
REMARK    3  A    between atoms: C_1  and  C_28
REMARK    4  A    between atoms: C_13  and  C_39
REMARK    5  A    between atoms: C_14  and  C_15
REMARK    6  A    between atoms: C_21  and  O_22
REMARK    7  A    between atoms: O_22  and  C_23
REMARK    8  A    between atoms: C_23  and  C_24
REMARK    9  A    between atoms: C_31  and  C_32
REMARK   10  A    between atoms: C_33  and  C_39
REMARK   11  A    between atoms: N_36  and  C_39
REMARK                            x       y       z     vdW  Elec       q    Type
REMARK                         _______ _______ _______ _____ _____    ______ ____
ROOT
ATOM      1  C   UNL A   1     -24.794   1.214  27.614  0.00  0.00    +0.129 C 
ENDROOT
BRANCH   1   2
ATOM      2  C   UNL A   1     -25.688   1.614  26.461  0.00  0.00    +0.094 C 
ATOM      3  C   UNL A   1     -26.250   2.920  26.395  0.00  0.00    +0.057 C 
ATOM      4  C   UNL A   1     -27.438   3.091  25.645  0.00  0.00    +0.102 C 
ATOM      5  N   UNL A   1     -28.075   2.089  25.003  0.00  0.00    -0.212 NA
ATOM      6  C   UNL A   1     -27.543   0.849  25.079  0.00  0.00    +0.234 C 
ATOM      7  C   UNL A   1     -26.354   0.576  25.777  0.00  0.00    +0.242 C 
ATOM      8  F   UNL A   1     -25.860  -0.681  25.795  0.00  0.00    -0.227 F 
BRANCH   3   9
ATOM      9  C   UNL A   1     -25.642   4.093  27.123  0.00  0.00    +0.263 C 
ATOM     10  N   UNL A   1     -25.614   5.252  26.449  0.00  0.00    -0.200 NA
ATOM     11  C   UNL A   1     -25.026   6.479  26.963  0.00  0.00    +0.139 C 
ATOM     12  O   UNL A   1     -25.143   3.966  28.243  0.00  0.00    -0.269 OA
ENDBRANCH   3   9
BRANCH   6  13
ATOM     13  O   UNL A   1     -28.193  -0.208  24.477  0.00  0.00    -0.459 OA
BRANCH  13  14
ATOM     14  C   UNL A   1     -29.460   0.005  23.866  0.00  0.00    +0.242 C 
BRANCH  14  15
ATOM     15  C   UNL A   1     -30.065  -1.377  23.573  0.00  0.00    +0.229 C 
ATOM     16  O   UNL A   1     -30.729  -1.878  24.721  0.00  0.00    -0.216 OA
ENDBRANCH  14  15
ENDBRANCH  13  14
ENDBRANCH   6  13
ENDBRANCH   1   2
BRANCH   1  19
ATOM     17  O   UNL A   1     -21.100   1.062  28.303  0.00  0.00    -0.434 OA
ATOM     18  C   UNL A   1     -22.528   1.949  26.785  0.00  0.00    +0.111 C 
ATOM     19  C   UNL A   1     -23.297   1.219  27.642  0.00  0.00    +0.057 C 
ATOM     20  C   UNL A   1     -21.180   1.914  27.185  0.00  0.00    +0.185 C 
ATOM     21  C   UNL A   1     -22.329   0.596  28.581  0.00  0.00    +0.232 C 
ATOM     22  N   UNL A   1     -22.380  -0.302  29.626  0.00  0.00    -0.088 NA
BRANCH  18  24
ATOM     23  F   UNL A   1     -23.803   1.869  24.876  0.00  0.00    -0.166 F 
ATOM     24  C   UNL A   1     -23.045   2.676  25.653  0.00  0.00    +0.421 C 
ATOM     25  F   UNL A   1     -23.571   3.824  26.026  0.00  0.00    -0.166 F 
ATOM     26  F   UNL A   1     -22.127   2.996  24.692  0.00  0.00    -0.166 F 
ENDBRANCH  18  24
ENDBRANCH   1  19
BRANCH   1  29
ATOM     27  C   UNL A   1     -25.753  -0.379  29.044  0.00  0.00    +0.247 C 
ATOM     28  O   UNL A   1     -26.992  -0.230  29.172  0.00  0.00    -0.273 OA
ATOM     29  N   UNL A   1     -25.162  -0.212  27.900  0.00  0.00    -0.202 NA
BRANCH  27  30
ATOM     30  C   UNL A   1     -24.855  -1.012  30.143  0.00  0.00    +0.116 C 
BRANCH  30  31
ATOM     31  C   UNL A   1     -24.973  -2.505  29.788  0.00  0.00    -0.013 C 
ATOM     32  C   UNL A   1     -23.906  -3.173  29.146  0.00  0.00    -0.004 C 
ATOM     33  C   UNL A   1     -23.989  -4.549  28.853  0.00  0.00    -0.000 C 
ATOM     34  C   UNL A   1     -25.137  -5.280  29.205  0.00  0.00    -0.000 C 
ATOM     35  C   UNL A   1     -26.232  -4.611  29.784  0.00  0.00    -0.000 C 
ATOM     36  C   UNL A   1     -26.155  -3.232  30.065  0.00  0.00    -0.004 C 
ENDBRANCH  30  31
BRANCH  30  37
ATOM     37  C   UNL A   1     -25.387  -0.679  31.571  0.00  0.00    +0.086 C 
ATOM     38  C   UNL A   1     -25.189   0.773  32.028  0.00  0.00    +0.020 C 
ATOM     39  C   UNL A   1     -25.336   0.684  33.544  0.00  0.00    +0.020 C 
ATOM     40  C   UNL A   1     -24.829  -0.715  33.905  0.00  0.00    +0.089 C 
ATOM     41  N   UNL A   1     -24.758  -1.481  32.646  0.00  0.00    -0.219 NA
ENDBRANCH  30  37
ENDBRANCH  27  30
ENDBRANCH   1  29
TORSDOF 11
