MODEL 1571
MODEL 1
REMARK VINA RESULT:    -7.781      0.000      0.000
REMARK INTER + INTRA:         -11.387
REMARK INTER:                  -9.600
REMARK INTRA:                  -1.787
REMARK UNBOUND:                -1.787
REMARK  Name = No_1571-gen_results/8p0m/2024-11-27-11-27-31/
REMARK  4 active torsions:
REMARK  status: ('A' for Active; 'I' for Inactive)
REMARK    1  A    between atoms: C_7  and  C_28
REMARK    2  A    between atoms: C_17  and  N_18
REMARK    3  A    between atoms: N_18  and  C_20
REMARK    4  A    between atoms: C_21  and  C_22
REMARK                            x       y       z     vdW  Elec       q    Type
REMARK                         _______ _______ _______ _____ _____    ______ ____
ROOT
ATOM      1  C   UNL A   1     -11.304   0.688  38.293  0.00  0.00    +0.045 A 
ATOM      2  C   UNL A   1     -11.899   0.282  39.062  0.00  0.00    +0.011 A 
ATOM      3  C   UNL A   1     -10.750  -0.250  37.359  0.00  0.00    -0.005 A 
ATOM      4  C   UNL A   1     -10.826  -1.574  37.523  0.00  0.00    -0.003 A 
ATOM      5  C   UNL A   1     -12.103  -1.109  39.441  0.00  0.00    -0.001 A 
ATOM      6  C   UNL A   1     -11.577  -1.989  38.600  0.00  0.00    -0.001 A 
ATOM      7  C   UNL A   1      -9.968   0.319  36.168  0.00  0.00    +0.050 C 
ATOM      8  C   UNL A   1     -10.675   1.179  35.236  0.00  0.00    +0.036 C 
ATOM      9  C   UNL A   1     -11.916   1.679  35.510  0.00  0.00    -0.008 A 
ATOM     10  C   UNL A   1     -12.653   2.355  34.535  0.00  0.00    -0.003 A 
ATOM     11  C   UNL A   1     -13.928   2.969  34.836  0.00  0.00    -0.000 A 
ATOM     12  C   UNL A   1     -14.294   3.086  36.153  0.00  0.00    +0.001 A 
ATOM     13  C   UNL A   1     -13.538   2.569  37.147  0.00  0.00    +0.015 A 
ATOM     14  C   UNL A   1     -12.394   1.905  36.858  0.00  0.00    +0.048 A 
ATOM     15  N   UNL A   1     -12.019   1.455  38.017  0.00  0.00    -0.287 N 
ATOM     16  C   UNL A   1     -11.999   2.683  38.987  0.00  0.00    +0.098 C 
ATOM     17  C   UNL A   1     -12.284   1.125  40.348  0.00  0.00    +0.117 C 
ATOM     18  C   UNL A   1     -12.378   2.496  40.159  0.00  0.00    +0.048 C 
ENDROOT
BRANCH   7  19
ATOM     19  C   UNL A   1      -8.628  -0.005  36.046  0.00  0.00    -0.026 C 
ATOM     20  C   UNL A   1      -7.996  -0.255  35.117  0.00  0.00    -0.030 C 
ATOM     21  C   UNL A   1      -6.612  -0.609  35.086  0.00  0.00    +0.030 C 
ENDBRANCH   7  19
BRANCH  17  22
ATOM     22  N   UNL A   1     -12.621   0.544  41.562  0.00  0.00    -0.234 NA
BRANCH  22  23
ATOM     23  C   UNL A   1     -11.974   0.708  42.634  0.00  0.00    +0.080 C 
ATOM     24  C   UNL A   1     -10.928   0.345  42.854  0.00  0.00    +0.017 C 
BRANCH  24  25
ATOM     25  C   UNL A   1     -10.451  -0.768  42.732  0.00  0.00    +0.001 A 
ATOM     26  C   UNL A   1     -10.955  -1.763  43.468  0.00  0.00    +0.000 A 
ATOM     27  C   UNL A   1     -10.413  -3.187  43.338  0.00  0.00    +0.000 A 
ATOM     28  C   UNL A   1      -9.450  -3.335  42.358  0.00  0.00    +0.000 A 
ATOM     29  C   UNL A   1      -8.878  -2.314  41.648  0.00  0.00    +0.000 A 
ATOM     30  C   UNL A   1      -9.360  -1.053  41.812  0.00  0.00    +0.000 A 
ENDBRANCH  24  25
ENDBRANCH  22  23
ENDBRANCH  17  22
TORSDOF 4
ENDMDL
ENDMDL
