MODEL 1572
MODEL 1
REMARK VINA RESULT:    -9.092      0.000      0.000
REMARK INTER + INTRA:         -11.635
REMARK INTER:                 -10.687
REMARK INTRA:                  -0.948
REMARK UNBOUND:                -0.948
REMARK  Name = No_1572-gen_results/8p0m/2024-11-27-11-27-31/
REMARK  3 active torsions:
REMARK  status: ('A' for Active; 'I' for Inactive)
REMARK    1  A    between atoms: C_2  and  N_7
REMARK    2  A    between atoms: N_7  and  C_8
REMARK    3  A    between atoms: N_7  and  C_14
REMARK                            x       y       z     vdW  Elec       q    Type
REMARK                         _______ _______ _______ _____ _____    ______ ____
ROOT
ATOM      1  N   UNL A   1     -24.572  -1.667  29.969  0.00  0.00    -0.266 N 
ENDROOT
BRANCH   1   2
ATOM      2  C   UNL A   1     -23.704  -0.809  29.135  0.00  0.00    +0.056 A 
ATOM      3  C   UNL A   1     -24.200  -0.046  28.126  0.00  0.00    +0.015 A 
ATOM      4  C   UNL A   1     -23.386   0.746  27.457  0.00  0.00    +0.012 A 
ATOM      5  C   UNL A   1     -22.390  -0.703  29.547  0.00  0.00    +0.016 A 
ATOM      6  C   UNL A   1     -21.514   0.107  28.886  0.00  0.00    +0.013 A 
ATOM      7  C   UNL A   1     -22.016   0.865  27.821  0.00  0.00    +0.058 A 
ATOM      8  C   UNL A   1     -23.893   1.544  26.306  0.00  0.00    +0.001 A 
ATOM      9  C   UNL A   1     -24.891   1.122  25.630  0.00  0.00    +0.000 A 
ATOM     10  C   UNL A   1     -25.462  -0.164  25.907  0.00  0.00    +0.000 A 
ATOM     11  C   UNL A   1     -25.274  -0.655  27.267  0.00  0.00    +0.001 A 
ATOM     12 CL   UNL A   1     -21.002   2.004  27.048  0.00  0.00    -0.082 Cl
ENDBRANCH   1   2
BRANCH   1  14
ATOM     13  C   UNL A   1     -24.531  -1.293  32.134  0.00  0.00    +0.026 A 
ATOM     14  C   UNL A   1     -24.856  -0.889  31.216  0.00  0.00    +0.056 A 
ATOM     15  C   UNL A   1     -24.836  -0.512  33.343  0.00  0.00    +0.059 A 
ATOM     16  C   UNL A   1     -25.654   0.653  33.267  0.00  0.00    +0.011 A 
ATOM     17  C   UNL A   1     -25.753   0.249  30.873  0.00  0.00    +0.015 A 
ATOM     18  C   UNL A   1     -26.049   1.003  31.969  0.00  0.00    +0.002 A 
ATOM     19 CL   UNL A   1     -24.260  -0.862  34.948  0.00  0.00    -0.082 Cl
ENDBRANCH   1  14
BRANCH   1  20
ATOM     20  C   UNL A   1     -24.877  -2.815  29.658  0.00  0.00    +0.056 A 
ATOM     21  C   UNL A   1     -25.919  -3.342  29.922  0.00  0.00    +0.015 A 
ATOM     22  C   UNL A   1     -26.296  -4.784  29.631  0.00  0.00    +0.001 A 
ATOM     23  C   UNL A   1     -25.316  -5.387  28.958  0.00  0.00    +0.000 A 
ATOM     24  C   UNL A   1     -23.972  -3.670  28.984  0.00  0.00    +0.015 A 
ATOM     25  C   UNL A   1     -24.162  -4.890  28.661  0.00  0.00    +0.001 A 
ENDBRANCH   1  20
TORSDOF 3
ENDMDL
ENDMDL
