REMARK  Name = No_1572-gen_results/8p0m/2024-11-27-11-27-31/
REMARK  3 active torsions:
REMARK  status: ('A' for Active; 'I' for Inactive)
REMARK    1  A    between atoms: C_2  and  N_7
REMARK    2  A    between atoms: N_7  and  C_8
REMARK    3  A    between atoms: N_7  and  C_14
REMARK                            x       y       z     vdW  Elec       q    Type
REMARK                         _______ _______ _______ _____ _____    ______ ____
ROOT
ATOM      1  N   UNL A   1     -29.965  -0.735  29.890  0.00  0.00    -0.266 N 
ENDROOT
BRANCH   1   2
ATOM      2  C   UNL A   1     -30.368   0.479  29.149  0.00  0.00    +0.056 A 
ATOM      3  C   UNL A   1     -30.596   0.463  27.810  0.00  0.00    +0.015 A 
ATOM      4  C   UNL A   1     -31.012   1.563  27.214  0.00  0.00    +0.012 A 
ATOM      5  C   UNL A   1     -30.657   1.587  29.922  0.00  0.00    +0.016 A 
ATOM      6  C   UNL A   1     -31.093   2.744  29.348  0.00  0.00    +0.013 A 
ATOM      7  C   UNL A   1     -31.292   2.741  27.962  0.00  0.00    +0.058 A 
ATOM      8  C   UNL A   1     -31.208   1.589  25.738  0.00  0.00    +0.001 A 
ATOM      9  C   UNL A   1     -30.521   0.814  24.991  0.00  0.00    +0.000 A 
ATOM     10  C   UNL A   1     -29.489  -0.008  25.555  0.00  0.00    +0.000 A 
ATOM     11  C   UNL A   1     -29.659  -0.352  26.962  0.00  0.00    +0.001 A 
ATOM     12 CL   UNL A   1     -31.974   4.114  27.206  0.00  0.00    -0.082 Cl
ENDBRANCH   1   2
BRANCH   1  14
ATOM     13  C   UNL A   1     -28.016  -0.814  28.878  0.00  0.00    +0.026 A 
ATOM     14  C   UNL A   1     -28.469  -0.785  29.829  0.00  0.00    +0.056 A 
ATOM     15  C   UNL A   1     -26.546  -0.876  28.850  0.00  0.00    +0.059 A 
ATOM     16  C   UNL A   1     -25.804  -1.032  30.057  0.00  0.00    +0.011 A 
ATOM     17  C   UNL A   1     -27.944  -0.987  31.207  0.00  0.00    +0.015 A 
ATOM     18  C   UNL A   1     -26.582  -1.039  31.223  0.00  0.00    +0.002 A 
ATOM     19 CL   UNL A   1     -25.552  -0.752  27.426  0.00  0.00    -0.082 Cl
ENDBRANCH   1  14
BRANCH   1  20
ATOM     20  C   UNL A   1     -30.771  -1.535  30.355  0.00  0.00    +0.056 A 
ATOM     21  C   UNL A   1     -30.481  -2.534  30.948  0.00  0.00    +0.015 A 
ATOM     22  C   UNL A   1     -31.446  -3.588  31.460  0.00  0.00    +0.001 A 
ATOM     23  C   UNL A   1     -32.703  -3.213  31.222  0.00  0.00    +0.000 A 
ATOM     24  C   UNL A   1     -32.167  -1.375  30.179  0.00  0.00    +0.015 A 
ATOM     25  C   UNL A   1     -33.088  -2.167  30.570  0.00  0.00    +0.001 A 
ENDBRANCH   1  20
TORSDOF 3
