REMARK  Name = outputs/IAG933/test6/raw/output_1573_IAG933_linker_design_.xyz
REMARK  16 active torsions:
REMARK  status: ('A' for Active; 'I' for Inactive)
REMARK    1  A    between atoms: C_1  and  C_2
REMARK    2  A    between atoms: C_1  and  C_8
REMARK    3  A    between atoms: C_1  and  C_38
REMARK    4  A    between atoms: C_13  and  C_44
REMARK    5  A    between atoms: C_14  and  C_15
REMARK    6  A    between atoms: C_21  and  O_22
REMARK    7  A    between atoms: O_22  and  C_23
REMARK    8  A    between atoms: C_23  and  C_24
REMARK    9  A    between atoms: C_34  and  N_35
REMARK   10  A    between atoms: C_34  and  C_39
REMARK   11  A    between atoms: N_35  and  C_37
REMARK   12  A    between atoms: C_38  and  N_47
REMARK   13  A    between atoms: C_39  and  C_43
REMARK   14  A    between atoms: C_42  and  C_44
REMARK   15  A    between atoms: C_43  and  N_47
REMARK   16  A    between atoms: C_44  and  N_47
REMARK                            x       y       z     vdW  Elec       q    Type
REMARK                         _______ _______ _______ _____ _____    ______ ____
ROOT
ATOM      1  N   UNL A   1     -24.924   0.430  28.299  0.00  0.00    -0.267 NA
ENDROOT
BRANCH   1   2
ATOM      2  C   UNL A   1     -24.066  -0.182  29.232  0.00  0.00    +0.078 C 
BRANCH   2   3
ATOM      3  C   UNL A   1     -24.855  -1.012  30.143  0.00  0.00    +0.054 C 
BRANCH   3   4
ATOM      4  C   UNL A   1     -24.973  -2.505  29.788  0.00  0.00    -0.020 C 
ATOM      5  C   UNL A   1     -23.906  -3.173  29.146  0.00  0.00    -0.004 C 
ATOM      6  C   UNL A   1     -23.989  -4.549  28.853  0.00  0.00    -0.000 C 
ATOM      7  C   UNL A   1     -25.137  -5.280  29.205  0.00  0.00    -0.000 C 
ATOM      8  C   UNL A   1     -26.232  -4.611  29.784  0.00  0.00    -0.000 C 
ATOM      9  C   UNL A   1     -26.155  -3.232  30.065  0.00  0.00    -0.004 C 
ENDBRANCH   3   4
BRANCH   3  10
ATOM     10  C   UNL A   1     -25.387  -0.679  31.571  0.00  0.00    +0.078 C 
ATOM     11  C   UNL A   1     -25.189   0.773  32.028  0.00  0.00    +0.019 C 
ATOM     12  C   UNL A   1     -25.336   0.684  33.544  0.00  0.00    +0.020 C 
ATOM     13  C   UNL A   1     -24.829  -0.715  33.905  0.00  0.00    +0.089 C 
ATOM     14  N   UNL A   1     -24.758  -1.481  32.646  0.00  0.00    -0.219 NA
ENDBRANCH   3  10
ENDBRANCH   2   3
ENDBRANCH   1   2
BRANCH   1  15
ATOM     15  C   UNL A   1     -26.419   0.595  28.679  0.00  0.00    +0.074 C 
BRANCH  15  16
ATOM     16  C   UNL A   1     -26.691   1.909  29.136  0.00  0.00    +0.039 C 
BRANCH  16  17
ATOM     17  C   UNL A   1     -28.181   2.178  29.328  0.00  0.00    +0.092 C 
BRANCH  17  19
ATOM     18  C   UNL A   1     -29.320   4.076  28.526  0.00  0.00    +0.112 C 
ATOM     19  N   UNL A   1     -28.190   3.643  29.285  0.00  0.00    -0.306 N 
BRANCH  19  24
ATOM     20  C   UNL A   1     -27.056   5.646  29.863  0.00  0.00    +0.010 C 
ATOM     21  C   UNL A   1     -26.662   3.597  31.146  0.00  0.00    +0.015 C 
ATOM     22  C   UNL A   1     -26.255   6.321  30.790  0.00  0.00    -0.021 C 
ATOM     23  C   UNL A   1     -25.492   5.649  31.751  0.00  0.00    -0.004 C 
ATOM     24  C   UNL A   1     -27.341   4.276  30.103  0.00  0.00    +0.048 C 
ATOM     25  C   UNL A   1     -26.330   7.755  30.797  0.00  0.00    +0.031 C 
ATOM     26  C   UNL A   1     -25.660   4.250  31.883  0.00  0.00    +0.001 C 
ENDBRANCH  19  24
ENDBRANCH  17  19
ENDBRANCH  16  17
ENDBRANCH  15  16
ENDBRANCH   1  15
BRANCH   1  27
ATOM     27  C   UNL A   1     -24.525   1.139  27.314  0.00  0.00    +0.107 C 
BRANCH  27  28
ATOM     28  C   UNL A   1     -25.688   1.614  26.461  0.00  0.00    +0.034 C 
ATOM     29  C   UNL A   1     -26.250   2.920  26.395  0.00  0.00    +0.074 C 
ATOM     30  C   UNL A   1     -27.438   3.091  25.645  0.00  0.00    +0.106 C 
ATOM     31  N   UNL A   1     -28.075   2.089  25.003  0.00  0.00    -0.208 NA
ATOM     32  C   UNL A   1     -27.543   0.849  25.079  0.00  0.00    +0.253 C 
ATOM     33  C   UNL A   1     -26.354   0.576  25.777  0.00  0.00    +0.191 C 
ATOM     34  F   UNL A   1     -25.860  -0.681  25.795  0.00  0.00    -0.200 F 
BRANCH  29  35
ATOM     35  C   UNL A   1     -25.642   4.093  27.123  0.00  0.00    +0.266 C 
ATOM     36  N   UNL A   1     -25.614   5.252  26.449  0.00  0.00    -0.200 NA
ATOM     37  C   UNL A   1     -25.026   6.479  26.963  0.00  0.00    +0.139 C 
ATOM     38  O   UNL A   1     -25.143   3.966  28.243  0.00  0.00    -0.268 OA
ENDBRANCH  29  35
BRANCH  32  39
ATOM     39  O   UNL A   1     -28.193  -0.208  24.477  0.00  0.00    -0.456 OA
BRANCH  39  40
ATOM     40  C   UNL A   1     -29.460   0.005  23.866  0.00  0.00    +0.243 C 
BRANCH  40  41
ATOM     41  C   UNL A   1     -30.065  -1.377  23.573  0.00  0.00    +0.229 C 
ATOM     42  O   UNL A   1     -30.729  -1.878  24.721  0.00  0.00    -0.216 OA
ENDBRANCH  40  41
ENDBRANCH  39  40
ENDBRANCH  32  39
ENDBRANCH  27  28
BRANCH  27  46
ATOM     43  O   UNL A   1     -21.055   1.814  26.980  0.00  0.00    -0.331 OA
ATOM     44  C   UNL A   1     -22.778   1.943  25.666  0.00  0.00    +0.223 C 
ATOM     45  C   UNL A   1     -22.039   1.522  27.724  0.00  0.00    +0.216 C 
ATOM     46  C   UNL A   1     -23.193   1.518  26.949  0.00  0.00    +0.049 C 
ATOM     47  O   UNL A   1     -21.572   2.129  25.689  0.00  0.00    -0.168 OA
ENDBRANCH  27  46
ENDBRANCH   1  27
TORSDOF 16
