MODEL 1573
MODEL 1
REMARK VINA RESULT:    -7.278      0.000      0.000
REMARK INTER + INTRA:         -11.773
REMARK INTER:                 -10.256
REMARK INTRA:                  -1.517
REMARK UNBOUND:                -1.517
REMARK  Name = No_1573-gen_results/8p0m/2024-11-27-11-27-31/
REMARK  7 active torsions:
REMARK  status: ('A' for Active; 'I' for Inactive)
REMARK    1  A    between atoms: C_2  and  C_3
REMARK    2  A    between atoms: N_4  and  C_10
REMARK    3  A    between atoms: C_5  and  C_21
REMARK    4  A    between atoms: C_8  and  C_11
REMARK    5  A    between atoms: C_11  and  C_13
REMARK    6  A    between atoms: C_21  and  C_22
REMARK    7  A    between atoms: C_21  and  C_27
REMARK                            x       y       z     vdW  Elec       q    Type
REMARK                         _______ _______ _______ _____ _____    ______ ____
ROOT
ATOM      1  C   UNL A   1     -10.212   1.077  36.689  0.00  0.00    +0.052 A 
ATOM      2  C   UNL A   1      -9.087   1.559  35.970  0.00  0.00    -0.013 A 
ATOM      3  C   UNL A   1      -9.218   2.637  35.058  0.00  0.00    -0.004 A 
ATOM      4  C   UNL A   1     -10.474   2.990  34.581  0.00  0.00    -0.000 A 
ATOM      5  C   UNL A   1     -11.582   2.331  35.097  0.00  0.00    +0.003 A 
ATOM      6  C   UNL A   1     -11.515   1.412  36.100  0.00  0.00    +0.004 A 
ENDROOT
BRANCH   1   8
ATOM      7  O   UNL A   1      -9.907  -1.032  37.285  0.00  0.00    -0.268 OA
ATOM      8  C   UNL A   1     -10.146   0.048  37.607  0.00  0.00    +0.269 C 
ATOM      9  N   UNL A   1     -10.256   0.472  39.016  0.00  0.00    -0.175 NA
BRANCH   9  10
ATOM     10  C   UNL A   1     -10.113  -0.557  40.016  0.00  0.00    +0.074 A 
ATOM     11  C   UNL A   1      -9.313  -0.871  40.608  0.00  0.00    +0.017 A 
ATOM     12  C   UNL A   1      -9.250  -1.958  41.598  0.00  0.00    +0.001 A 
ATOM     13  C   UNL A   1     -10.481  -2.675  41.727  0.00  0.00    +0.000 A 
ATOM     14  C   UNL A   1     -11.560  -2.292  40.978  0.00  0.00    +0.001 A 
ATOM     15  C   UNL A   1     -11.486  -1.244  40.063  0.00  0.00    +0.017 A 
ENDBRANCH   9  10
ENDBRANCH   1   8
BRANCH   5  16
ATOM     16  C   UNL A   1     -12.925   2.595  34.483  0.00  0.00    +0.069 C 
ATOM     17  C   UNL A   1     -13.967   2.763  35.268  0.00  0.00    +0.003 C 
BRANCH  16  18
ATOM     18  C   UNL A   1     -13.204   1.751  33.242  0.00  0.00    +0.449 C 
ATOM     19  O   UNL A   1     -13.981   2.407  32.376  0.00  0.00    -0.262 OA
ATOM     20  O   UNL A   1     -12.256   1.047  32.648  0.00  0.00    -0.262 OA
ENDBRANCH  16  18
ENDBRANCH   5  16
BRANCH   2  21
ATOM     21  C   UNL A   1      -7.767   1.259  36.550  0.00  0.00    +0.054 C 
BRANCH  21  22
ATOM     22  C   UNL A   1      -6.939   0.325  35.734  0.00  0.00    -0.018 A 
ATOM     23  C   UNL A   1      -5.539   0.307  35.851  0.00  0.00    -0.004 A 
ATOM     24  C   UNL A   1      -7.622  -0.796  35.138  0.00  0.00    -0.004 A 
ATOM     25  C   UNL A   1      -6.870  -1.709  34.338  0.00  0.00    -0.000 A 
ATOM     26  C   UNL A   1      -5.455  -1.613  34.327  0.00  0.00    -0.000 A 
ATOM     27  C   UNL A   1      -4.799  -0.590  35.025  0.00  0.00    -0.000 A 
ENDBRANCH  21  22
BRANCH  21  28
ATOM     28  C   UNL A   1      -7.343   1.818  37.711  0.00  0.00    +0.073 C 
ATOM     29  C   UNL A   1      -7.070   3.010  37.803  0.00  0.00    +0.077 C 
ATOM     30  N   UNL A   1      -6.788   3.503  39.084  0.00  0.00    -0.247 NA
ATOM     31  C   UNL A   1      -6.844   1.153  38.759  0.00  0.00    +0.001 C 
ATOM     32  C   UNL A   1      -6.735   2.274  39.720  0.00  0.00    +0.094 C 
ENDBRANCH  21  28
ENDBRANCH   2  21
TORSDOF 7
ENDMDL
ENDMDL
