MODEL 1574
MODEL 1
REMARK VINA RESULT:    -5.465      0.000      0.000
REMARK INTER + INTRA:          -5.465
REMARK INTER:                  -5.465
REMARK INTRA:                   0.000
REMARK UNBOUND:                 0.000
REMARK  Name = No_1574-gen_results/8p0m/2024-11-27-11-27-31/
REMARK  0 active torsions:
REMARK  status: ('A' for Active; 'I' for Inactive)
REMARK                            x       y       z     vdW  Elec       q    Type
REMARK                         _______ _______ _______ _____ _____    ______ ____
ROOT
ATOM      1  C   UNL A   1     -23.976  -4.354  28.687  0.00  0.00    +0.037 A 
ATOM      2  C   UNL A   1     -24.064  -3.194  29.017  0.00  0.00    +0.142 A 
ATOM      3  C   UNL A   1     -25.160  -2.656  29.609  0.00  0.00    +0.017 A 
ATOM      4  C   UNL A   1     -26.266  -3.492  29.855  0.00  0.00    -0.001 A 
ATOM      5  C   UNL A   1     -25.030  -5.287  28.994  0.00  0.00    +0.003 A 
ATOM      6  C   UNL A   1     -26.165  -4.790  29.562  0.00  0.00    -0.000 A 
ATOM      7  O   UNL A   1     -23.006  -2.299  28.826  0.00  0.00    -0.451 OA
ATOM      8  C   UNL A   1     -23.103  -0.936  28.883  0.00  0.00    +0.175 C 
ATOM      9  C   UNL A   1     -24.092  -0.298  29.345  0.00  0.00    +0.019 C 
ATOM     10  C   UNL A   1     -25.265  -1.218  29.694  0.00  0.00    +0.059 C 
ENDROOT
TORSDOF 0
ENDMDL
ENDMDL
