MODEL 1575
MODEL 1
REMARK VINA RESULT:    -4.288      0.000      0.000
REMARK INTER + INTRA:          -4.288
REMARK INTER:                  -4.288
REMARK INTRA:                   0.000
REMARK UNBOUND:                 0.000
REMARK  Name = No_1575-gen_results/8p0m/2024-11-27-11-27-31/
REMARK  0 active torsions:
REMARK  status: ('A' for Active; 'I' for Inactive)
REMARK                            x       y       z     vdW  Elec       q    Type
REMARK                         _______ _______ _______ _____ _____    ______ ____
ROOT
ATOM      1  C   UNL A   1     -24.978  -5.338  28.988  0.00  0.00    +0.000 A 
ATOM      2  C   UNL A   1     -24.189  -4.682  28.746  0.00  0.00    +0.000 A 
ATOM      3  C   UNL A   1     -26.122  -4.672  29.610  0.00  0.00    +0.000 A 
ATOM      4  C   UNL A   1     -26.149  -3.317  29.827  0.00  0.00    +0.000 A 
ATOM      5  C   UNL A   1     -23.946  -3.244  28.852  0.00  0.00    +0.000 A 
ATOM      6  C   UNL A   1     -25.049  -2.590  29.452  0.00  0.00    +0.000 A 
ENDROOT
TORSDOF 0
ENDMDL
ENDMDL
