MODEL 1576
MODEL 1
REMARK VINA RESULT:    -7.024      0.000      0.000
REMARK INTER + INTRA:          -8.951
REMARK INTER:                  -8.256
REMARK INTRA:                  -0.695
REMARK UNBOUND:                -0.695
REMARK  Name = No_1576-gen_results/8p0m/2024-11-27-11-27-31/
REMARK  3 active torsions:
REMARK  status: ('A' for Active; 'I' for Inactive)
REMARK    1  A    between atoms: C_3  and  C_4
REMARK    2  A    between atoms: C_6  and  C_13
REMARK    3  A    between atoms: N_15  and  C_16
REMARK                            x       y       z     vdW  Elec       q    Type
REMARK                         _______ _______ _______ _____ _____    ______ ____
ROOT
ATOM      1  C   UNL A   1     -27.944   2.029  24.270  0.00  0.00    +0.005 A 
ATOM      2  C   UNL A   1     -28.965   2.317  23.689  0.00  0.00    +0.000 A 
ATOM      3  C   UNL A   1     -29.861   1.335  23.281  0.00  0.00    +0.000 A 
ATOM      4  C   UNL A   1     -27.537   0.620  24.391  0.00  0.00    +0.055 A 
ATOM      5  C   UNL A   1     -28.374  -0.413  24.090  0.00  0.00    +0.005 A 
ATOM      6  C   UNL A   1     -29.602  -0.111  23.457  0.00  0.00    +0.000 A 
ENDROOT
BRANCH   3   7
ATOM      7  C   UNL A   1     -31.142   1.560  22.551  0.00  0.00    +0.000 A 
ATOM      8  C   UNL A   1     -31.401   2.639  21.636  0.00  0.00    +0.000 A 
ATOM      9  C   UNL A   1     -32.608   2.677  20.982  0.00  0.00    +0.000 A 
ATOM     10  C   UNL A   1     -33.560   1.710  20.934  0.00  0.00    +0.000 A 
ATOM     11  C   UNL A   1     -32.154   0.511  22.530  0.00  0.00    +0.000 A 
ATOM     12  C   UNL A   1     -33.316   0.631  21.742  0.00  0.00    +0.000 A 
ENDBRANCH   3   7
BRANCH   4  13
ATOM     13  C   UNL A   1     -26.232   0.223  25.024  0.00  0.00    +0.269 C 
ATOM     14  O   UNL A   1     -25.740  -0.842  24.747  0.00  0.00    -0.268 OA
ATOM     15  N   UNL A   1     -25.649   1.065  25.865  0.00  0.00    -0.175 NA
BRANCH  15  16
ATOM     16  C   UNL A   1     -24.679   0.991  26.530  0.00  0.00    +0.074 A 
ATOM     17  C   UNL A   1     -24.237   0.535  27.386  0.00  0.00    +0.017 A 
ATOM     18  C   UNL A   1     -22.928   0.614  28.073  0.00  0.00    +0.001 A 
ATOM     19  C   UNL A   1     -22.052   1.481  27.421  0.00  0.00    +0.000 A 
ATOM     20  C   UNL A   1     -22.407   2.156  26.292  0.00  0.00    +0.001 A 
ATOM     21  C   UNL A   1     -23.626   2.046  25.818  0.00  0.00    +0.017 A 
ENDBRANCH  15  16
ENDBRANCH   4  13
TORSDOF 3
ENDMDL
ENDMDL
