REMARK  Name = No_1576-gen_results/8p0m/2024-11-27-11-27-31/
REMARK  3 active torsions:
REMARK  status: ('A' for Active; 'I' for Inactive)
REMARK    1  A    between atoms: C_3  and  C_4
REMARK    2  A    between atoms: C_6  and  C_13
REMARK    3  A    between atoms: N_15  and  C_16
REMARK                            x       y       z     vdW  Elec       q    Type
REMARK                         _______ _______ _______ _____ _____    ______ ____
ROOT
ATOM      1  C   UNL A   1     -28.016  -0.814  28.878  0.00  0.00    +0.005 A 
ATOM      2  C   UNL A   1     -27.064  -0.119  28.608  0.00  0.00    +0.000 A 
ATOM      3  C   UNL A   1     -25.792  -0.430  29.076  0.00  0.00    +0.000 A 
ATOM      4  C   UNL A   1     -27.882  -1.899  29.863  0.00  0.00    +0.055 A 
ATOM      5  C   UNL A   1     -26.671  -2.327  30.321  0.00  0.00    +0.005 A 
ATOM      6  C   UNL A   1     -25.526  -1.569  29.982  0.00  0.00    +0.000 A 
ENDROOT
BRANCH   3   7
ATOM      7  C   UNL A   1     -24.546   0.349  28.823  0.00  0.00    +0.000 A 
ATOM      8  C   UNL A   1     -23.241   0.022  29.332  0.00  0.00    +0.000 A 
ATOM      9  C   UNL A   1     -22.170   0.796  28.955  0.00  0.00    +0.000 A 
ATOM     10  C   UNL A   1     -22.132   1.752  27.992  0.00  0.00    +0.000 A 
ATOM     11  C   UNL A   1     -24.537   1.382  27.794  0.00  0.00    +0.000 A 
ATOM     12  C   UNL A   1     -23.347   2.045  27.432  0.00  0.00    +0.000 A 
ENDBRANCH   3   7
BRANCH   4  13
ATOM     13  C   UNL A   1     -29.059  -2.728  30.296  0.00  0.00    +0.269 C 
ATOM     14  O   UNL A   1     -28.965  -3.930  30.306  0.00  0.00    -0.268 OA
ATOM     15  N   UNL A   1     -30.171  -2.111  30.669  0.00  0.00    -0.175 NA
BRANCH  15  16
ATOM     16  C   UNL A   1     -31.234  -2.501  30.992  0.00  0.00    +0.074 A 
ATOM     17  C   UNL A   1     -32.257  -2.238  31.137  0.00  0.00    +0.017 A 
ATOM     18  C   UNL A   1     -33.480  -2.939  31.589  0.00  0.00    +0.001 A 
ATOM     19  C   UNL A   1     -33.232  -4.282  31.870  0.00  0.00    +0.000 A 
ATOM     20  C   UNL A   1     -31.994  -4.835  31.735  0.00  0.00    +0.001 A 
ATOM     21  C   UNL A   1     -30.976  -4.085  31.384  0.00  0.00    +0.017 A 
ENDBRANCH  15  16
ENDBRANCH   4  13
TORSDOF 3
