MODEL 1577
MODEL 1
REMARK VINA RESULT:    -7.238      0.000      0.000
REMARK INTER + INTRA:         -10.014
REMARK INTER:                  -8.931
REMARK INTRA:                  -1.083
REMARK UNBOUND:                -1.083
REMARK  Name = No_1577-gen_results/8p0m/2024-11-27-11-27-31/
REMARK  4 active torsions:
REMARK  status: ('A' for Active; 'I' for Inactive)
REMARK    1  A    between atoms: C_4  and  C_8
REMARK    2  A    between atoms: C_6  and  C_16
REMARK    3  A    between atoms: C_8  and  C_9
REMARK    4  A    between atoms: C_9  and  C_10
REMARK                            x       y       z     vdW  Elec       q    Type
REMARK                         _______ _______ _______ _____ _____    ______ ____
ROOT
ATOM      1  O   UNL A   1     -14.397   3.250  37.306  0.00  0.00    -0.296 OA
ATOM      2  C   UNL A   1     -13.417   2.724  36.767  0.00  0.00    +0.151 C 
ATOM      3  C   UNL A   1     -12.434   2.229  37.060  0.00  0.00    +0.065 C 
ATOM      4  C   UNL A   1     -11.455   1.412  36.247  0.00  0.00    +0.008 C 
ATOM      5  C   UNL A   1     -11.752   1.340  34.914  0.00  0.00    +0.012 C 
ATOM      6  C   UNL A   1     -12.914   1.898  34.462  0.00  0.00    +0.111 C 
ATOM      7  C   UNL A   1     -13.712   2.564  35.193  0.00  0.00    +0.076 C 
ENDROOT
BRANCH   6   8
ATOM      8  C   UNL A   1     -13.238   1.805  32.950  0.00  0.00    +0.365 C 
ATOM      9  O   UNL A   1     -12.580   1.094  32.284  0.00  0.00    -0.246 OA
ATOM     10  O   UNL A   1     -14.108   2.682  32.491  0.00  0.00    -0.246 OA
ENDBRANCH   6   8
BRANCH   4  11
ATOM     11  C   UNL A   1     -10.201   0.842  36.742  0.00  0.00    +0.004 C 
ATOM     12  C   UNL A   1      -9.071   0.772  35.841  0.00  0.00    +0.000 C 
BRANCH  11  13
ATOM     13  C   UNL A   1     -10.099   0.485  38.086  0.00  0.00    +0.022 C 
ATOM     14  C   UNL A   1      -9.178   1.154  38.981  0.00  0.00    +0.005 C 
BRANCH  13  15
ATOM     15  C   UNL A   1     -10.740  -0.664  38.562  0.00  0.00    -0.022 A 
ATOM     16  C   UNL A   1     -11.401  -0.634  39.698  0.00  0.00    -0.004 A 
ATOM     17  C   UNL A   1     -12.280  -1.778  39.991  0.00  0.00    -0.000 A 
ATOM     18  C   UNL A   1     -12.409  -2.859  39.047  0.00  0.00    -0.000 A 
ATOM     19  C   UNL A   1     -11.812  -2.766  37.806  0.00  0.00    -0.000 A 
ATOM     20  C   UNL A   1     -11.002  -1.707  37.508  0.00  0.00    -0.004 A 
ENDBRANCH  13  15
ENDBRANCH  11  13
ENDBRANCH   4  11
TORSDOF 4
ENDMDL
ENDMDL
