REMARK  Name = outputs/IAG933/test6/raw/output_1580_IAG933_linker_design_.xyz
REMARK  15 active torsions:
REMARK  status: ('A' for Active; 'I' for Inactive)
REMARK    1  A    between atoms: C_1  and  C_2
REMARK    2  A    between atoms: C_1  and  C_8
REMARK    3  A    between atoms: C_1  and  C_31
REMARK    4  A    between atoms: C_13  and  C_35
REMARK    5  A    between atoms: C_14  and  C_15
REMARK    6  A    between atoms: C_21  and  O_22
REMARK    7  A    between atoms: O_22  and  C_23
REMARK    8  A    between atoms: C_23  and  C_24
REMARK    9  A    between atoms: C_29  and  O_46
REMARK   10  A    between atoms: N_30  and  C_33
REMARK   11  A    between atoms: N_30  and  C_39
REMARK   12  A    between atoms: C_31  and  C_42
REMARK   13  A    between atoms: C_31  and  C_44
REMARK   14  A    between atoms: C_32  and  C_33
REMARK   15  A    between atoms: C_39  and  C_44
REMARK                            x       y       z     vdW  Elec       q    Type
REMARK                         _______ _______ _______ _____ _____    ______ ____
ROOT
ATOM      1  C   UNL A   1     -23.447   1.304  26.694  0.00  0.00    +0.170 C 
ATOM      2  C   UNL A   1     -22.503   1.165  27.603  0.00  0.00    +0.217 C 
ATOM      3  C   UNL A   1     -24.715   1.272  27.253  0.00  0.00    +0.004 C 
ATOM      4  O   UNL A   1     -21.264   1.752  27.639  0.00  0.00    -0.217 OA
ATOM      5  O   UNL A   1     -22.709   0.597  29.998  0.00  0.00    -0.216 OA
ATOM      6  C   UNL A   1     -24.572   0.470  28.408  0.00  0.00    -0.013 C 
ATOM      7  C   UNL A   1     -23.105   0.340  28.588  0.00  0.00    +0.203 C 
ENDROOT
BRANCH   3   8
ATOM      8  C   UNL A   1     -25.688   1.614  26.461  0.00  0.00    +0.036 C 
ATOM      9  C   UNL A   1     -26.250   2.920  26.395  0.00  0.00    +0.076 C 
ATOM     10  C   UNL A   1     -27.438   3.091  25.645  0.00  0.00    +0.107 C 
ATOM     11  N   UNL A   1     -28.075   2.089  25.003  0.00  0.00    -0.208 NA
ATOM     12  C   UNL A   1     -27.543   0.849  25.079  0.00  0.00    +0.253 C 
ATOM     13  C   UNL A   1     -26.354   0.576  25.777  0.00  0.00    +0.193 C 
ATOM     14  F   UNL A   1     -25.860  -0.681  25.795  0.00  0.00    -0.199 F 
BRANCH   9  15
ATOM     15  C   UNL A   1     -25.642   4.093  27.123  0.00  0.00    +0.266 C 
ATOM     16  N   UNL A   1     -25.614   5.252  26.449  0.00  0.00    -0.200 NA
ATOM     17  C   UNL A   1     -25.026   6.479  26.963  0.00  0.00    +0.139 C 
ATOM     18  O   UNL A   1     -25.143   3.966  28.243  0.00  0.00    -0.268 OA
ENDBRANCH   9  15
BRANCH  12  19
ATOM     19  O   UNL A   1     -28.193  -0.208  24.477  0.00  0.00    -0.456 OA
BRANCH  19  20
ATOM     20  C   UNL A   1     -29.460   0.005  23.866  0.00  0.00    +0.243 C 
BRANCH  20  21
ATOM     21  C   UNL A   1     -30.065  -1.377  23.573  0.00  0.00    +0.229 C 
ATOM     22  O   UNL A   1     -30.729  -1.878  24.721  0.00  0.00    -0.216 OA
ENDBRANCH  20  21
ENDBRANCH  19  20
ENDBRANCH  12  19
ENDBRANCH   3   8
BRANCH   1  24
ATOM     23  C   UNL A   1     -22.563   2.457  24.769  0.00  0.00    +0.175 C 
ATOM     24  O   UNL A   1     -23.441   1.446  25.232  0.00  0.00    -0.346 OA
ENDBRANCH   1  24
BRANCH   6  25
ATOM     25  C   UNL A   1     -25.606  -0.223  29.175  0.00  0.00    +0.027 C 
BRANCH  25  26
ATOM     26  C   UNL A   1     -24.855  -1.012  30.143  0.00  0.00    +0.042 C 
BRANCH  26  27
ATOM     27  C   UNL A   1     -24.973  -2.505  29.788  0.00  0.00    -0.021 C 
ATOM     28  C   UNL A   1     -23.906  -3.173  29.146  0.00  0.00    -0.004 C 
ATOM     29  C   UNL A   1     -23.989  -4.549  28.853  0.00  0.00    -0.000 C 
ATOM     30  C   UNL A   1     -25.137  -5.280  29.205  0.00  0.00    -0.000 C 
ATOM     31  C   UNL A   1     -26.232  -4.611  29.784  0.00  0.00    -0.000 C 
ATOM     32  C   UNL A   1     -26.155  -3.232  30.065  0.00  0.00    -0.004 C 
ENDBRANCH  26  27
BRANCH  26  33
ATOM     33  C   UNL A   1     -25.387  -0.679  31.571  0.00  0.00    +0.077 C 
ATOM     34  C   UNL A   1     -25.189   0.773  32.028  0.00  0.00    +0.019 C 
ATOM     35  C   UNL A   1     -25.336   0.684  33.544  0.00  0.00    +0.020 C 
ATOM     36  C   UNL A   1     -24.829  -0.715  33.905  0.00  0.00    +0.089 C 
ATOM     37  N   UNL A   1     -24.758  -1.481  32.646  0.00  0.00    -0.219 NA
ENDBRANCH  26  33
ENDBRANCH  25  26
BRANCH  25  38
ATOM     38  C   UNL A   1     -27.072  -0.313  29.383  0.00  0.00    +0.023 C 
BRANCH  38  39
ATOM     39  C   UNL A   1     -28.151   0.689  29.388  0.00  0.00    +0.089 C 
BRANCH  39  40
ATOM     40  N   UNL A   1     -27.679   1.867  29.605  0.00  0.00    -0.211 NA
BRANCH  40  41
ATOM     41  C   UNL A   1     -28.579   2.462  30.402  0.00  0.00    +0.168 C 
ATOM     42  C   UNL A   1     -29.336   1.654  31.262  0.00  0.00    +0.028 C 
BRANCH  41  43
ATOM     43  C   UNL A   1     -28.302   3.814  30.731  0.00  0.00    +0.412 C 
ATOM     44  F   UNL A   1     -29.014   4.221  31.659  0.00  0.00    -0.169 F 
ATOM     45  F   UNL A   1     -27.044   3.972  30.999  0.00  0.00    -0.169 F 
ATOM     46  F   UNL A   1     -28.570   4.506  29.702  0.00  0.00    -0.169 F 
ENDBRANCH  41  43
ENDBRANCH  40  41
ENDBRANCH  39  40
ENDBRANCH  38  39
ENDBRANCH  25  38
ENDBRANCH   6  25
TORSDOF 15
