REMARK  Name = No_1581-gen_results/8p0m/2024-11-27-11-27-31/
REMARK  3 active torsions:
REMARK  status: ('A' for Active; 'I' for Inactive)
REMARK    1  A    between atoms: C_4  and  C_7
REMARK    2  A    between atoms: C_16  and  C_27
REMARK    3  A    between atoms: C_26  and  C_33
REMARK                            x       y       z     vdW  Elec       q    Type
REMARK                         _______ _______ _______ _____ _____    ______ ____
ROOT
ATOM      1  C   UNL A   1     -28.016  -0.814  28.878  0.00  0.00    +0.004 A 
ATOM      2  C   UNL A   1     -28.469  -0.785  29.829  0.00  0.00    +0.050 A 
ATOM      3  C   UNL A   1     -26.546  -0.876  28.850  0.00  0.00    +0.000 A 
ATOM      4  C   UNL A   1     -25.804  -1.032  30.057  0.00  0.00    -0.000 A 
ATOM      5  C   UNL A   1     -27.944  -0.987  31.207  0.00  0.00    -0.016 A 
ATOM      6  C   UNL A   1     -26.582  -1.039  31.223  0.00  0.00    -0.004 A 
ATOM      7  C   UNL A   1     -30.083  -0.676  29.875  0.00  0.00    +0.249 C 
ATOM      8  O   UNL A   1     -30.510  -0.173  28.939  0.00  0.00    -0.270 OA
ATOM      9  N   UNL A   1     -30.796  -1.134  30.931  0.00  0.00    -0.276 N 
ATOM     10  C   UNL A   1     -30.397  -1.741  32.091  0.00  0.00    +0.084 C 
ATOM     11  C   UNL A   1     -28.937  -1.529  32.359  0.00  0.00    +0.049 C 
ATOM     12  C   UNL A   1     -32.279  -1.101  30.734  0.00  0.00    +0.084 C 
ATOM     13  C   UNL A   1     -33.006  -1.699  31.675  0.00  0.00    +0.045 C 
ATOM     14  C   UNL A   1     -34.048  -2.427  31.237  0.00  0.00    -0.025 C 
ATOM     15  C   UNL A   1     -34.438  -2.267  29.989  0.00  0.00    -0.005 C 
ATOM     16  C   UNL A   1     -33.653  -1.715  28.968  0.00  0.00    -0.005 C 
ATOM     17  C   UNL A   1     -32.791  -0.114  29.895  0.00  0.00    +0.046 C 
ATOM     18  C   UNL A   1     -33.136  -0.602  28.829  0.00  0.00    -0.024 C 
ATOM     19  C   UNL A   1     -31.120  -1.168  33.345  0.00  0.00    +0.028 C 
ATOM     20  C   UNL A   1     -32.785  -1.272  32.901  0.00  0.00    +0.029 C 
ENDROOT
BRANCH   4  21
ATOM     21  C   UNL A   1     -24.381  -1.108  30.085  0.00  0.00    -0.000 A 
ATOM     22  C   UNL A   1     -23.759  -1.132  30.896  0.00  0.00    -0.000 A 
ATOM     23  C   UNL A   1     -22.239  -1.066  30.985  0.00  0.00    -0.000 A 
ATOM     24  C   UNL A   1     -21.685  -0.865  29.765  0.00  0.00    +0.000 A 
ATOM     25  C   UNL A   1     -22.421  -0.728  28.582  0.00  0.00    -0.000 A 
ATOM     26  C   UNL A   1     -23.852  -0.859  28.716  0.00  0.00    -0.000 A 
ENDBRANCH   4  21
BRANCH  10  27
ATOM     27  C   UNL A   1     -30.425  -3.256  31.967  0.00  0.00    -0.006 A 
ATOM     28  C   UNL A   1     -30.836  -4.105  32.613  0.00  0.00    -0.003 A 
ATOM     29  C   UNL A   1     -30.695  -5.497  32.380  0.00  0.00    -0.000 A 
ATOM     30  C   UNL A   1     -30.050  -5.860  31.179  0.00  0.00    -0.000 A 
ATOM     31  C   UNL A   1     -29.516  -4.901  30.341  0.00  0.00    -0.000 A 
ATOM     32  C   UNL A   1     -29.636  -3.596  30.754  0.00  0.00    -0.003 A 
ENDBRANCH  10  27
BRANCH  20  33
ATOM     33  C   UNL A   1     -33.682  -1.031  34.013  0.00  0.00    -0.031 C 
ATOM     34  C   UNL A   1     -34.038  -0.190  34.474  0.00  0.00    -0.030 C 
ATOM     35  C   UNL A   1     -35.052  -0.086  35.545  0.00  0.00    +0.030 C 
ENDBRANCH  20  33
TORSDOF 3
