MODEL 1582
MODEL 1
REMARK VINA RESULT:    -7.684      0.000      0.000
REMARK INTER + INTRA:         -12.870
REMARK INTER:                 -10.379
REMARK INTRA:                  -2.491
REMARK UNBOUND:                -2.491
REMARK  Name = No_1582-gen_results/8p0m/2024-11-27-11-27-31/
REMARK  6 active torsions:
REMARK  status: ('A' for Active; 'I' for Inactive)
REMARK    1  A    between atoms: C_3  and  C_7
REMARK    2  A    between atoms: C_7  and  C_8
REMARK    3  A    between atoms: C_7  and  C_17
REMARK    4  A    between atoms: C_8  and  C_9
REMARK    5  A    between atoms: C_9  and  C_10
REMARK    6  A    between atoms: C_9  and  C_16
REMARK                            x       y       z     vdW  Elec       q    Type
REMARK                         _______ _______ _______ _____ _____    ______ ____
ROOT
ATOM      1  C   UNL A   1     -25.574  -1.182  29.223  0.00  0.00    +0.045 C 
ENDROOT
BRANCH   1   2
ATOM      2  C   UNL A   1     -26.002  -0.396  28.134  0.00  0.00    -0.018 A 
ATOM      3  C   UNL A   1     -25.355  -0.519  26.886  0.00  0.00    -0.004 A 
ATOM      4  C   UNL A   1     -25.926   0.308  25.841  0.00  0.00    -0.000 A 
ATOM      5  C   UNL A   1     -27.178   0.900  26.028  0.00  0.00    -0.000 A 
ATOM      6  C   UNL A   1     -27.896   0.772  27.198  0.00  0.00    -0.000 A 
ATOM      7  C   UNL A   1     -27.346   0.093  28.222  0.00  0.00    -0.004 A 
ENDBRANCH   1   2
BRANCH   1   8
ATOM      8  C   UNL A   1     -25.420  -2.619  29.062  0.00  0.00    -0.018 A 
ATOM      9  C   UNL A   1     -24.226  -3.094  28.788  0.00  0.00    -0.004 A 
ATOM     10  C   UNL A   1     -23.986  -4.491  28.558  0.00  0.00    -0.000 A 
ATOM     11  C   UNL A   1     -26.334  -3.506  29.720  0.00  0.00    -0.004 A 
ATOM     12  C   UNL A   1     -24.936  -5.366  29.093  0.00  0.00    -0.000 A 
ATOM     13  C   UNL A   1     -26.114  -4.889  29.623  0.00  0.00    -0.000 A 
ENDBRANCH   1   8
BRANCH   1  14
ATOM     14  C   UNL A   1     -25.019  -0.571  30.348  0.00  0.00    +0.022 C 
BRANCH  14  15
ATOM     15  C   UNL A   1     -24.265   0.648  30.235  0.00  0.00    +0.101 C 
BRANCH  15  18
ATOM     16  C   UNL A   1     -22.008  -0.363  29.646  0.00  0.00    -0.004 A 
ATOM     17  C   UNL A   1     -21.208  -0.372  28.960  0.00  0.00    -0.000 A 
ATOM     18  C   UNL A   1     -23.026   0.651  29.344  0.00  0.00    -0.014 A 
ATOM     19  C   UNL A   1     -22.852   1.582  28.405  0.00  0.00    -0.004 A 
ATOM     20  C   UNL A   1     -20.802   0.523  27.905  0.00  0.00    -0.000 A 
ATOM     21  C   UNL A   1     -21.748   1.473  27.655  0.00  0.00    -0.000 A 
ENDBRANCH  15  18
BRANCH  15  22
ATOM     22  C   UNL A   1     -24.642   1.799  30.902  0.00  0.00    +0.245 C 
ATOM     23  O   UNL A   1     -23.869   2.507  31.376  0.00  0.00    -0.273 OA
ATOM     24  N   UNL A   1     -25.937   1.894  31.363  0.00  0.00    -0.203 NA
ATOM     25  C   UNL A   1     -26.419   3.018  32.151  0.00  0.00    +0.139 C 
ENDBRANCH  15  22
ENDBRANCH  14  15
ENDBRANCH   1  14
TORSDOF 6
ENDMDL
ENDMDL
