MODEL 1583
MODEL 1
REMARK VINA RESULT:    -5.925      0.000      0.000
REMARK INTER + INTRA:          -6.850
REMARK INTER:                  -6.617
REMARK INTRA:                  -0.232
REMARK UNBOUND:                -0.232
REMARK  Name = No_1583-gen_results/8p0m/2024-11-27-11-27-31/
REMARK  2 active torsions:
REMARK  status: ('A' for Active; 'I' for Inactive)
REMARK    1  A    between atoms: C_2  and  C_10
REMARK    2  A    between atoms: C_5  and  C_7
REMARK                            x       y       z     vdW  Elec       q    Type
REMARK                         _______ _______ _______ _____ _____    ______ ____
ROOT
ATOM      1  C   UNL A   1     -29.681 -10.149  31.359  0.00  0.00    +0.004 A 
ATOM      2  C   UNL A   1     -29.486 -10.947  30.472  0.00  0.00    +0.071 A 
ATOM      3  C   UNL A   1     -28.552 -11.968  30.508  0.00  0.00    +0.004 A 
ATOM      4  C   UNL A   1     -27.784 -12.101  31.702  0.00  0.00    +0.006 A 
ATOM      5  C   UNL A   1     -28.130 -11.293  32.725  0.00  0.00    +0.080 A 
ATOM      6  C   UNL A   1     -29.112 -10.396  32.611  0.00  0.00    +0.006 A 
ENDROOT
BRANCH   2   7
ATOM      7  C   UNL A   1     -30.212 -10.790  29.063  0.00  0.00    +0.419 C 
ATOM      8  F   UNL A   1     -30.516  -9.611  28.805  0.00  0.00    -0.166 F 
ATOM      9  F   UNL A   1     -29.361 -11.165  28.055  0.00  0.00    -0.166 F 
ATOM     10  F   UNL A   1     -31.239 -11.604  28.977  0.00  0.00    -0.166 F 
ENDBRANCH   2   7
BRANCH   5  11
ATOM     11  C   UNL A   1     -27.200 -11.589  33.891  0.00  0.00    +0.388 C 
ATOM     12  O   UNL A   1     -26.809 -12.644  33.938  0.00  0.00    -0.241 OA
ATOM     13  O   UNL A   1     -26.881 -10.726  34.785  0.00  0.00    -0.241 OA
ENDBRANCH   5  11
TORSDOF 2
ENDMDL
ENDMDL
