REMARK  Name = outputs/IAG933/test6/raw/output_1584_IAG933_linker_design_.xyz
REMARK  12 active torsions:
REMARK  status: ('A' for Active; 'I' for Inactive)
REMARK    1  A    between atoms: C_1  and  C_2
REMARK    2  A    between atoms: C_1  and  C_8
REMARK    3  A    between atoms: C_1  and  S_38
REMARK    4  A    between atoms: C_13  and  C_39
REMARK    5  A    between atoms: C_14  and  C_15
REMARK    6  A    between atoms: C_21  and  O_22
REMARK    7  A    between atoms: O_22  and  C_23
REMARK    8  A    between atoms: C_23  and  C_24
REMARK    9  A    between atoms: C_31  and  N_41
REMARK   10  A    between atoms: C_33  and  S_38
REMARK   11  A    between atoms: C_37  and  S_38
REMARK   12  A    between atoms: C_37  and  C_40
REMARK                            x       y       z     vdW  Elec       q    Type
REMARK                         _______ _______ _______ _____ _____    ______ ____
ROOT
ATOM      1  C   UNL A   1     -23.224   1.542  26.800  0.00  0.00    +0.155 C 
ATOM      2  O   UNL A   1     -22.517   0.142  29.735  0.00  0.00    -0.291 OA
ATOM      3  C   UNL A   1     -22.322   1.093  27.555  0.00  0.00    +0.268 C 
ATOM      4  C   UNL A   1     -24.511   0.438  28.222  0.00  0.00    +0.125 C 
ATOM      5  F   UNL A   1     -22.887   2.224  25.614  0.00  0.00    -0.206 F 
ATOM      6  C   UNL A   1     -22.966   0.470  28.631  0.00  0.00    +0.203 C 
ATOM      7  C   UNL A   1     -24.434   1.210  27.212  0.00  0.00    +0.023 C 
ATOM      8  F   UNL A   1     -21.007   1.420  27.624  0.00  0.00    -0.222 F 
ENDROOT
BRANCH   7   9
ATOM      9  C   UNL A   1     -25.688   1.614  26.461  0.00  0.00    +0.037 C 
ATOM     10  C   UNL A   1     -26.250   2.920  26.395  0.00  0.00    +0.076 C 
ATOM     11  C   UNL A   1     -27.438   3.091  25.645  0.00  0.00    +0.107 C 
ATOM     12  N   UNL A   1     -28.075   2.089  25.003  0.00  0.00    -0.208 NA
ATOM     13  C   UNL A   1     -27.543   0.849  25.079  0.00  0.00    +0.253 C 
ATOM     14  C   UNL A   1     -26.354   0.576  25.777  0.00  0.00    +0.193 C 
ATOM     15  F   UNL A   1     -25.860  -0.681  25.795  0.00  0.00    -0.199 F 
BRANCH  10  16
ATOM     16  C   UNL A   1     -25.642   4.093  27.123  0.00  0.00    +0.266 C 
ATOM     17  N   UNL A   1     -25.614   5.252  26.449  0.00  0.00    -0.200 NA
ATOM     18  C   UNL A   1     -25.026   6.479  26.963  0.00  0.00    +0.139 C 
ATOM     19  O   UNL A   1     -25.143   3.966  28.243  0.00  0.00    -0.268 OA
ENDBRANCH  10  16
BRANCH  13  20
ATOM     20  O   UNL A   1     -28.193  -0.208  24.477  0.00  0.00    -0.456 OA
BRANCH  20  21
ATOM     21  C   UNL A   1     -29.460   0.005  23.866  0.00  0.00    +0.243 C 
BRANCH  21  22
ATOM     22  C   UNL A   1     -30.065  -1.377  23.573  0.00  0.00    +0.229 C 
ATOM     23  O   UNL A   1     -30.729  -1.878  24.721  0.00  0.00    -0.216 OA
ENDBRANCH  21  22
ENDBRANCH  20  21
ENDBRANCH  13  20
ENDBRANCH   7   9
BRANCH   4  24
ATOM     24  S   UNL A   1     -26.020  -0.256  28.899  0.00  0.00    -0.156 S 
BRANCH  24  25
ATOM     25  C   UNL A   1     -24.855  -1.012  30.143  0.00  0.00    +0.078 C 
BRANCH  25  26
ATOM     26  C   UNL A   1     -24.973  -2.505  29.788  0.00  0.00    -0.012 C 
ATOM     27  C   UNL A   1     -23.906  -3.173  29.146  0.00  0.00    -0.003 C 
ATOM     28  C   UNL A   1     -23.989  -4.549  28.853  0.00  0.00    -0.000 C 
ATOM     29  C   UNL A   1     -25.137  -5.280  29.205  0.00  0.00    -0.000 C 
ATOM     30  C   UNL A   1     -26.232  -4.611  29.784  0.00  0.00    -0.000 C 
ATOM     31  C   UNL A   1     -26.155  -3.232  30.065  0.00  0.00    -0.003 C 
ENDBRANCH  25  26
BRANCH  25  32
ATOM     32  C   UNL A   1     -25.387  -0.679  31.571  0.00  0.00    +0.086 C 
ATOM     33  C   UNL A   1     -25.189   0.773  32.028  0.00  0.00    +0.020 C 
ATOM     34  C   UNL A   1     -25.336   0.684  33.544  0.00  0.00    +0.020 C 
ATOM     35  C   UNL A   1     -24.829  -0.715  33.905  0.00  0.00    +0.089 C 
ATOM     36  N   UNL A   1     -24.758  -1.481  32.646  0.00  0.00    -0.218 NA
ENDBRANCH  25  32
ENDBRANCH  24  25
BRANCH  24  37
ATOM     37  C   UNL A   1     -27.243   1.228  28.873  0.00  0.00    +0.136 C 
BRANCH  37  39
ATOM     38  O   UNL A   1     -28.639   2.171  30.542  0.00  0.00    -0.272 OA
ATOM     39  C   UNL A   1     -27.723   2.426  29.783  0.00  0.00    +0.254 C 
ATOM     40  N   UNL A   1     -27.218   3.680  29.705  0.00  0.00    -0.170 NA
BRANCH  40  41
ATOM     41  C   UNL A   1     -26.644   4.284  30.897  0.00  0.00    +0.298 C 
ATOM     42  O   UNL A   1     -25.416   4.925  30.607  0.00  0.00    -0.194 OA
ENDBRANCH  40  41
ENDBRANCH  37  39
ENDBRANCH  24  37
ENDBRANCH   4  24
TORSDOF 12
