MODEL 1584
MODEL 1
REMARK VINA RESULT:    -4.531      0.000      0.000
REMARK INTER + INTRA:          -4.531
REMARK INTER:                  -4.531
REMARK INTRA:                   0.000
REMARK UNBOUND:                 0.000
REMARK  Name = No_1584-gen_results/8p0m/2024-11-27-11-27-31/
REMARK  0 active torsions:
REMARK  status: ('A' for Active; 'I' for Inactive)
REMARK                            x       y       z     vdW  Elec       q    Type
REMARK                         _______ _______ _______ _____ _____    ______ ____
ROOT
ATOM      1  C   UNL A   1     -23.983  -4.447  28.605  0.00  0.00    +0.030 A 
ATOM      2  C   UNL A   1     -24.875  -4.957  28.839  0.00  0.00    +0.140 A 
ATOM      3  C   UNL A   1     -23.966  -2.975  28.950  0.00  0.00    +0.002 A 
ATOM      4  C   UNL A   1     -25.046  -2.421  29.670  0.00  0.00    +0.000 A 
ATOM      5  C   UNL A   1     -26.103  -4.634  29.601  0.00  0.00    +0.030 A 
ATOM      6  C   UNL A   1     -26.120  -3.289  29.941  0.00  0.00    +0.002 A 
ATOM      7  F   UNL A   1     -24.880  -6.373  28.518  0.00  0.00    -0.204 F 
ENDROOT
TORSDOF 0
ENDMDL
ENDMDL
