MODEL 1585
MODEL 1
REMARK VINA RESULT:    -4.608      0.000      0.000
REMARK INTER + INTRA:          -4.608
REMARK INTER:                  -4.608
REMARK INTRA:                   0.000
REMARK UNBOUND:                 0.000
REMARK  Name = No_1585-gen_results/8p0m/2024-11-27-11-27-31/
REMARK  0 active torsions:
REMARK  status: ('A' for Active; 'I' for Inactive)
REMARK                            x       y       z     vdW  Elec       q    Type
REMARK                         _______ _______ _______ _____ _____    ______ ____
ROOT
ATOM      1  C   UNL A   1     -24.066  -4.547  28.722  0.00  0.00    +0.042 A 
ATOM      2  C   UNL A   1     -24.985  -5.286  28.991  0.00  0.00    +0.003 A 
ATOM      3  C   UNL A   1     -26.157  -4.797  29.558  0.00  0.00    +0.000 A 
ATOM      4  C   UNL A   1     -26.295  -3.401  29.885  0.00  0.00    +0.003 A 
ATOM      5  C   UNL A   1     -25.176  -2.623  29.563  0.00  0.00    +0.042 A 
ATOM      6  C   UNL A   1     -24.085  -3.137  29.043  0.00  0.00    +0.196 A 
ATOM      7  O   UNL A   1     -23.027  -2.317  28.795  0.00  0.00    -0.287 OA
ENDROOT
TORSDOF 0
ENDMDL
ENDMDL
