REMARK  Name = outputs/IAG933/test6/raw/output_1585_IAG933_linker_design_.xyz
REMARK  15 active torsions:
REMARK  status: ('A' for Active; 'I' for Inactive)
REMARK    1  A    between atoms: C_1  and  C_2
REMARK    2  A    between atoms: C_1  and  C_8
REMARK    3  A    between atoms: C_1  and  N_36
REMARK    4  A    between atoms: C_13  and  C_42
REMARK    5  A    between atoms: C_14  and  C_15
REMARK    6  A    between atoms: C_21  and  O_22
REMARK    7  A    between atoms: O_22  and  C_23
REMARK    8  A    between atoms: C_23  and  C_24
REMARK    9  A    between atoms: C_28  and  C_33
REMARK   10  A    between atoms: C_28  and  N_36
REMARK   11  A    between atoms: C_32  and  C_35
REMARK   12  A    between atoms: C_33  and  C_41
REMARK   13  A    between atoms: C_34  and  C_35
REMARK   14  A    between atoms: C_34  and  N_36
REMARK   15  A    between atoms: C_34  and  C_42
REMARK                            x       y       z     vdW  Elec       q    Type
REMARK                         _______ _______ _______ _____ _____    ______ ____
ROOT
ATOM      1  N   UNL A   1     -25.182  -0.289  28.970  0.00  0.00    -0.268 NA
ENDROOT
BRANCH   1   2
ATOM      2  C   UNL A   1     -24.855  -1.012  30.143  0.00  0.00    +0.096 C 
BRANCH   2   3
ATOM      3  C   UNL A   1     -24.973  -2.505  29.788  0.00  0.00    -0.006 C 
ATOM      4  C   UNL A   1     -23.906  -3.173  29.146  0.00  0.00    -0.003 C 
ATOM      5  C   UNL A   1     -23.989  -4.549  28.853  0.00  0.00    -0.000 C 
ATOM      6  C   UNL A   1     -25.137  -5.280  29.205  0.00  0.00    -0.000 C 
ATOM      7  C   UNL A   1     -26.232  -4.611  29.784  0.00  0.00    -0.000 C 
ATOM      8  C   UNL A   1     -26.155  -3.232  30.065  0.00  0.00    -0.003 C 
ENDBRANCH   2   3
BRANCH   2   9
ATOM      9  C   UNL A   1     -25.387  -0.679  31.571  0.00  0.00    +0.092 C 
ATOM     10  C   UNL A   1     -25.189   0.773  32.028  0.00  0.00    +0.021 C 
ATOM     11  C   UNL A   1     -25.336   0.684  33.544  0.00  0.00    +0.020 C 
ATOM     12  C   UNL A   1     -24.829  -0.715  33.905  0.00  0.00    +0.089 C 
ATOM     13  N   UNL A   1     -24.758  -1.481  32.646  0.00  0.00    -0.218 NA
ENDBRANCH   2   9
ENDBRANCH   1   2
BRANCH   1  14
ATOM     14  C   UNL A   1     -26.441  -0.265  28.576  0.00  0.00    +0.077 C 
BRANCH  14  15
ATOM     15  C   UNL A   1     -27.726  -0.455  28.540  0.00  0.00    +0.043 C 
BRANCH  15  22
ATOM     16  C   UNL A   1     -29.164   2.596  30.277  0.00  0.00    +0.005 C 
ATOM     17  C   UNL A   1     -30.486  -1.252  29.271  0.00  0.00    +0.031 C 
ATOM     18  C   UNL A   1     -28.418   1.863  29.330  0.00  0.00    -0.007 C 
ATOM     19  C   UNL A   1     -30.413   0.702  30.923  0.00  0.00    +0.025 C 
ATOM     20  C   UNL A   1     -29.094   4.113  30.417  0.00  0.00    +0.033 C 
ATOM     21  C   UNL A   1     -29.849  -0.001  29.845  0.00  0.00    -0.024 C 
ATOM     22  C   UNL A   1     -28.673   0.480  29.205  0.00  0.00    -0.025 C 
ATOM     23  F   UNL A   1     -30.354   2.629  32.300  0.00  0.00    -0.204 F 
ATOM     24  C   UNL A   1     -30.024   1.999  31.144  0.00  0.00    +0.136 C 
ENDBRANCH  15  22
ENDBRANCH  14  15
ENDBRANCH   1  14
BRANCH   1  25
ATOM     25  C   UNL A   1     -24.113   0.193  28.023  0.00  0.00    +0.093 C 
BRANCH  25  26
ATOM     26  C   UNL A   1     -22.695   0.394  28.656  0.00  0.00    +0.167 C 
ATOM     27  O   UNL A   1     -22.600   0.093  30.063  0.00  0.00    -0.222 OA
BRANCH  26  28
ATOM     28  C   UNL A   1     -22.078   1.708  28.133  0.00  0.00    +0.034 C 
ATOM     29  C   UNL A   1     -20.643   1.396  27.709  0.00  0.00    +0.003 C 
ENDBRANCH  26  28
ENDBRANCH  25  26
BRANCH  25  30
ATOM     30  C   UNL A   1     -24.397   1.399  27.119  0.00  0.00    +0.048 C 
BRANCH  30  31
ATOM     31  C   UNL A   1     -25.688   1.614  26.461  0.00  0.00    +0.017 C 
ATOM     32  C   UNL A   1     -26.250   2.920  26.395  0.00  0.00    +0.073 C 
ATOM     33  C   UNL A   1     -27.438   3.091  25.645  0.00  0.00    +0.106 C 
ATOM     34  N   UNL A   1     -28.075   2.089  25.003  0.00  0.00    -0.208 NA
ATOM     35  C   UNL A   1     -27.543   0.849  25.079  0.00  0.00    +0.253 C 
ATOM     36  C   UNL A   1     -26.354   0.576  25.777  0.00  0.00    +0.189 C 
ATOM     37  F   UNL A   1     -25.860  -0.681  25.795  0.00  0.00    -0.200 F 
BRANCH  32  38
ATOM     38  C   UNL A   1     -25.642   4.093  27.123  0.00  0.00    +0.266 C 
ATOM     39  N   UNL A   1     -25.614   5.252  26.449  0.00  0.00    -0.200 NA
ATOM     40  C   UNL A   1     -25.026   6.479  26.963  0.00  0.00    +0.139 C 
ATOM     41  O   UNL A   1     -25.143   3.966  28.243  0.00  0.00    -0.268 OA
ENDBRANCH  32  38
BRANCH  35  42
ATOM     42  O   UNL A   1     -28.193  -0.208  24.477  0.00  0.00    -0.456 OA
BRANCH  42  43
ATOM     43  C   UNL A   1     -29.460   0.005  23.866  0.00  0.00    +0.243 C 
BRANCH  43  44
ATOM     44  C   UNL A   1     -30.065  -1.377  23.573  0.00  0.00    +0.229 C 
ATOM     45  O   UNL A   1     -30.729  -1.878  24.721  0.00  0.00    -0.216 OA
ENDBRANCH  43  44
ENDBRANCH  42  43
ENDBRANCH  35  42
ENDBRANCH  30  31
ENDBRANCH  25  30
ENDBRANCH   1  25
TORSDOF 15
