REMARK  Name = outputs/IAG933/test6/raw/output_1586_IAG933_linker_design_.xyz
REMARK  9 active torsions:
REMARK  status: ('A' for Active; 'I' for Inactive)
REMARK    1  A    between atoms: C_1  and  C_2
REMARK    2  A    between atoms: C_13  and  C_34
REMARK    3  A    between atoms: C_14  and  C_15
REMARK    4  A    between atoms: C_21  and  O_22
REMARK    5  A    between atoms: O_22  and  C_23
REMARK    6  A    between atoms: C_23  and  C_24
REMARK    7  A    between atoms: N_38  and  C_42
REMARK    8  A    between atoms: C_40  and  C_43
REMARK    9  A    between atoms: C_41  and  C_42
REMARK                            x       y       z     vdW  Elec       q    Type
REMARK                         _______ _______ _______ _____ _____    ______ ____
ROOT
ATOM      1  C   UNL A   1     -22.111   0.554  28.874  0.00  0.00    +0.126 C 
ATOM      2  F   UNL A   1     -20.243   1.821  28.131  0.00  0.00    -0.188 F 
ATOM      3  C   UNL A   1     -23.223   2.060  26.564  0.00  0.00    +0.320 C 
ATOM      4  C   UNL A   1     -24.353   1.277  26.959  0.00  0.00    +0.204 C 
ATOM      5  O   UNL A   1     -24.181   0.134  27.711  0.00  0.00    -0.472 OA
ATOM      6  O   UNL A   1     -21.947   1.966  26.752  0.00  0.00    -0.423 OA
ATOM      7  F   UNL A   1     -23.360   3.019  25.665  0.00  0.00    -0.160 F 
ATOM      8  C   UNL A   1     -23.581   0.453  28.875  0.00  0.00    +0.188 C 
ATOM      9  C   UNL A   1     -21.455   1.436  27.956  0.00  0.00    +0.332 C 
ENDROOT
BRANCH   8  17
ATOM     10  C   UNL A   1     -24.855  -1.012  30.143  0.00  0.00    +0.058 C 
ATOM     11  C   UNL A   1     -25.387  -0.679  31.571  0.00  0.00    +0.093 C 
ATOM     12  C   UNL A   1     -25.189   0.773  32.028  0.00  0.00    +0.076 C 
ATOM     13  C   UNL A   1     -25.336   0.684  33.544  0.00  0.00    +0.036 C 
ATOM     14  C   UNL A   1     -24.829  -0.715  33.905  0.00  0.00    +0.090 C 
ATOM     15  N   UNL A   1     -24.758  -1.481  32.646  0.00  0.00    -0.218 NA
ATOM     16  N   UNL A   1     -25.365   1.248  30.759  0.00  0.00    -0.267 NA
ATOM     17  C   UNL A   1     -24.699   0.520  29.891  0.00  0.00    +0.104 C 
BRANCH  10  18
ATOM     18  C   UNL A   1     -24.973  -2.505  29.788  0.00  0.00    -0.020 C 
ATOM     19  C   UNL A   1     -23.906  -3.173  29.146  0.00  0.00    -0.004 C 
ATOM     20  C   UNL A   1     -23.989  -4.549  28.853  0.00  0.00    -0.000 C 
ATOM     21  C   UNL A   1     -25.137  -5.280  29.205  0.00  0.00    -0.000 C 
ATOM     22  C   UNL A   1     -26.232  -4.611  29.784  0.00  0.00    -0.000 C 
ATOM     23  C   UNL A   1     -26.155  -3.232  30.065  0.00  0.00    -0.004 C 
ENDBRANCH  10  18
BRANCH  16  24
ATOM     24  C   UNL A   1     -25.958   2.588  30.534  0.00  0.00    +0.099 C 
BRANCH  24  29
ATOM     25  C   UNL A   1     -24.233   3.401  32.131  0.00  0.00    -0.003 C 
ATOM     26  C   UNL A   1     -26.234   4.725  31.919  0.00  0.00    -0.003 C 
ATOM     27  C   UNL A   1     -24.424   5.449  33.375  0.00  0.00    -0.000 C 
ATOM     28  C   UNL A   1     -23.662   4.365  32.961  0.00  0.00    -0.000 C 
ATOM     29  C   UNL A   1     -25.477   3.550  31.571  0.00  0.00    -0.006 C 
ATOM     30  C   UNL A   1     -25.721   5.626  32.892  0.00  0.00    -0.000 C 
ENDBRANCH  24  29
ENDBRANCH  16  24
ENDBRANCH   8  17
BRANCH   4  31
ATOM     31  C   UNL A   1     -25.688   1.614  26.461  0.00  0.00    +0.077 C 
ATOM     32  C   UNL A   1     -26.250   2.920  26.395  0.00  0.00    +0.080 C 
ATOM     33  C   UNL A   1     -27.438   3.091  25.645  0.00  0.00    +0.107 C 
ATOM     34  N   UNL A   1     -28.075   2.089  25.003  0.00  0.00    -0.208 NA
ATOM     35  C   UNL A   1     -27.543   0.849  25.079  0.00  0.00    +0.253 C 
ATOM     36  C   UNL A   1     -26.354   0.576  25.777  0.00  0.00    +0.196 C 
ATOM     37  F   UNL A   1     -25.860  -0.681  25.795  0.00  0.00    -0.199 F 
BRANCH  32  38
ATOM     38  C   UNL A   1     -25.642   4.093  27.123  0.00  0.00    +0.267 C 
ATOM     39  N   UNL A   1     -25.614   5.252  26.449  0.00  0.00    -0.200 NA
ATOM     40  C   UNL A   1     -25.026   6.479  26.963  0.00  0.00    +0.139 C 
ATOM     41  O   UNL A   1     -25.143   3.966  28.243  0.00  0.00    -0.268 OA
ENDBRANCH  32  38
BRANCH  35  42
ATOM     42  O   UNL A   1     -28.193  -0.208  24.477  0.00  0.00    -0.456 OA
BRANCH  42  43
ATOM     43  C   UNL A   1     -29.460   0.005  23.866  0.00  0.00    +0.243 C 
BRANCH  43  44
ATOM     44  C   UNL A   1     -30.065  -1.377  23.573  0.00  0.00    +0.229 C 
ATOM     45  O   UNL A   1     -30.729  -1.878  24.721  0.00  0.00    -0.216 OA
ENDBRANCH  43  44
ENDBRANCH  42  43
ENDBRANCH  35  42
ENDBRANCH   4  31
TORSDOF 9
