MODEL 1586
MODEL 1
REMARK VINA RESULT:    -5.089      0.000      0.000
REMARK INTER + INTRA:          -6.397
REMARK INTER:                  -5.982
REMARK INTRA:                  -0.416
REMARK UNBOUND:                -0.416
REMARK  Name = No_1586-gen_results/8p0m/2024-11-27-11-27-31/
REMARK  3 active torsions:
REMARK  status: ('A' for Active; 'I' for Inactive)
REMARK    1  A    between atoms: C_3  and  C_4
REMARK    2  A    between atoms: C_4  and  C_5
REMARK    3  A    between atoms: C_5  and  C_6
REMARK                            x       y       z     vdW  Elec       q    Type
REMARK                         _______ _______ _______ _____ _____    ______ ____
ROOT
ATOM      1  C   UNL A   1      -9.948  -9.671  19.469  0.00  0.00    +0.031 C 
ENDROOT
BRANCH   1   4
ATOM      2  F   UNL A   1      -8.791 -11.226  17.640  0.00  0.00    -0.172 F 
ATOM      3  C   UNL A   1      -9.535 -10.596  17.172  0.00  0.00    +0.275 C 
ATOM      4  C   UNL A   1     -10.232  -9.769  18.007  0.00  0.00    +0.034 C 
ATOM      5  F   UNL A   1      -9.797 -10.675  15.970  0.00  0.00    -0.172 F 
ENDBRANCH   1   4
BRANCH   1   6
ATOM      6  C   UNL A   1      -8.981  -8.942  20.033  0.00  0.00    +0.005 C 
BRANCH   6   7
ATOM      7  C   UNL A   1      -7.988  -9.051  20.146  0.00  0.00    +0.000 C 
ATOM      8  C   UNL A   1      -7.164 -10.018  20.877  0.00  0.00    +0.000 C 
ATOM      9  C   UNL A   1      -6.992  -7.982  19.526  0.00  0.00    +0.000 C 
ENDBRANCH   6   7
ENDBRANCH   1   6
TORSDOF 3
ENDMDL
ENDMDL
