MODEL 1587
MODEL 1
REMARK VINA RESULT:    -4.294      0.000      0.000
REMARK INTER + INTRA:          -4.294
REMARK INTER:                  -4.294
REMARK INTRA:                   0.000
REMARK UNBOUND:                 0.000
REMARK  Name = No_1587-gen_results/8p0m/2024-11-27-11-27-31/
REMARK  0 active torsions:
REMARK  status: ('A' for Active; 'I' for Inactive)
REMARK                            x       y       z     vdW  Elec       q    Type
REMARK                         _______ _______ _______ _____ _____    ______ ____
ROOT
ATOM      1  C   UNL A   1     -26.169  -4.652  29.654  0.00  0.00    +0.001 A 
ATOM      2  C   UNL A   1     -25.355  -5.202  29.273  0.00  0.00    +0.000 A 
ATOM      3  C   UNL A   1     -26.025  -3.187  29.670  0.00  0.00    +0.007 A 
ATOM      4  C   UNL A   1     -24.895  -2.563  29.065  0.00  0.00    +0.035 A 
ATOM      5  C   UNL A   1     -23.943  -3.409  28.553  0.00  0.00    +0.007 A 
ATOM      6  C   UNL A   1     -24.115  -4.748  28.588  0.00  0.00    +0.001 A 
ATOM      7 BR   UNL A   1     -24.618  -0.733  28.857  0.00  0.00    -0.049 Br
ENDROOT
TORSDOF 0
ENDMDL
ENDMDL
