MODEL 1588
MODEL 1
REMARK VINA RESULT:    -8.190      0.000      0.000
REMARK INTER + INTRA:          -9.754
REMARK INTER:                  -9.148
REMARK INTRA:                  -0.606
REMARK UNBOUND:                -0.606
REMARK  Name = No_1588-gen_results/8p0m/2024-11-27-11-27-31/
REMARK  2 active torsions:
REMARK  status: ('A' for Active; 'I' for Inactive)
REMARK    1  A    between atoms: C_4  and  C_11
REMARK    2  A    between atoms: C_17  and  C_22
REMARK                            x       y       z     vdW  Elec       q    Type
REMARK                         _______ _______ _______ _____ _____    ______ ____
ROOT
ATOM      1  C   UNL A   1     -24.704   0.836  29.957  0.00  0.00    +0.004 A 
ATOM      2  C   UNL A   1     -25.063   1.209  29.039  0.00  0.00    +0.050 A 
ATOM      3  C   UNL A   1     -24.557  -0.625  30.063  0.00  0.00    +0.000 A 
ATOM      4  C   UNL A   1     -24.759  -1.458  28.924  0.00  0.00    -0.000 A 
ATOM      5  C   UNL A   1     -25.288   0.579  27.710  0.00  0.00    -0.016 A 
ATOM      6  C   UNL A   1     -25.170  -0.778  27.770  0.00  0.00    -0.004 A 
ATOM      7  C   UNL A   1     -25.224   2.769  29.099  0.00  0.00    +0.249 C 
ATOM      8  O   UNL A   1     -25.341   3.239  30.100  0.00  0.00    -0.270 OA
ATOM      9  N   UNL A   1     -25.197   3.500  27.862  0.00  0.00    -0.277 N 
ATOM     10  C   UNL A   1     -25.327   4.914  27.928  0.00  0.00    +0.102 C 
ATOM     11  C   UNL A   1     -24.817   5.506  26.988  0.00  0.00    +0.115 C 
ATOM     12  C   UNL A   1     -24.398   4.870  25.931  0.00  0.00    +0.012 C 
ATOM     13  C   UNL A   1     -24.093   3.499  25.788  0.00  0.00    +0.021 C 
ATOM     14  C   UNL A   1     -24.471   2.850  26.833  0.00  0.00    +0.080 C 
ATOM     15  C   UNL A   1     -24.511   1.369  26.706  0.00  0.00    +0.046 C 
ENDROOT
BRANCH   4  16
ATOM     16  C   UNL A   1     -24.631  -2.885  28.969  0.00  0.00    -0.000 A 
ATOM     17  C   UNL A   1     -23.924  -3.510  28.628  0.00  0.00    -0.000 A 
ATOM     18  C   UNL A   1     -23.970  -5.044  28.507  0.00  0.00    -0.000 A 
ATOM     19  C   UNL A   1     -25.090  -5.566  29.151  0.00  0.00    +0.000 A 
ATOM     20  C   UNL A   1     -25.847  -3.568  29.588  0.00  0.00    -0.000 A 
ATOM     21  C   UNL A   1     -26.013  -4.847  29.596  0.00  0.00    -0.000 A 
ENDBRANCH   4  16
BRANCH  11  22
ATOM     22  C   UNL A   1     -25.005   7.013  26.914  0.00  0.00    +0.399 C 
ATOM     23  F   UNL A   1     -26.048   7.427  26.937  0.00  0.00    -0.170 F 
ATOM     24  F   UNL A   1     -24.177   7.572  27.876  0.00  0.00    -0.170 F 
ATOM     25  F   UNL A   1     -24.424   7.389  25.716  0.00  0.00    -0.170 F 
ENDBRANCH  11  22
TORSDOF 2
ENDMDL
ENDMDL
