REMARK  Name = No_1588-gen_results/8p0m/2024-11-27-11-27-31/
REMARK  2 active torsions:
REMARK  status: ('A' for Active; 'I' for Inactive)
REMARK    1  A    between atoms: C_4  and  C_11
REMARK    2  A    between atoms: C_17  and  C_22
REMARK                            x       y       z     vdW  Elec       q    Type
REMARK                         _______ _______ _______ _____ _____    ______ ____
ROOT
ATOM      1  C   UNL A   1     -28.016  -0.814  28.878  0.00  0.00    +0.004 A 
ATOM      2  C   UNL A   1     -28.469  -0.785  29.829  0.00  0.00    +0.050 A 
ATOM      3  C   UNL A   1     -26.546  -0.876  28.850  0.00  0.00    +0.000 A 
ATOM      4  C   UNL A   1     -25.804  -1.032  30.057  0.00  0.00    -0.000 A 
ATOM      5  C   UNL A   1     -27.944  -0.987  31.207  0.00  0.00    -0.016 A 
ATOM      6  C   UNL A   1     -26.582  -1.039  31.223  0.00  0.00    -0.004 A 
ATOM      7  C   UNL A   1     -30.028  -0.659  29.697  0.00  0.00    +0.249 C 
ATOM      8  O   UNL A   1     -30.435  -0.236  28.753  0.00  0.00    -0.270 OA
ATOM      9  N   UNL A   1     -30.839  -1.108  30.796  0.00  0.00    -0.277 N 
ATOM     10  C   UNL A   1     -32.250  -1.005  30.660  0.00  0.00    +0.102 C 
ATOM     11  C   UNL A   1     -32.876  -1.810  31.334  0.00  0.00    +0.115 C 
ATOM     12  C   UNL A   1     -32.291  -2.532  32.247  0.00  0.00    +0.012 C 
ATOM     13  C   UNL A   1     -30.919  -2.827  32.395  0.00  0.00    +0.021 C 
ATOM     14  C   UNL A   1     -30.222  -2.111  31.585  0.00  0.00    +0.080 C 
ATOM     15  C   UNL A   1     -28.757  -2.071  31.838  0.00  0.00    +0.046 C 
ENDROOT
BRANCH   4  16
ATOM     16  C   UNL A   1     -24.372  -1.097  30.090  0.00  0.00    -0.000 A 
ATOM     17  C   UNL A   1     -23.728  -1.430  30.783  0.00  0.00    -0.000 A 
ATOM     18  C   UNL A   1     -22.200  -1.252  30.844  0.00  0.00    -0.000 A 
ATOM     19  C   UNL A   1     -21.708  -0.718  29.654  0.00  0.00    +0.000 A 
ATOM     20  C   UNL A   1     -23.724  -0.464  28.862  0.00  0.00    -0.000 A 
ATOM     21  C   UNL A   1     -22.452  -0.279  28.749  0.00  0.00    -0.000 A 
ENDBRANCH   4  16
BRANCH  11  22
ATOM     22  C   UNL A   1     -34.392  -1.701  31.341  0.00  0.00    +0.399 C 
ATOM     23  F   UNL A   1     -34.996  -2.615  31.587  0.00  0.00    -0.170 F 
ATOM     24  F   UNL A   1     -34.716  -0.607  32.130  0.00  0.00    -0.170 F 
ATOM     25  F   UNL A   1     -34.730  -1.300  30.061  0.00  0.00    -0.170 F 
ENDBRANCH  11  22
TORSDOF 2
