MODEL 1589
MODEL 1
REMARK VINA RESULT:    -8.795      0.000      0.000
REMARK INTER + INTRA:          -8.072
REMARK INTER:                  -9.310
REMARK INTRA:                   1.237
REMARK UNBOUND:                 1.237
REMARK  Name = No_1589-gen_results/8p0m/2024-11-27-11-27-31/
REMARK  2 active torsions:
REMARK  status: ('A' for Active; 'I' for Inactive)
REMARK    1  A    between atoms: C_5  and  C_7
REMARK    2  A    between atoms: C_20  and  C_21
REMARK                            x       y       z     vdW  Elec       q    Type
REMARK                         _______ _______ _______ _____ _____    ______ ____
ROOT
ATOM      1  C   UNL A   1     -22.950   0.149  28.685  0.00  0.00    +0.073 A 
ATOM      2  C   UNL A   1     -24.096  -0.180  28.886  0.00  0.00    -0.001 A 
ATOM      3  C   UNL A   1     -25.206   0.392  28.287  0.00  0.00    +0.054 A 
ATOM      4  C   UNL A   1     -24.969   1.430  27.339  0.00  0.00    +0.016 A 
ATOM      5  C   UNL A   1     -23.687   1.667  27.017  0.00  0.00    +0.056 A 
ATOM      6  C   UNL A   1     -22.704   1.046  27.602  0.00  0.00    +0.011 A 
ATOM      7 CL   UNL A   1     -26.841   0.022  28.771  0.00  0.00    -0.083 Cl
ATOM      8  C   UNL A   1     -21.776  -0.580  29.317  0.00  0.00    +0.345 C 
ATOM      9  O   UNL A   1     -20.937  -1.050  28.928  0.00  0.00    -0.244 OA
ATOM     10  O   UNL A   1     -21.945  -0.461  30.711  0.00  0.00    -0.425 OA
ATOM     11  C   UNL A   1     -23.040  -0.855  31.348  0.00  0.00    +0.131 C 
ATOM     12  C   UNL A   1     -22.947  -0.959  32.753  0.00  0.00    +0.033 C 
ATOM     13  C   UNL A   1     -24.369  -1.151  33.300  0.00  0.00    -0.001 C 
ATOM     14  C   UNL A   1     -25.099  -1.429  32.420  0.00  0.00    -0.018 C 
ATOM     15  C   UNL A   1     -24.353  -1.090  30.998  0.00  0.00    +0.087 C 
ATOM     16  C   UNL A   1     -24.920  -0.792  29.778  0.00  0.00    +0.057 C 
ENDROOT
BRANCH  16  17
ATOM     17  C   UNL A   1     -25.111  -2.443  29.405  0.00  0.00    -0.018 A 
ATOM     18  C   UNL A   1     -23.993  -3.088  28.961  0.00  0.00    -0.004 A 
ATOM     19  C   UNL A   1     -26.230  -3.102  29.905  0.00  0.00    -0.004 A 
ATOM     20  C   UNL A   1     -26.317  -4.488  29.681  0.00  0.00    -0.000 A 
ATOM     21  C   UNL A   1     -24.134  -4.491  28.669  0.00  0.00    -0.000 A 
ATOM     22  C   UNL A   1     -25.291  -5.185  29.004  0.00  0.00    -0.000 A 
ENDBRANCH  16  17
BRANCH   5  23
ATOM     23  C   UNL A   1     -23.485   2.731  26.002  0.00  0.00    +0.265 C 
ATOM     24  O   UNL A   1     -22.980   2.547  24.922  0.00  0.00    -0.268 OA
ATOM     25  N   UNL A   1     -24.119   3.942  26.207  0.00  0.00    -0.200 NA
ATOM     26  C   UNL A   1     -24.086   4.958  25.215  0.00  0.00    +0.139 C 
ENDBRANCH   5  23
TORSDOF 2
ENDMDL
ENDMDL
