MODEL 158
MODEL 1
REMARK VINA RESULT:    -7.530      0.000      0.000
REMARK INTER + INTRA:         -13.444
REMARK INTER:                 -11.493
REMARK INTRA:                  -1.952
REMARK UNBOUND:                -1.952
REMARK  Name = No_158-gen_results/8p0m/2024-11-27-11-27-31/
REMARK  9 active torsions:
REMARK  status: ('A' for Active; 'I' for Inactive)
REMARK    1  A    between atoms: C_2  and  C_13
REMARK    2  A    between atoms: C_4  and  C_7
REMARK    3  A    between atoms: C_13  and  N_15
REMARK    4  A    between atoms: C_16  and  C_17
REMARK    5  A    between atoms: C_17  and  N_18
REMARK    6  A    between atoms: C_17  and  C_24
REMARK    7  A    between atoms: C_22  and  C_34
REMARK    8  A    between atoms: C_24  and  C_26
REMARK    9  A    between atoms: C_26  and  C_28
REMARK                            x       y       z     vdW  Elec       q    Type
REMARK                         _______ _______ _______ _____ _____    ______ ____
ROOT
ATOM      1  C   UNL A   1     -25.184   0.522  28.309  0.00  0.00    +0.186 C 
ENDROOT
BRANCH   1   2
ATOM      2  N   UNL A   1     -26.284   1.213  28.767  0.00  0.00    -0.263 NA
ATOM      3  C   UNL A   1     -27.394   0.929  28.257  0.00  0.00    +0.073 C 
ATOM      4  C   UNL A   1     -28.390   1.865  28.267  0.00  0.00    +0.017 C 
ATOM      5  C   UNL A   1     -28.202   2.943  28.268  0.00  0.00    +0.004 C 
ATOM      6  C   UNL A   1     -26.923   3.463  28.750  0.00  0.00    +0.035 C 
ATOM      7  C   UNL A   1     -25.834   2.604  28.345  0.00  0.00    +0.074 C 
BRANCH   6   8
ATOM      8  C   UNL A   1     -26.685   4.761  29.262  0.00  0.00    +0.111 C 
ATOM      9  N   UNL A   1     -25.571   5.002  29.896  0.00  0.00    -0.131 NA
ENDBRANCH   6   8
ENDBRANCH   1   2
BRANCH   1  11
ATOM     10  N   UNL A   1     -25.073  -0.251  26.490  0.00  0.00    +0.035 NA
ATOM     11  C   UNL A   1     -24.990   0.228  27.367  0.00  0.00    +0.401 C 
ATOM     12  N   UNL A   1     -23.553   0.776  27.166  0.00  0.00    +0.210 NA
BRANCH  10  13
ATOM     13  C   UNL A   1     -25.321   0.109  25.224  0.00  0.00    +0.375 C 
ATOM     14  O   UNL A   1     -24.601   0.062  24.344  0.00  0.00    -0.238 OA
BRANCH  13  16
ATOM     15  C   UNL A   1     -27.432  -0.004  24.343  0.00  0.00    +0.007 A 
ATOM     16  C   UNL A   1     -26.755   0.698  24.744  0.00  0.00    +0.082 A 
ATOM     17  C   UNL A   1     -28.779   0.551  23.938  0.00  0.00    +0.000 A 
ATOM     18  C   UNL A   1     -28.994   1.945  23.982  0.00  0.00    +0.000 A 
ATOM     19  C   UNL A   1     -26.716   2.172  24.865  0.00  0.00    +0.007 A 
ATOM     20  C   UNL A   1     -27.937   2.720  24.495  0.00  0.00    +0.000 A 
BRANCH  18  21
ATOM     21  C   UNL A   1     -30.247   2.522  23.630  0.00  0.00    +0.000 A 
ATOM     22  C   UNL A   1     -30.792   2.374  22.678  0.00  0.00    +0.000 A 
ATOM     23  C   UNL A   1     -32.080   3.009  22.204  0.00  0.00    +0.000 A 
ATOM     24  C   UNL A   1     -32.582   3.851  23.120  0.00  0.00    +0.000 A 
ATOM     25  C   UNL A   1     -30.864   3.477  24.545  0.00  0.00    +0.000 A 
ATOM     26  C   UNL A   1     -31.974   4.116  24.297  0.00  0.00    +0.000 A 
ENDBRANCH  18  21
ENDBRANCH  13  16
ENDBRANCH  10  13
ENDBRANCH   1  11
BRANCH   1  27
ATOM     27  C   UNL A   1     -24.476  -0.340  29.419  0.00  0.00    +0.111 C 
ATOM     28 CL   UNL A   1     -23.457   0.022  30.104  0.00  0.00    -0.113 Cl
BRANCH  27  29
ATOM     29  C   UNL A   1     -25.493  -1.293  30.007  0.00  0.00    +0.045 C 
BRANCH  29  30
ATOM     30  C   UNL A   1     -25.262  -2.591  29.527  0.00  0.00    -0.021 A 
ATOM     31  C   UNL A   1     -26.255  -3.462  29.780  0.00  0.00    -0.004 A 
ATOM     32  C   UNL A   1     -26.092  -4.878  29.653  0.00  0.00    -0.000 A 
ATOM     33  C   UNL A   1     -24.923  -5.269  28.943  0.00  0.00    -0.000 A 
ATOM     34  C   UNL A   1     -23.994  -4.351  28.595  0.00  0.00    -0.000 A 
ATOM     35  C   UNL A   1     -24.143  -2.994  28.921  0.00  0.00    -0.004 A 
ENDBRANCH  29  30
ENDBRANCH  27  29
ENDBRANCH   1  27
TORSDOF 9
ENDMDL
ENDMDL
