REMARK  Name = outputs/IAG933/test6/raw/output_1592_IAG933_linker_design_.xyz
REMARK  15 active torsions:
REMARK  status: ('A' for Active; 'I' for Inactive)
REMARK    1  A    between atoms: C_1  and  C_2
REMARK    2  A    between atoms: C_1  and  C_8
REMARK    3  A    between atoms: C_1  and  C_30
REMARK    4  A    between atoms: C_14  and  C_15
REMARK    5  A    between atoms: C_15  and  O_18
REMARK    6  A    between atoms: O_18  and  C_44
REMARK    7  A    between atoms: C_21  and  O_22
REMARK    8  A    between atoms: O_22  and  C_23
REMARK    9  A    between atoms: C_23  and  C_24
REMARK   10  A    between atoms: C_28  and  C_45
REMARK   11  A    between atoms: C_30  and  C_33
REMARK   12  A    between atoms: C_31  and  C_39
REMARK   13  A    between atoms: C_33  and  C_35
REMARK   14  A    between atoms: C_33  and  C_44
REMARK   15  A    between atoms: C_39  and  C_46
REMARK                            x       y       z     vdW  Elec       q    Type
REMARK                         _______ _______ _______ _____ _____    ______ ____
ROOT
ATOM      1  C   UNL A   1     -24.864   2.617  28.733  0.00  0.00    +0.129 C 
ATOM      2  C   UNL A   1     -25.796   2.509  29.999  0.00  0.00    +0.010 C 
ENDROOT
BRANCH   1   3
ATOM      3  O   UNL A   1     -25.143   3.966  28.243  0.00  0.00    -0.441 OA
BRANCH   3   4
ATOM      4  C   UNL A   1     -25.642   4.093  27.123  0.00  0.00    +0.226 C 
ATOM      5  N   UNL A   1     -25.614   5.252  26.449  0.00  0.00    -0.235 NA
ATOM      6  C   UNL A   1     -25.026   6.479  26.963  0.00  0.00    +0.155 C 
BRANCH   4   8
ATOM      7  C   UNL A   1     -25.688   1.614  26.461  0.00  0.00    +0.041 C 
ATOM      8  C   UNL A   1     -26.250   2.920  26.395  0.00  0.00    +0.075 C 
ATOM      9  C   UNL A   1     -27.438   3.091  25.645  0.00  0.00    +0.107 C 
ATOM     10  N   UNL A   1     -28.075   2.089  25.003  0.00  0.00    -0.208 NA
ATOM     11  C   UNL A   1     -27.543   0.849  25.079  0.00  0.00    +0.253 C 
ATOM     12  C   UNL A   1     -26.354   0.576  25.777  0.00  0.00    +0.193 C 
ATOM     13  F   UNL A   1     -25.860  -0.681  25.795  0.00  0.00    -0.199 F 
BRANCH  11  14
ATOM     14  O   UNL A   1     -28.193  -0.208  24.477  0.00  0.00    -0.456 OA
BRANCH  14  15
ATOM     15  C   UNL A   1     -29.460   0.005  23.866  0.00  0.00    +0.243 C 
BRANCH  15  16
ATOM     16  C   UNL A   1     -30.065  -1.377  23.573  0.00  0.00    +0.229 C 
ATOM     17  O   UNL A   1     -30.729  -1.878  24.721  0.00  0.00    -0.216 OA
ENDBRANCH  15  16
ENDBRANCH  14  15
ENDBRANCH  11  14
ENDBRANCH   4   8
ENDBRANCH   3   4
ENDBRANCH   1   3
BRANCH   1  18
ATOM     18  C   UNL A   1     -23.795   1.268  28.854  0.00  0.00    +0.137 C 
BRANCH  18  21
ATOM     19  N   UNL A   1     -21.377   1.055  28.291  0.00  0.00    -0.087 NA
ATOM     20  O   UNL A   1     -22.668   2.586  27.231  0.00  0.00    -0.271 OA
ATOM     21  C   UNL A   1     -22.625   1.730  28.060  0.00  0.00    +0.268 C 
ENDBRANCH  18  21
BRANCH  18  22
ATOM     22  C   UNL A   1     -23.985  -0.174  29.246  0.00  0.00    +0.023 C 
BRANCH  22  23
ATOM     23  C   UNL A   1     -24.855  -1.012  30.143  0.00  0.00    +0.039 C 
BRANCH  23  24
ATOM     24  C   UNL A   1     -24.973  -2.505  29.788  0.00  0.00    -0.021 C 
ATOM     25  C   UNL A   1     -23.906  -3.173  29.146  0.00  0.00    -0.004 C 
ATOM     26  C   UNL A   1     -23.989  -4.549  28.853  0.00  0.00    -0.000 C 
ATOM     27  C   UNL A   1     -25.137  -5.280  29.205  0.00  0.00    -0.000 C 
ATOM     28  C   UNL A   1     -26.232  -4.611  29.784  0.00  0.00    -0.000 C 
ATOM     29  C   UNL A   1     -26.155  -3.232  30.065  0.00  0.00    -0.004 C 
ENDBRANCH  23  24
BRANCH  23  30
ATOM     30  C   UNL A   1     -25.387  -0.679  31.571  0.00  0.00    +0.077 C 
ATOM     31  C   UNL A   1     -25.189   0.773  32.028  0.00  0.00    +0.019 C 
ATOM     32  C   UNL A   1     -25.336   0.684  33.544  0.00  0.00    +0.020 C 
ATOM     33  C   UNL A   1     -24.829  -0.715  33.905  0.00  0.00    +0.089 C 
ATOM     34  N   UNL A   1     -24.758  -1.481  32.646  0.00  0.00    -0.219 NA
ENDBRANCH  23  30
ENDBRANCH  22  23
ENDBRANCH  18  22
ENDBRANCH   1  18
BRANCH   2  35
ATOM     35  C   UNL A   1     -26.846   3.619  30.199  0.00  0.00    +0.062 C 
BRANCH  35  37
ATOM     36  C   UNL A   1     -30.243  -0.263  28.865  0.00  0.00    +0.150 C 
ATOM     37  C   UNL A   1     -28.241   3.242  30.743  0.00  0.00    +0.157 C 
ATOM     38  C   UNL A   1     -29.386   1.603  28.189  0.00  0.00    +0.150 C 
ATOM     39  O   UNL A   1     -29.146   4.172  30.257  0.00  0.00    -0.223 OA
ATOM     40  C   UNL A   1     -28.553   1.704  30.497  0.00  0.00    +0.038 C 
ATOM     41  O   UNL A   1     -30.063   0.452  27.511  0.00  0.00    -0.353 OA
ATOM     42  O   UNL A   1     -30.345   3.559  29.771  0.00  0.00    -0.218 OA
ATOM     43  C   UNL A   1     -30.149   2.796  28.494  0.00  0.00    +0.211 C 
ATOM     44  C   UNL A   1     -29.681   1.007  29.604  0.00  0.00    +0.062 C 
BRANCH  36  46
ATOM     45  O   UNL A   1     -28.187  -1.359  29.242  0.00  0.00    -0.218 OA
ATOM     46  C   UNL A   1     -29.547  -1.608  29.587  0.00  0.00    +0.211 C 
ENDBRANCH  36  46
ENDBRANCH  35  37
ENDBRANCH   2  35
TORSDOF 15
