REMARK  Name = outputs/IAG933/test6/raw/output_1593_IAG933_linker_design_.xyz
REMARK  15 active torsions:
REMARK  status: ('A' for Active; 'I' for Inactive)
REMARK    1  A    between atoms: C_1  and  C_2
REMARK    2  A    between atoms: C_1  and  C_8
REMARK    3  A    between atoms: C_1  and  N_41
REMARK    4  A    between atoms: C_13  and  C_43
REMARK    5  A    between atoms: C_14  and  C_15
REMARK    6  A    between atoms: C_21  and  O_22
REMARK    7  A    between atoms: O_22  and  C_23
REMARK    8  A    between atoms: C_23  and  C_24
REMARK    9  A    between atoms: C_28  and  C_39
REMARK   10  A    between atoms: C_30  and  C_33
REMARK   11  A    between atoms: C_30  and  O_38
REMARK   12  A    between atoms: C_31  and  C_40
REMARK   13  A    between atoms: C_31  and  O_42
REMARK   14  A    between atoms: C_33  and  C_37
REMARK   15  A    between atoms: C_37  and  C_39
REMARK                            x       y       z     vdW  Elec       q    Type
REMARK                         _______ _______ _______ _____ _____    ______ ____
ROOT
ATOM      1  C   UNL A   1     -25.279   0.279  28.360  0.00  0.00    +0.025 C 
ATOM      2  C   UNL A   1     -23.187   0.174  28.920  0.00  0.00    +0.243 C 
ATOM      3  C   UNL A   1     -23.358   1.008  27.810  0.00  0.00    +0.195 C 
ATOM      4  N   UNL A   1     -24.370  -0.149  29.102  0.00  0.00    -0.259 N 
ATOM      5  C   UNL A   1     -24.766   1.093  27.428  0.00  0.00    -0.009 C 
ATOM      6  O   UNL A   1     -22.056  -0.182  29.582  0.00  0.00    -0.274 OA
ENDROOT
BRANCH   5   7
ATOM      7  C   UNL A   1     -25.688   1.614  26.461  0.00  0.00    +0.090 C 
ATOM      8  C   UNL A   1     -26.250   2.920  26.395  0.00  0.00    +0.059 C 
ATOM      9  C   UNL A   1     -27.438   3.091  25.645  0.00  0.00    +0.102 C 
ATOM     10  N   UNL A   1     -28.075   2.089  25.003  0.00  0.00    -0.212 NA
ATOM     11  C   UNL A   1     -27.543   0.849  25.079  0.00  0.00    +0.234 C 
ATOM     12  C   UNL A   1     -26.354   0.576  25.777  0.00  0.00    +0.244 C 
ATOM     13  F   UNL A   1     -25.860  -0.681  25.795  0.00  0.00    -0.227 F 
BRANCH   8  14
ATOM     14  C   UNL A   1     -25.642   4.093  27.123  0.00  0.00    +0.263 C 
ATOM     15  N   UNL A   1     -25.614   5.252  26.449  0.00  0.00    -0.200 NA
ATOM     16  C   UNL A   1     -25.026   6.479  26.963  0.00  0.00    +0.139 C 
ATOM     17  O   UNL A   1     -25.143   3.966  28.243  0.00  0.00    -0.269 OA
ENDBRANCH   8  14
BRANCH  11  18
ATOM     18  O   UNL A   1     -28.193  -0.208  24.477  0.00  0.00    -0.459 OA
BRANCH  18  19
ATOM     19  C   UNL A   1     -29.460   0.005  23.866  0.00  0.00    +0.242 C 
BRANCH  19  20
ATOM     20  C   UNL A   1     -30.065  -1.377  23.573  0.00  0.00    +0.229 C 
ATOM     21  O   UNL A   1     -30.729  -1.878  24.721  0.00  0.00    -0.216 OA
ENDBRANCH  19  20
ENDBRANCH  18  19
ENDBRANCH  11  18
ENDBRANCH   5   7
BRANCH   3  22
ATOM     22  C   UNL A   1     -22.201   1.504  27.151  0.00  0.00    +0.329 C 
ATOM     23  O   UNL A   1     -21.015   1.526  27.696  0.00  0.00    -0.249 OA
BRANCH  22  25
ATOM     24  C   UNL A   1     -23.390   2.407  25.473  0.00  0.00    +0.256 C 
ATOM     25  O   UNL A   1     -22.144   1.901  25.798  0.00  0.00    -0.444 OA
ENDBRANCH  22  25
ENDBRANCH   3  22
BRANCH   4  26
ATOM     26  C   UNL A   1     -24.855  -1.012  30.143  0.00  0.00    +0.118 C 
BRANCH  26  27
ATOM     27  C   UNL A   1     -24.973  -2.505  29.788  0.00  0.00    -0.003 C 
ATOM     28  C   UNL A   1     -23.906  -3.173  29.146  0.00  0.00    -0.003 C 
ATOM     29  C   UNL A   1     -23.989  -4.549  28.853  0.00  0.00    -0.000 C 
ATOM     30  C   UNL A   1     -25.137  -5.280  29.205  0.00  0.00    -0.000 C 
ATOM     31  C   UNL A   1     -26.232  -4.611  29.784  0.00  0.00    -0.000 C 
ATOM     32  C   UNL A   1     -26.155  -3.232  30.065  0.00  0.00    -0.003 C 
ENDBRANCH  26  27
BRANCH  26  33
ATOM     33  C   UNL A   1     -25.387  -0.679  31.571  0.00  0.00    +0.095 C 
ATOM     34  C   UNL A   1     -25.189   0.773  32.028  0.00  0.00    +0.021 C 
ATOM     35  C   UNL A   1     -25.336   0.684  33.544  0.00  0.00    +0.020 C 
ATOM     36  C   UNL A   1     -24.829  -0.715  33.905  0.00  0.00    +0.089 C 
ATOM     37  N   UNL A   1     -24.758  -1.481  32.646  0.00  0.00    -0.217 NA
ENDBRANCH  26  33
ENDBRANCH   4  26
BRANCH   1  38
ATOM     38  C   UNL A   1     -26.511  -0.045  28.511  0.00  0.00    +0.044 C 
BRANCH  38  39
ATOM     39  C   UNL A   1     -27.645  -0.490  29.116  0.00  0.00    +0.042 C 
BRANCH  39  41
ATOM     40  O   UNL A   1     -28.416   0.967  30.886  0.00  0.00    -0.220 OA
ATOM     41  C   UNL A   1     -28.631   0.591  29.494  0.00  0.00    +0.185 C 
BRANCH  41  42
ATOM     42  C   UNL A   1     -29.934  -0.067  29.018  0.00  0.00    +0.218 C 
BRANCH  42  44
ATOM     43  O   UNL A   1     -29.924  -2.266  29.529  0.00  0.00    -0.035 OA
ATOM     44  O   UNL A   1     -30.147  -1.062  30.025  0.00  0.00    -0.186 OA
ENDBRANCH  42  44
ENDBRANCH  41  42
ENDBRANCH  39  41
ENDBRANCH  38  39
ENDBRANCH   1  38
TORSDOF 15
