MODEL 1594
MODEL 1
REMARK VINA RESULT:    -4.245      0.000      0.000
REMARK INTER + INTRA:          -4.245
REMARK INTER:                  -4.245
REMARK INTRA:                   0.000
REMARK UNBOUND:                 0.000
REMARK  Name = No_1594-gen_results/8p0m/2024-11-27-11-27-31/
REMARK  0 active torsions:
REMARK  status: ('A' for Active; 'I' for Inactive)
REMARK                            x       y       z     vdW  Elec       q    Type
REMARK                         _______ _______ _______ _____ _____    ______ ____
ROOT
ATOM      1  C   UNL A   1     -24.959  -5.333  28.946  0.00  0.00    +0.000 A 
ATOM      2  C   UNL A   1     -24.152  -4.686  28.748  0.00  0.00    +0.000 A 
ATOM      3  C   UNL A   1     -26.129  -4.742  29.615  0.00  0.00    +0.000 A 
ATOM      4  C   UNL A   1     -26.199  -3.337  29.843  0.00  0.00    +0.000 A 
ATOM      5  C   UNL A   1     -23.995  -3.208  28.830  0.00  0.00    +0.000 A 
ATOM      6  C   UNL A   1     -25.056  -2.624  29.454  0.00  0.00    +0.000 A 
ENDROOT
TORSDOF 0
ENDMDL
ENDMDL
