REMARK  Name = No_1595-gen_results/8p0m/2024-11-27-11-27-31/
REMARK  1 active torsions:
REMARK  status: ('A' for Active; 'I' for Inactive)
REMARK    1  A    between atoms: C_4  and  C_7
REMARK                            x       y       z     vdW  Elec       q    Type
REMARK                         _______ _______ _______ _____ _____    ______ ____
ROOT
ATOM      1  C   UNL A   1     -24.366  -1.113  30.048  0.00  0.00    +0.019 C 
ATOM      2  C   UNL A   1     -23.692   0.119  29.919  0.00  0.00    +0.004 C 
ATOM      3  C   UNL A   1     -22.394   0.182  29.348  0.00  0.00    +0.000 C 
ATOM      4  C   UNL A   1     -21.766  -1.084  29.100  0.00  0.00    +0.000 C 
ATOM      5  C   UNL A   1     -23.650  -1.911  30.971  0.00  0.00    +0.004 C 
ATOM      6  C   UNL A   1     -24.043  -2.027  28.645  0.00  0.00    +0.004 C 
ATOM      7  C   UNL A   1     -22.560  -2.196  28.666  0.00  0.00    +0.000 C 
ENDROOT
BRANCH   1  11
ATOM      8  C   UNL A   1     -28.016  -0.814  28.878  0.00  0.00    -0.000 A 
ATOM      9  C   UNL A   1     -28.469  -0.785  29.829  0.00  0.00    -0.000 A 
ATOM     10  C   UNL A   1     -26.546  -0.876  28.850  0.00  0.00    -0.004 A 
ATOM     11  C   UNL A   1     -25.804  -1.032  30.057  0.00  0.00    -0.023 A 
ATOM     12  C   UNL A   1     -26.537  -1.039  31.217  0.00  0.00    -0.004 A 
ATOM     13  C   UNL A   1     -27.884  -0.953  31.186  0.00  0.00    -0.000 A 
ENDBRANCH   1  11
TORSDOF 1
