MODEL 1595
MODEL 1
REMARK VINA RESULT:    -6.322      0.000      0.000
REMARK INTER + INTRA:          -6.814
REMARK INTER:                  -6.692
REMARK INTRA:                  -0.123
REMARK UNBOUND:                -0.123
REMARK  Name = No_1595-gen_results/8p0m/2024-11-27-11-27-31/
REMARK  1 active torsions:
REMARK  status: ('A' for Active; 'I' for Inactive)
REMARK    1  A    between atoms: C_4  and  C_7
REMARK                            x       y       z     vdW  Elec       q    Type
REMARK                         _______ _______ _______ _____ _____    ______ ____
ROOT
ATOM      1  C   UNL A   1     -24.657  -1.198  29.313  0.00  0.00    +0.019 C 
ATOM      2  C   UNL A   1     -23.897  -0.693  28.238  0.00  0.00    +0.004 C 
ATOM      3  C   UNL A   1     -23.123   0.488  28.386  0.00  0.00    +0.000 C 
ATOM      4  C   UNL A   1     -23.322   1.207  29.612  0.00  0.00    +0.000 C 
ATOM      5  C   UNL A   1     -25.681  -0.266  29.605  0.00  0.00    +0.004 C 
ATOM      6  C   UNL A   1     -23.739  -0.994  30.736  0.00  0.00    +0.004 C 
ATOM      7  C   UNL A   1     -23.554   0.484  30.828  0.00  0.00    +0.000 C 
ENDROOT
BRANCH   1  11
ATOM      8  C   UNL A   1     -24.219  -4.967  28.689  0.00  0.00    -0.000 A 
ATOM      9  C   UNL A   1     -25.159  -5.281  29.049  0.00  0.00    -0.000 A 
ATOM     10  C   UNL A   1     -23.965  -3.517  28.692  0.00  0.00    -0.004 A 
ATOM     11  C   UNL A   1     -24.898  -2.618  29.285  0.00  0.00    -0.023 A 
ATOM     12  C   UNL A   1     -26.052  -3.182  29.768  0.00  0.00    -0.004 A 
ATOM     13  C   UNL A   1     -26.246  -4.517  29.717  0.00  0.00    -0.000 A 
ENDBRANCH   1  11
TORSDOF 1
ENDMDL
ENDMDL
