MODEL 1596
MODEL 1
REMARK VINA RESULT:    -5.543      0.000      0.000
REMARK INTER + INTRA:          -6.878
REMARK INTER:                  -6.515
REMARK INTRA:                  -0.363
REMARK UNBOUND:                -0.363
REMARK  Name = No_1596-gen_results/8p0m/2024-11-27-11-27-31/
REMARK  3 active torsions:
REMARK  status: ('A' for Active; 'I' for Inactive)
REMARK    1  A    between atoms: C_2  and  C_8
REMARK    2  A    between atoms: N_10  and  C_11
REMARK    3  A    between atoms: C_12  and  C_13
REMARK                            x       y       z     vdW  Elec       q    Type
REMARK                         _______ _______ _______ _____ _____    ______ ____
ROOT
ATOM      1  C   UNL A   1     -23.676  -2.693  28.893  0.00  0.00    +0.003 A 
ATOM      2  C   UNL A   1     -23.980  -1.709  29.118  0.00  0.00    +0.029 A 
ATOM      3  C   UNL A   1     -24.691  -3.773  29.199  0.00  0.00    +0.011 A 
ATOM      4  C   UNL A   1     -25.988  -3.404  29.613  0.00  0.00    +0.058 A 
ATOM      5  C   UNL A   1     -25.254  -1.066  29.512  0.00  0.00    +0.003 A 
ATOM      6  C   UNL A   1     -26.213  -2.027  29.796  0.00  0.00    +0.011 A 
ATOM      7 CL   UNL A   1     -27.130  -4.532  29.988  0.00  0.00    -0.082 Cl
ENDROOT
BRANCH   2   8
ATOM      8  C   UNL A   1     -22.905  -0.530  28.783  0.00  0.00    +0.138 C 
ATOM      9 CL   UNL A   1     -21.537  -0.761  29.230  0.00  0.00    -0.061 Cl
ATOM     10  N   UNL A   1     -23.323   0.574  28.037  0.00  0.00    -0.232 NA
BRANCH  10  11
ATOM     11  C   UNL A   1     -22.349   1.415  27.584  0.00  0.00    +0.100 C 
ATOM     12  C   UNL A   1     -22.633   2.153  26.602  0.00  0.00    +0.021 C 
BRANCH  12  13
ATOM     13  C   UNL A   1     -23.952   2.325  26.177  0.00  0.00    +0.002 C 
ATOM     14  C   UNL A   1     -24.436   3.606  25.755  0.00  0.00    +0.000 C 
ENDBRANCH  12  13
ENDBRANCH  10  11
ENDBRANCH   2   8
TORSDOF 3
ENDMDL
ENDMDL
