REMARK  Name = outputs/IAG933/test6/raw/output_1596_IAG933_linker_design_.xyz
REMARK  15 active torsions:
REMARK  status: ('A' for Active; 'I' for Inactive)
REMARK    1  A    between atoms: C_1  and  C_2
REMARK    2  A    between atoms: C_1  and  C_8
REMARK    3  A    between atoms: C_1  and  N_37
REMARK    4  A    between atoms: C_13  and  C_30
REMARK    5  A    between atoms: C_14  and  C_15
REMARK    6  A    between atoms: C_21  and  O_22
REMARK    7  A    between atoms: O_22  and  C_23
REMARK    8  A    between atoms: C_23  and  C_24
REMARK    9  A    between atoms: C_28  and  C_39
REMARK   10  A    between atoms: C_28  and  C_40
REMARK   11  A    between atoms: C_29  and  C_43
REMARK   12  A    between atoms: C_32  and  N_37
REMARK   13  A    between atoms: O_34  and  C_40
REMARK   14  A    between atoms: C_36  and  C_39
REMARK   15  A    between atoms: C_36  and  C_43
REMARK                            x       y       z     vdW  Elec       q    Type
REMARK                         _______ _______ _______ _____ _____    ______ ____
ROOT
ATOM      1  C   UNL A   1     -24.733   1.314  27.365  0.00  0.00    +0.018 C 
ATOM      2  F   UNL A   1     -21.157   1.345  27.774  0.00  0.00    -0.201 F 
ATOM      3  C   UNL A   1     -24.733   0.594  28.540  0.00  0.00    +0.152 C 
ATOM      4  C   UNL A   1     -23.402   1.566  26.848  0.00  0.00    +0.085 C 
ATOM      5  C   UNL A   1     -22.472   1.242  27.825  0.00  0.00    +0.175 C 
ATOM      6 CL   UNL A   1     -22.698   2.183  25.388  0.00  0.00    -0.080 Cl
ATOM      7  C   UNL A   1     -23.297   0.472  28.832  0.00  0.00    +0.168 C 
ATOM      8  F   UNL A   1     -22.578  -0.159  29.759  0.00  0.00    -0.204 F 
ENDROOT
BRANCH   1   9
ATOM      9  C   UNL A   1     -25.688   1.614  26.461  0.00  0.00    +0.037 C 
ATOM     10  C   UNL A   1     -26.250   2.920  26.395  0.00  0.00    +0.076 C 
ATOM     11  C   UNL A   1     -27.438   3.091  25.645  0.00  0.00    +0.107 C 
ATOM     12  N   UNL A   1     -28.075   2.089  25.003  0.00  0.00    -0.208 NA
ATOM     13  C   UNL A   1     -27.543   0.849  25.079  0.00  0.00    +0.253 C 
ATOM     14  C   UNL A   1     -26.354   0.576  25.777  0.00  0.00    +0.193 C 
ATOM     15  F   UNL A   1     -25.860  -0.681  25.795  0.00  0.00    -0.199 F 
BRANCH  10  16
ATOM     16  C   UNL A   1     -25.642   4.093  27.123  0.00  0.00    +0.266 C 
ATOM     17  N   UNL A   1     -25.614   5.252  26.449  0.00  0.00    -0.200 NA
ATOM     18  C   UNL A   1     -25.026   6.479  26.963  0.00  0.00    +0.139 C 
ATOM     19  O   UNL A   1     -25.143   3.966  28.243  0.00  0.00    -0.268 OA
ENDBRANCH  10  16
BRANCH  13  20
ATOM     20  O   UNL A   1     -28.193  -0.208  24.477  0.00  0.00    -0.456 OA
BRANCH  20  21
ATOM     21  C   UNL A   1     -29.460   0.005  23.866  0.00  0.00    +0.243 C 
BRANCH  21  22
ATOM     22  C   UNL A   1     -30.065  -1.377  23.573  0.00  0.00    +0.229 C 
ATOM     23  O   UNL A   1     -30.729  -1.878  24.721  0.00  0.00    -0.216 OA
ENDBRANCH  21  22
ENDBRANCH  20  21
ENDBRANCH  13  20
ENDBRANCH   1   9
BRANCH   3  26
ATOM     24  C   UNL A   1     -27.149   0.443  29.171  0.00  0.00    +0.226 C 
ATOM     25  O   UNL A   1     -27.490   1.460  29.712  0.00  0.00    -0.275 OA
ATOM     26  N   UNL A   1     -25.726  -0.023  29.270  0.00  0.00    -0.268 N 
BRANCH  26  27
ATOM     27  C   UNL A   1     -24.855  -1.012  30.143  0.00  0.00    +0.114 C 
BRANCH  27  28
ATOM     28  C   UNL A   1     -24.973  -2.505  29.788  0.00  0.00    -0.003 C 
ATOM     29  C   UNL A   1     -23.906  -3.173  29.146  0.00  0.00    -0.003 C 
ATOM     30  C   UNL A   1     -23.989  -4.549  28.853  0.00  0.00    -0.000 C 
ATOM     31  C   UNL A   1     -25.137  -5.280  29.205  0.00  0.00    -0.000 C 
ATOM     32  C   UNL A   1     -26.232  -4.611  29.784  0.00  0.00    -0.000 C 
ATOM     33  C   UNL A   1     -26.155  -3.232  30.065  0.00  0.00    -0.003 C 
ENDBRANCH  27  28
BRANCH  27  34
ATOM     34  C   UNL A   1     -25.387  -0.679  31.571  0.00  0.00    +0.095 C 
ATOM     35  C   UNL A   1     -25.189   0.773  32.028  0.00  0.00    +0.021 C 
ATOM     36  C   UNL A   1     -25.336   0.684  33.544  0.00  0.00    +0.020 C 
ATOM     37  C   UNL A   1     -24.829  -0.715  33.905  0.00  0.00    +0.089 C 
ATOM     38  N   UNL A   1     -24.758  -1.481  32.646  0.00  0.00    -0.217 NA
ENDBRANCH  27  34
ENDBRANCH  26  27
BRANCH  24  39
ATOM     39  C   UNL A   1     -28.222  -0.390  28.431  0.00  0.00    +0.085 C 
BRANCH  39  40
ATOM     40  C   UNL A   1     -29.317   0.363  27.652  0.00  0.00    +0.010 C 
BRANCH  40  41
ATOM     41  C   UNL A   1     -30.664   0.375  28.426  0.00  0.00    +0.005 C 
BRANCH  41  42
ATOM     42  C   UNL A   1     -31.100   1.630  29.133  0.00  0.00    +0.050 C 
BRANCH  42  44
ATOM     43  N   UNL A   1     -33.217   2.776  28.866  0.00  0.00    -0.100 NA
ATOM     44  C   UNL A   1     -31.919   2.693  28.527  0.00  0.00    +0.206 C 
BRANCH  44  45
ATOM     45  O   UNL A   1     -31.446   3.598  27.567  0.00  0.00    -0.336 OA
ATOM     46  C   UNL A   1     -32.366   4.622  27.162  0.00  0.00    +0.176 C 
ENDBRANCH  44  45
ENDBRANCH  42  44
ENDBRANCH  41  42
ENDBRANCH  40  41
ENDBRANCH  39  40
ENDBRANCH  24  39
ENDBRANCH   3  26
TORSDOF 15
