MODEL 1597
MODEL 1
REMARK VINA RESULT:    -7.196      0.000      0.000
REMARK INTER + INTRA:          -9.822
REMARK INTER:                  -8.878
REMARK INTRA:                  -0.943
REMARK UNBOUND:                -0.943
REMARK  Name = No_1597-gen_results/8p0m/2024-11-27-11-27-31/
REMARK  4 active torsions:
REMARK  status: ('A' for Active; 'I' for Inactive)
REMARK    1  A    between atoms: N_1  and  C_16
REMARK    2  A    between atoms: C_2  and  C_3
REMARK    3  A    between atoms: C_5  and  C_6
REMARK    4  A    between atoms: C_19  and  C_22
REMARK                            x       y       z     vdW  Elec       q    Type
REMARK                         _______ _______ _______ _____ _____    ______ ____
ROOT
ATOM      1  N   UNL A   1     -24.238  -0.368  30.260  0.00  0.00    -0.175 NA
ATOM      2  C   UNL A   1     -23.740   0.411  29.735  0.00  0.00    +0.269 C 
ATOM      3  O   UNL A   1     -23.094   1.433  30.344  0.00  0.00    -0.268 OA
ENDROOT
BRANCH   2   4
ATOM      4  C   UNL A   1     -23.438   0.270  28.423  0.00  0.00    +0.055 A 
ATOM      5  C   UNL A   1     -24.429   0.179  27.370  0.00  0.00    +0.005 A 
ATOM      6  C   UNL A   1     -24.579   1.171  26.523  0.00  0.00    +0.002 A 
ATOM      7  C   UNL A   1     -23.495   2.021  26.249  0.00  0.00    +0.000 A 
ATOM      8  C   UNL A   1     -22.322   1.906  26.977  0.00  0.00    +0.000 A 
ATOM      9  C   UNL A   1     -22.402   1.177  28.168  0.00  0.00    +0.005 A 
BRANCH   6  10
ATOM     10  C   UNL A   1     -25.724   1.287  25.689  0.00  0.00    +0.019 A 
ATOM     11  C   UNL A   1     -26.441   2.333  25.569  0.00  0.00    +0.099 A 
ATOM     12  C   UNL A   1     -26.168   0.079  24.940  0.00  0.00    +0.003 A 
ATOM     13  N   UNL A   1     -27.510   2.324  24.614  0.00  0.00    -0.242 NA
ATOM     14  C   UNL A   1     -27.332  -0.023  24.299  0.00  0.00    +0.021 A 
ATOM     15  C   UNL A   1     -27.976   1.175  24.088  0.00  0.00    +0.099 A 
ENDBRANCH   6  10
ENDBRANCH   2   4
BRANCH   1  16
ATOM     16  C   UNL A   1     -24.487  -0.131  31.847  0.00  0.00    +0.074 A 
ATOM     17  C   UNL A   1     -25.710   0.266  32.285  0.00  0.00    +0.017 A 
ATOM     18  C   UNL A   1     -25.955  -0.017  33.517  0.00  0.00    +0.005 A 
ATOM     19  C   UNL A   1     -25.003  -0.668  34.463  0.00  0.00    +0.071 A 
ATOM     20  C   UNL A   1     -23.825  -1.132  33.904  0.00  0.00    +0.005 A 
ATOM     21  C   UNL A   1     -23.726  -1.235  32.431  0.00  0.00    +0.017 A 
BRANCH  19  22
ATOM     22  C   UNL A   1     -25.306  -0.927  35.847  0.00  0.00    +0.419 C 
ATOM     23  F   UNL A   1     -25.702  -1.926  36.040  0.00  0.00    -0.166 F 
ATOM     24  F   UNL A   1     -26.244   0.050  36.264  0.00  0.00    -0.166 F 
ATOM     25  F   UNL A   1     -24.056  -0.764  36.263  0.00  0.00    -0.166 F 
ENDBRANCH  19  22
ENDBRANCH   1  16
TORSDOF 4
ENDMDL
ENDMDL
