REMARK  Name = outputs/IAG933/test6/raw/output_1598_IAG933_linker_design_.xyz
REMARK  12 active torsions:
REMARK  status: ('A' for Active; 'I' for Inactive)
REMARK    1  A    between atoms: C_1  and  C_2
REMARK    2  A    between atoms: C_1  and  C_8
REMARK    3  A    between atoms: C_1  and  C_29
REMARK    4  A    between atoms: C_13  and  C_31
REMARK    5  A    between atoms: C_14  and  C_15
REMARK    6  A    between atoms: C_21  and  O_22
REMARK    7  A    between atoms: O_22  and  C_23
REMARK    8  A    between atoms: C_23  and  C_24
REMARK    9  A    between atoms: C_30  and  C_40
REMARK   10  A    between atoms: C_30  and  C_43
REMARK   11  A    between atoms: N_32  and  C_41
REMARK   12  A    between atoms: O_33  and  C_38
REMARK                            x       y       z     vdW  Elec       q    Type
REMARK                         _______ _______ _______ _____ _____    ______ ____
ROOT
ATOM      1  C   UNL A   1     -22.869   0.204  29.142  0.00  0.00    +0.001 C 
ATOM      2  C   UNL A   1     -24.264  -0.085  29.318  0.00  0.00    -0.002 C 
ATOM      3  C   UNL A   1     -24.757   1.196  27.494  0.00  0.00    +0.038 C 
ATOM      4  C   UNL A   1     -22.412   1.043  28.061  0.00  0.00    +0.041 C 
ATOM      5  C   UNL A   1     -23.358   1.447  27.151  0.00  0.00    +0.186 C 
ATOM      6  C   UNL A   1     -25.193   0.642  28.544  0.00  0.00    +0.069 C 
ENDROOT
BRANCH   3   7
ATOM      7  C   UNL A   1     -25.688   1.614  26.461  0.00  0.00    +0.097 C 
ATOM      8  C   UNL A   1     -26.250   2.920  26.395  0.00  0.00    +0.059 C 
ATOM      9  C   UNL A   1     -27.438   3.091  25.645  0.00  0.00    +0.102 C 
ATOM     10  N   UNL A   1     -28.075   2.089  25.003  0.00  0.00    -0.212 NA
ATOM     11  C   UNL A   1     -27.543   0.849  25.079  0.00  0.00    +0.234 C 
ATOM     12  C   UNL A   1     -26.354   0.576  25.777  0.00  0.00    +0.244 C 
ATOM     13  F   UNL A   1     -25.860  -0.681  25.795  0.00  0.00    -0.227 F 
BRANCH   8  14
ATOM     14  C   UNL A   1     -25.642   4.093  27.123  0.00  0.00    +0.263 C 
ATOM     15  N   UNL A   1     -25.614   5.252  26.449  0.00  0.00    -0.200 NA
ATOM     16  C   UNL A   1     -25.026   6.479  26.963  0.00  0.00    +0.139 C 
ATOM     17  O   UNL A   1     -25.143   3.966  28.243  0.00  0.00    -0.269 OA
ENDBRANCH   8  14
BRANCH  11  18
ATOM     18  O   UNL A   1     -28.193  -0.208  24.477  0.00  0.00    -0.459 OA
BRANCH  18  19
ATOM     19  C   UNL A   1     -29.460   0.005  23.866  0.00  0.00    +0.242 C 
BRANCH  19  20
ATOM     20  C   UNL A   1     -30.065  -1.377  23.573  0.00  0.00    +0.229 C 
ATOM     21  O   UNL A   1     -30.729  -1.878  24.721  0.00  0.00    -0.216 OA
ENDBRANCH  19  20
ENDBRANCH  18  19
ENDBRANCH  11  18
ENDBRANCH   3   7
BRANCH   6  22
ATOM     22  N   UNL A   1     -26.511   0.910  28.971  0.00  0.00    -0.180 NA
ATOM     23  O   UNL A   1     -27.472  -1.108  28.738  0.00  0.00    -0.273 OA
ATOM     24  C   UNL A   1     -27.606   0.181  28.735  0.00  0.00    +0.247 C 
BRANCH  24  25
ATOM     25  C   UNL A   1     -28.981   0.606  29.381  0.00  0.00    +0.106 C 
BRANCH  25  29
ATOM     26  N   UNL A   1     -30.615  -1.690  30.137  0.00  0.00    -0.270 NA
ATOM     27  C   UNL A   1     -31.537  -0.205  28.561  0.00  0.00    +0.168 C 
ATOM     28  C   UNL A   1     -32.362  -1.512  28.555  0.00  0.00    +0.052 C 
ATOM     29  C   UNL A   1     -30.159  -0.525  29.273  0.00  0.00    +0.097 C 
ATOM     30  C   UNL A   1     -29.765  -2.321  31.192  0.00  0.00    +0.090 C 
ATOM     31  C   UNL A   1     -31.516  -2.565  29.297  0.00  0.00    +0.075 C 
ATOM     32  O   UNL A   1     -31.302   0.240  27.234  0.00  0.00    -0.222 OA
ENDBRANCH  25  29
ENDBRANCH  24  25
ENDBRANCH   6  22
BRANCH   5  33
ATOM     33  O   UNL A   1     -23.036   1.786  25.910  0.00  0.00    -0.292 OA
ATOM     34  F   UNL A   1     -21.842   2.263  25.887  0.00  0.00    +0.014 F 
ENDBRANCH   5  33
BRANCH   2  35
ATOM     35  C   UNL A   1     -24.855  -1.012  30.143  0.00  0.00    +0.062 C 
BRANCH  35  36
ATOM     36  C   UNL A   1     -24.973  -2.505  29.788  0.00  0.00    -0.017 C 
ATOM     37  C   UNL A   1     -23.906  -3.173  29.146  0.00  0.00    -0.004 C 
ATOM     38  C   UNL A   1     -23.989  -4.549  28.853  0.00  0.00    -0.000 C 
ATOM     39  C   UNL A   1     -25.137  -5.280  29.205  0.00  0.00    -0.000 C 
ATOM     40  C   UNL A   1     -26.232  -4.611  29.784  0.00  0.00    -0.000 C 
ATOM     41  C   UNL A   1     -26.155  -3.232  30.065  0.00  0.00    -0.004 C 
ENDBRANCH  35  36
BRANCH  35  42
ATOM     42  C   UNL A   1     -25.387  -0.679  31.571  0.00  0.00    +0.081 C 
ATOM     43  C   UNL A   1     -25.189   0.773  32.028  0.00  0.00    +0.019 C 
ATOM     44  C   UNL A   1     -25.336   0.684  33.544  0.00  0.00    +0.020 C 
ATOM     45  C   UNL A   1     -24.829  -0.715  33.905  0.00  0.00    +0.089 C 
ATOM     46  N   UNL A   1     -24.758  -1.481  32.646  0.00  0.00    -0.219 NA
ENDBRANCH  35  42
ENDBRANCH   2  35
TORSDOF 12
