MODEL 1598
MODEL 1
REMARK VINA RESULT:    -6.569      0.000      0.000
REMARK INTER + INTRA:          -7.755
REMARK INTER:                  -7.337
REMARK INTRA:                  -0.418
REMARK UNBOUND:                -0.418
REMARK  Name = No_1598-gen_results/8p0m/2024-11-27-11-27-31/
REMARK  2 active torsions:
REMARK  status: ('A' for Active; 'I' for Inactive)
REMARK    1  A    between atoms: C_2  and  C_7
REMARK    2  A    between atoms: C_7  and  C_8
REMARK                            x       y       z     vdW  Elec       q    Type
REMARK                         _______ _______ _______ _____ _____    ______ ____
ROOT
ATOM      1  C   UNL A   1     -24.274  -1.218  29.666  0.00  0.00    +0.053 C 
ENDROOT
BRANCH   1   3
ATOM      2  C   UNL A   1     -23.824  -3.384  28.742  0.00  0.00    -0.004 A 
ATOM      3  C   UNL A   1     -24.579  -2.677  29.368  0.00  0.00    -0.018 A 
ATOM      4  C   UNL A   1     -25.765  -3.097  29.877  0.00  0.00    -0.004 A 
ATOM      5  C   UNL A   1     -26.145  -4.437  29.668  0.00  0.00    -0.000 A 
ATOM      6  C   UNL A   1     -24.103  -4.787  28.572  0.00  0.00    -0.000 A 
ATOM      7  C   UNL A   1     -25.295  -5.253  29.040  0.00  0.00    -0.000 A 
ENDBRANCH   1   3
BRANCH   1   8
ATOM      8  C   UNL A   1     -23.480  -0.492  28.775  0.00  0.00    -0.018 A 
ATOM      9  C   UNL A   1     -24.116   0.393  27.940  0.00  0.00    -0.004 A 
ATOM     10  C   UNL A   1     -23.197   1.243  27.291  0.00  0.00    -0.000 A 
ATOM     11  C   UNL A   1     -21.833   1.142  27.583  0.00  0.00    -0.000 A 
ATOM     12  C   UNL A   1     -21.350   0.341  28.612  0.00  0.00    -0.000 A 
ATOM     13  C   UNL A   1     -22.252  -0.360  29.325  0.00  0.00    -0.004 A 
ENDBRANCH   1   8
TORSDOF 2
ENDMDL
ENDMDL
