MODEL 1599
MODEL 1
REMARK VINA RESULT:    -6.593      0.000      0.000
REMARK INTER + INTRA:          -7.602
REMARK INTER:                  -7.364
REMARK INTRA:                  -0.239
REMARK UNBOUND:                -0.239
REMARK  Name = No_1599-gen_results/8p0m/2024-11-27-11-27-31/
REMARK  2 active torsions:
REMARK  status: ('A' for Active; 'I' for Inactive)
REMARK    1  A    between atoms: C_9  and  C_11
REMARK    2  A    between atoms: C_11  and  C_13
REMARK                            x       y       z     vdW  Elec       q    Type
REMARK                         _______ _______ _______ _____ _____    ______ ____
ROOT
ATOM      1  C   UNL A   1     -22.241   1.576  27.392  0.00  0.00    -0.000 A 
ATOM      2  C   UNL A   1     -22.861   0.690  27.932  0.00  0.00    -0.000 A 
ATOM      3  C   UNL A   1     -24.089   0.267  27.436  0.00  0.00    -0.000 A 
ATOM      4  C   UNL A   1     -24.684   0.903  26.289  0.00  0.00    -0.000 A 
ATOM      5  C   UNL A   1     -23.910   1.935  25.740  0.00  0.00    -0.000 A 
ATOM      6  C   UNL A   1     -22.762   2.308  26.258  0.00  0.00    +0.000 A 
ATOM      7  C   UNL A   1     -22.414  -0.059  29.137  0.00  0.00    -0.000 A 
ATOM      8  C   UNL A   1     -22.721  -1.288  29.357  0.00  0.00    -0.000 A 
ATOM      9  C   UNL A   1     -24.046  -1.795  28.800  0.00  0.00    -0.001 A 
ATOM     10  C   UNL A   1     -24.634  -1.078  27.765  0.00  0.00    -0.000 A 
ENDROOT
BRANCH   9  11
ATOM     11  C   UNL A   1     -24.617  -3.054  29.259  0.00  0.00    +0.013 C 
ATOM     12  C   UNL A   1     -24.357  -4.250  28.846  0.00  0.00    -0.002 C 
BRANCH  11  13
ATOM     13  C   UNL A   1     -25.914  -2.868  29.983  0.00  0.00    +0.205 C 
ATOM     14  N   UNL A   1     -26.085  -1.998  30.858  0.00  0.00    -0.107 NA
ATOM     15  N   UNL A   1     -26.880  -3.692  29.748  0.00  0.00    -0.107 NA
ENDBRANCH  11  13
ENDBRANCH   9  11
TORSDOF 2
ENDMDL
ENDMDL
