MODEL 159
MODEL 1
REMARK VINA RESULT:    -6.591      0.000      0.000
REMARK INTER + INTRA:          -7.779
REMARK INTER:                  -7.362
REMARK INTRA:                  -0.417
REMARK UNBOUND:                -0.417
REMARK  Name = No_159-gen_results/8p0m/2024-11-27-11-27-31/
REMARK  2 active torsions:
REMARK  status: ('A' for Active; 'I' for Inactive)
REMARK    1  A    between atoms: C_3  and  C_4
REMARK    2  A    between atoms: C_7  and  C_8
REMARK                            x       y       z     vdW  Elec       q    Type
REMARK                         _______ _______ _______ _____ _____    ______ ____
ROOT
ATOM      1  C   UNL A   1     -29.380 -10.168  32.470  0.00  0.00    +0.007 A 
ATOM      2  C   UNL A   1     -29.747 -10.177  31.318  0.00  0.00    +0.000 A 
ATOM      3  C   UNL A   1     -29.313 -11.109  30.376  0.00  0.00    +0.000 A 
ATOM      4  C   UNL A   1     -28.280 -11.096  32.873  0.00  0.00    +0.080 A 
ATOM      5  C   UNL A   1     -27.827 -12.070  31.970  0.00  0.00    +0.007 A 
ATOM      6  C   UNL A   1     -28.306 -12.134  30.678  0.00  0.00    +0.000 A 
ENDROOT
BRANCH   3   7
ATOM      7  C   UNL A   1     -29.698 -11.186  28.954  0.00  0.00    +0.000 A 
ATOM      8  C   UNL A   1     -30.575 -10.271  28.269  0.00  0.00    +0.000 A 
ATOM      9  C   UNL A   1     -30.863 -10.435  26.900  0.00  0.00    +0.000 A 
ATOM     10  C   UNL A   1     -30.092 -11.327  26.073  0.00  0.00    +0.000 A 
ATOM     11  C   UNL A   1     -28.990 -12.086  28.034  0.00  0.00    +0.000 A 
ATOM     12  C   UNL A   1     -29.232 -12.144  26.681  0.00  0.00    +0.000 A 
ENDBRANCH   3   7
BRANCH   4  13
ATOM     13  C   UNL A   1     -27.786 -11.077  34.222  0.00  0.00    +0.388 C 
ATOM     14  O   UNL A   1     -27.716 -10.095  34.860  0.00  0.00    -0.241 OA
ATOM     15  O   UNL A   1     -27.278 -12.216  34.685  0.00  0.00    -0.241 OA
ENDBRANCH   4  13
TORSDOF 2
ENDMDL
ENDMDL
