MODEL 1600
MODEL 1
REMARK VINA RESULT:    -4.278      0.000      0.000
REMARK INTER + INTRA:          -4.278
REMARK INTER:                  -4.278
REMARK INTRA:                   0.000
REMARK UNBOUND:                 0.000
REMARK  Name = No_1600-gen_results/8p0m/2024-11-27-11-27-31/
REMARK  0 active torsions:
REMARK  status: ('A' for Active; 'I' for Inactive)
REMARK                            x       y       z     vdW  Elec       q    Type
REMARK                         _______ _______ _______ _____ _____    ______ ____
ROOT
ATOM      1  C   UNL A   1     -26.085  -4.803  29.668  0.00  0.00    +0.000 A 
ATOM      2  C   UNL A   1     -26.197  -3.600  29.715  0.00  0.00    +0.000 A 
ATOM      3  C   UNL A   1     -25.211  -2.723  29.306  0.00  0.00    +0.000 A 
ATOM      4  C   UNL A   1     -24.014  -3.271  28.764  0.00  0.00    +0.000 A 
ATOM      5  C   UNL A   1     -24.006  -4.611  28.575  0.00  0.00    +0.000 A 
ATOM      6  C   UNL A   1     -25.014  -5.370  28.960  0.00  0.00    +0.000 A 
ENDROOT
TORSDOF 0
ENDMDL
ENDMDL
