REMARK  Name = outputs/IAG933/test6/raw/output_1602_IAG933_linker_design_.xyz
REMARK  18 active torsions:
REMARK  status: ('A' for Active; 'I' for Inactive)
REMARK    1  A    between atoms: C_1  and  C_2
REMARK    2  A    between atoms: C_1  and  C_8
REMARK    3  A    between atoms: C_1  and  C_34
REMARK    4  A    between atoms: C_13  and  C_33
REMARK    5  A    between atoms: C_14  and  C_15
REMARK    6  A    between atoms: C_21  and  O_22
REMARK    7  A    between atoms: O_22  and  C_23
REMARK    8  A    between atoms: C_23  and  C_24
REMARK    9  A    between atoms: C_28  and  C_31
REMARK   10  A    between atoms: C_28  and  C_38
REMARK   11  A    between atoms: C_29  and  C_32
REMARK   12  A    between atoms: C_31  and  C_41
REMARK   13  A    between atoms: C_32  and  C_33
REMARK   14  A    between atoms: C_33  and  N_40
REMARK   15  A    between atoms: C_34  and  C_36
REMARK   16  A    between atoms: C_34  and  N_40
REMARK   17  A    between atoms: C_36  and  O_37
REMARK   18  A    between atoms: O_37  and  C_41
REMARK                            x       y       z     vdW  Elec       q    Type
REMARK                         _______ _______ _______ _____ _____    ______ ____
ROOT
ATOM      1  N   UNL A   1     -24.769   0.219  28.125  0.00  0.00    -0.217 NA
ENDROOT
BRANCH   1   2
ATOM      2  C   UNL A   1     -24.651   1.418  27.494  0.00  0.00    +0.089 C 
BRANCH   2   3
ATOM      3  C   UNL A   1     -25.688   1.614  26.461  0.00  0.00    +0.087 C 
ATOM      4  C   UNL A   1     -26.250   2.920  26.395  0.00  0.00    +0.056 C 
ATOM      5  C   UNL A   1     -27.438   3.091  25.645  0.00  0.00    +0.102 C 
ATOM      6  N   UNL A   1     -28.075   2.089  25.003  0.00  0.00    -0.212 NA
ATOM      7  C   UNL A   1     -27.543   0.849  25.079  0.00  0.00    +0.234 C 
ATOM      8  C   UNL A   1     -26.354   0.576  25.777  0.00  0.00    +0.241 C 
ATOM      9  F   UNL A   1     -25.860  -0.681  25.795  0.00  0.00    -0.227 F 
BRANCH   4  10
ATOM     10  C   UNL A   1     -25.642   4.093  27.123  0.00  0.00    +0.263 C 
ATOM     11  N   UNL A   1     -25.614   5.252  26.449  0.00  0.00    -0.200 NA
ATOM     12  C   UNL A   1     -25.026   6.479  26.963  0.00  0.00    +0.139 C 
ATOM     13  O   UNL A   1     -25.143   3.966  28.243  0.00  0.00    -0.269 OA
ENDBRANCH   4  10
BRANCH   7  14
ATOM     14  O   UNL A   1     -28.193  -0.208  24.477  0.00  0.00    -0.459 OA
BRANCH  14  15
ATOM     15  C   UNL A   1     -29.460   0.005  23.866  0.00  0.00    +0.242 C 
BRANCH  15  16
ATOM     16  C   UNL A   1     -30.065  -1.377  23.573  0.00  0.00    +0.229 C 
ATOM     17  O   UNL A   1     -30.729  -1.878  24.721  0.00  0.00    -0.216 OA
ENDBRANCH  15  16
ENDBRANCH  14  15
ENDBRANCH   7  14
ENDBRANCH   2   3
BRANCH   2  18
ATOM     18  C   UNL A   1     -23.255   1.753  26.823  0.00  0.00    +0.106 C 
BRANCH  18  19
ATOM     19  C   UNL A   1     -22.322   1.144  27.822  0.00  0.00    +0.262 C 
ATOM     20  O   UNL A   1     -22.633   0.142  28.426  0.00  0.00    -0.272 OA
ATOM     21  N   UNL A   1     -21.167   1.702  27.904  0.00  0.00    -0.088 NA
ENDBRANCH  18  19
ENDBRANCH   2  18
ENDBRANCH   1   2
BRANCH   1  22
ATOM     22  C   UNL A   1     -25.605  -0.272  29.014  0.00  0.00    +0.108 C 
BRANCH  22  23
ATOM     23  C   UNL A   1     -24.855  -1.012  30.143  0.00  0.00    +0.057 C 
BRANCH  23  24
ATOM     24  C   UNL A   1     -24.973  -2.505  29.788  0.00  0.00    -0.020 C 
ATOM     25  C   UNL A   1     -23.906  -3.173  29.146  0.00  0.00    -0.004 C 
ATOM     26  C   UNL A   1     -23.989  -4.549  28.853  0.00  0.00    -0.000 C 
ATOM     27  C   UNL A   1     -25.137  -5.280  29.205  0.00  0.00    -0.000 C 
ATOM     28  C   UNL A   1     -26.232  -4.611  29.784  0.00  0.00    -0.000 C 
ATOM     29  C   UNL A   1     -26.155  -3.232  30.065  0.00  0.00    -0.004 C 
ENDBRANCH  23  24
BRANCH  23  30
ATOM     30  C   UNL A   1     -25.387  -0.679  31.571  0.00  0.00    +0.078 C 
ATOM     31  C   UNL A   1     -25.189   0.773  32.028  0.00  0.00    +0.019 C 
ATOM     32  C   UNL A   1     -25.336   0.684  33.544  0.00  0.00    +0.020 C 
ATOM     33  C   UNL A   1     -24.829  -0.715  33.905  0.00  0.00    +0.089 C 
ATOM     34  N   UNL A   1     -24.758  -1.481  32.646  0.00  0.00    -0.219 NA
ENDBRANCH  23  30
ENDBRANCH  22  23
BRANCH  22  35
ATOM     35  C   UNL A   1     -27.153  -0.107  29.111  0.00  0.00    +0.160 C 
BRANCH  35  36
ATOM     36  O   UNL A   1     -27.569   1.089  29.870  0.00  0.00    -0.352 OA
BRANCH  36  37
ATOM     37  C   UNL A   1     -28.660   1.857  29.874  0.00  0.00    +0.142 C 
BRANCH  37  38
ATOM     38  C   UNL A   1     -28.622   3.166  30.643  0.00  0.00    +0.034 C 
BRANCH  38  39
ATOM     39  C   UNL A   1     -29.087   2.917  32.089  0.00  0.00    +0.023 C 
BRANCH  39  40
ATOM     40  C   UNL A   1     -29.236   4.199  32.894  0.00  0.00    +0.109 C 
ATOM     41  N   UNL A   1     -28.059   4.998  32.707  0.00  0.00    -0.131 NA
ENDBRANCH  39  40
ENDBRANCH  38  39
ENDBRANCH  37  38
ENDBRANCH  36  37
ENDBRANCH  35  36
ENDBRANCH  22  35
ENDBRANCH   1  22
TORSDOF 18
