MODEL 1603
MODEL 1
REMARK VINA RESULT:    -6.924      0.000      0.000
REMARK INTER + INTRA:          -8.834
REMARK INTER:                  -8.139
REMARK INTRA:                  -0.695
REMARK UNBOUND:                -0.695
REMARK  Name = No_1603-gen_results/8p0m/2024-11-27-11-27-31/
REMARK  3 active torsions:
REMARK  status: ('A' for Active; 'I' for Inactive)
REMARK    1  A    between atoms: C_3  and  C_7
REMARK    2  A    between atoms: C_6  and  C_13
REMARK    3  A    between atoms: N_14  and  C_16
REMARK                            x       y       z     vdW  Elec       q    Type
REMARK                         _______ _______ _______ _____ _____    ______ ____
ROOT
ATOM      1  C   UNL A   1     -30.467 -11.154  26.651  0.00  0.00    +0.005 A 
ATOM      2  C   UNL A   1     -30.147 -10.806  27.764  0.00  0.00    +0.000 A 
ATOM      3  C   UNL A   1     -29.624 -11.674  28.722  0.00  0.00    +0.000 A 
ATOM      4  C   UNL A   1     -29.503 -13.084  28.407  0.00  0.00    +0.000 A 
ATOM      5  C   UNL A   1     -29.904 -13.417  27.093  0.00  0.00    +0.005 A 
ATOM      6  C   UNL A   1     -30.391 -12.530  26.263  0.00  0.00    +0.055 A 
ENDROOT
BRANCH   3   7
ATOM      7  C   UNL A   1     -29.199 -11.317  30.101  0.00  0.00    +0.000 A 
ATOM      8  C   UNL A   1     -28.359 -12.058  30.777  0.00  0.00    +0.000 A 
ATOM      9  C   UNL A   1     -28.016 -11.733  32.131  0.00  0.00    +0.000 A 
ATOM     10  C   UNL A   1     -28.633 -10.750  32.836  0.00  0.00    +0.000 A 
ATOM     11  C   UNL A   1     -29.878 -10.260  30.827  0.00  0.00    +0.000 A 
ATOM     12  C   UNL A   1     -29.573  -9.997  32.189  0.00  0.00    +0.000 A 
ENDBRANCH   3   7
BRANCH   6  13
ATOM     13  C   UNL A   1     -30.853 -13.012  24.928  0.00  0.00    +0.269 C 
ATOM     14  N   UNL A   1     -30.233 -12.712  23.890  0.00  0.00    -0.175 NA
ATOM     15  O   UNL A   1     -31.934 -13.692  24.853  0.00  0.00    -0.268 OA
BRANCH  14  16
ATOM     16  C   UNL A   1     -30.610 -13.181  22.543  0.00  0.00    +0.074 A 
ATOM     17  C   UNL A   1     -30.629 -12.258  21.653  0.00  0.00    +0.017 A 
ATOM     18  C   UNL A   1     -30.140 -12.086  20.697  0.00  0.00    +0.001 A 
ATOM     19  C   UNL A   1     -29.213 -13.210  20.231  0.00  0.00    +0.000 A 
ATOM     20  C   UNL A   1     -29.199 -14.354  21.010  0.00  0.00    +0.001 A 
ATOM     21  C   UNL A   1     -29.736 -14.245  22.306  0.00  0.00    +0.017 A 
ENDBRANCH  14  16
ENDBRANCH   6  13
TORSDOF 3
ENDMDL
ENDMDL
