MODEL 1604
MODEL 1
REMARK VINA RESULT:    -8.193      0.000      0.000
REMARK INTER + INTRA:         -12.524
REMARK INTER:                 -11.545
REMARK INTRA:                  -0.979
REMARK UNBOUND:                -0.979
REMARK  Name = No_1604-gen_results/8p0m/2024-11-27-11-27-31/
REMARK  7 active torsions:
REMARK  status: ('A' for Active; 'I' for Inactive)
REMARK    1  A    between atoms: C_2  and  C_7
REMARK    2  A    between atoms: C_3  and  O_10
REMARK    3  A    between atoms: C_7  and  O_8
REMARK    4  A    between atoms: O_8  and  C_19
REMARK    5  A    between atoms: O_10  and  C_11
REMARK    6  A    between atoms: C_11  and  C_12
REMARK    7  A    between atoms: C_19  and  C_20
REMARK                            x       y       z     vdW  Elec       q    Type
REMARK                         _______ _______ _______ _____ _____    ______ ____
ROOT
ATOM      1  C   UNL A   1     -24.103   0.478  27.756  0.00  0.00    +0.044 A 
ATOM      2  C   UNL A   1     -23.836   1.203  27.039  0.00  0.00    +0.079 A 
ATOM      3  C   UNL A   1     -22.961  -0.062  28.588  0.00  0.00    +0.149 A 
ATOM      4  C   UNL A   1     -21.681   0.517  28.465  0.00  0.00    +0.038 A 
ATOM      5  C   UNL A   1     -22.616   1.985  26.736  0.00  0.00    +0.007 A 
ATOM      6  C   UNL A   1     -21.546   1.520  27.487  0.00  0.00    +0.003 A 
ENDROOT
BRANCH   2   7
ATOM      7  C   UNL A   1     -25.031   1.806  26.150  0.00  0.00    +0.348 C 
ATOM      8  O   UNL A   1     -24.917   2.969  25.785  0.00  0.00    -0.244 OA
BRANCH   7   9
ATOM      9  O   UNL A   1     -26.072   1.077  25.970  0.00  0.00    -0.386 OA
BRANCH   9  10
ATOM     10  C   UNL A   1     -26.346   0.571  24.795  0.00  0.00    +0.348 C 
ATOM     11  O   UNL A   1     -25.428  -0.145  24.349  0.00  0.00    -0.244 OA
BRANCH  10  12
ATOM     12  C   UNL A   1     -27.531   0.739  24.206  0.00  0.00    +0.076 A 
ATOM     13  C   UNL A   1     -28.022   1.806  23.999  0.00  0.00    +0.006 A 
ATOM     14  C   UNL A   1     -29.402   1.967  23.498  0.00  0.00    +0.000 A 
ATOM     15  C   UNL A   1     -30.189   0.802  23.262  0.00  0.00    +0.000 A 
ATOM     16  C   UNL A   1     -29.620  -0.447  23.587  0.00  0.00    +0.000 A 
ATOM     17  C   UNL A   1     -28.353  -0.497  24.062  0.00  0.00    +0.006 A 
ENDBRANCH  10  12
ENDBRANCH   9  10
ENDBRANCH   7   9
ENDBRANCH   2   7
BRANCH   3  18
ATOM     18  O   UNL A   1     -23.076  -1.037  29.522  0.00  0.00    -0.421 OA
BRANCH  18  19
ATOM     19  C   UNL A   1     -24.363  -1.331  29.906  0.00  0.00    +0.346 C 
ATOM     20  O   UNL A   1     -25.028  -0.534  30.533  0.00  0.00    -0.244 OA
BRANCH  19  21
ATOM     21  C   UNL A   1     -24.617  -2.614  29.570  0.00  0.00    +0.076 A 
ATOM     22  C   UNL A   1     -23.799  -3.501  28.909  0.00  0.00    +0.006 A 
ATOM     23  C   UNL A   1     -24.205  -4.849  28.596  0.00  0.00    +0.000 A 
ATOM     24  C   UNL A   1     -25.460  -5.247  29.051  0.00  0.00    +0.000 A 
ATOM     25  C   UNL A   1     -25.930  -3.241  29.941  0.00  0.00    +0.006 A 
ATOM     26  C   UNL A   1     -26.260  -4.465  29.700  0.00  0.00    +0.000 A 
ENDBRANCH  19  21
ENDBRANCH  18  19
ENDBRANCH   3  18
TORSDOF 7
ENDMDL
ENDMDL
