MODEL 1605
MODEL 1
REMARK VINA RESULT:    -4.545      0.000      0.000
REMARK INTER + INTRA:          -4.830
REMARK INTER:                  -4.810
REMARK INTRA:                  -0.019
REMARK UNBOUND:                -0.019
REMARK  Name = No_1605-gen_results/8p0m/2024-11-27-11-27-31/
REMARK  1 active torsions:
REMARK  status: ('A' for Active; 'I' for Inactive)
REMARK    1  A    between atoms: C_2  and  O_7
REMARK                            x       y       z     vdW  Elec       q    Type
REMARK                         _______ _______ _______ _____ _____    ______ ____
ROOT
ATOM      1  C   UNL A   1     -24.944  -2.826  29.834  0.00  0.00    +0.037 A 
ATOM      2  C   UNL A   1     -24.243  -2.985  29.063  0.00  0.00    +0.139 A 
ATOM      3  C   UNL A   1     -26.188  -3.575  29.659  0.00  0.00    +0.003 A 
ATOM      4  C   UNL A   1     -26.204  -4.801  29.759  0.00  0.00    +0.000 A 
ATOM      5  C   UNL A   1     -23.894  -4.471  28.675  0.00  0.00    +0.037 A 
ATOM      6  C   UNL A   1     -25.017  -5.347  28.836  0.00  0.00    +0.003 A 
ENDROOT
BRANCH   2   7
ATOM      7  O   UNL A   1     -23.041  -2.281  28.892  0.00  0.00    -0.471 OA
ATOM      8  C   UNL A   1     -22.704  -1.120  29.093  0.00  0.00    +0.253 C 
ENDBRANCH   2   7
TORSDOF 1
ENDMDL
ENDMDL
