REMARK  Name = No_1606-gen_results/8p0m/2024-11-27-11-27-31/
REMARK  3 active torsions:
REMARK  status: ('A' for Active; 'I' for Inactive)
REMARK    1  A    between atoms: C_4  and  C_7
REMARK    2  A    between atoms: C_7  and  C_9
REMARK    3  A    between atoms: C_9  and  C_10
REMARK                            x       y       z     vdW  Elec       q    Type
REMARK                         _______ _______ _______ _____ _____    ______ ____
ROOT
ATOM      1  C   UNL A   1     -28.016  -0.814  28.878  0.00  0.00    -0.000 A 
ATOM      2  C   UNL A   1     -28.469  -0.785  29.829  0.00  0.00    -0.000 A 
ATOM      3  C   UNL A   1     -26.504  -0.778  28.877  0.00  0.00    -0.004 A 
ATOM      4  C   UNL A   1     -25.915  -0.658  29.923  0.00  0.00    -0.022 A 
ATOM      5  C   UNL A   1     -27.969  -0.724  31.205  0.00  0.00    -0.000 A 
ATOM      6  C   UNL A   1     -26.585  -0.639  31.206  0.00  0.00    -0.004 A 
ENDROOT
BRANCH   4   7
ATOM      7  C   UNL A   1     -24.403  -0.585  30.042  0.00  0.00    +0.027 C 
ATOM      8  C   UNL A   1     -23.744  -1.371  30.551  0.00  0.00    +0.005 C 
BRANCH   7   9
ATOM      9  C   UNL A   1     -23.780   0.580  29.384  0.00  0.00    +0.030 C 
BRANCH   9  10
ATOM     10  C   UNL A   1     -24.404   1.692  28.849  0.00  0.00    -0.030 C 
ATOM     11  C   UNL A   1     -23.766   2.474  27.918  0.00  0.00    -0.030 C 
ATOM     12  C   UNL A   1     -22.455   2.133  27.517  0.00  0.00    +0.030 C 
ENDBRANCH   9  10
ENDBRANCH   7   9
ENDBRANCH   4   7
TORSDOF 3
