MODEL 1606
MODEL 1
REMARK VINA RESULT:    -6.024      0.000      0.000
REMARK INTER + INTRA:          -7.553
REMARK INTER:                  -7.081
REMARK INTRA:                  -0.472
REMARK UNBOUND:                -0.472
REMARK  Name = No_1606-gen_results/8p0m/2024-11-27-11-27-31/
REMARK  3 active torsions:
REMARK  status: ('A' for Active; 'I' for Inactive)
REMARK    1  A    between atoms: C_4  and  C_7
REMARK    2  A    between atoms: C_7  and  C_9
REMARK    3  A    between atoms: C_9  and  C_10
REMARK                            x       y       z     vdW  Elec       q    Type
REMARK                         _______ _______ _______ _____ _____    ______ ____
ROOT
ATOM      1  C   UNL A   1     -26.563  -4.057  29.822  0.00  0.00    -0.000 A 
ATOM      2  C   UNL A   1     -26.031  -4.926  29.552  0.00  0.00    -0.000 A 
ATOM      3  C   UNL A   1     -25.871  -2.749  29.514  0.00  0.00    -0.004 A 
ATOM      4  C   UNL A   1     -24.758  -2.764  29.049  0.00  0.00    -0.022 A 
ATOM      5  C   UNL A   1     -24.736  -5.182  28.917  0.00  0.00    -0.000 A 
ATOM      6  C   UNL A   1     -24.076  -3.986  28.680  0.00  0.00    -0.004 A 
ENDROOT
BRANCH   4   7
ATOM      7  C   UNL A   1     -23.957  -1.516  28.724  0.00  0.00    +0.027 C 
ATOM      8  C   UNL A   1     -22.900  -1.294  29.104  0.00  0.00    +0.005 C 
BRANCH   7   9
ATOM      9  C   UNL A   1     -24.614  -0.576  27.795  0.00  0.00    +0.030 C 
BRANCH   9  10
ATOM     10  C   UNL A   1     -24.054   0.501  27.133  0.00  0.00    -0.030 C 
ATOM     11  C   UNL A   1     -24.434   0.810  25.850  0.00  0.00    -0.030 C 
ATOM     12  C   UNL A   1     -25.401   0.006  25.208  0.00  0.00    +0.030 C 
ENDBRANCH   9  10
ENDBRANCH   7   9
ENDBRANCH   4   7
TORSDOF 3
ENDMDL
ENDMDL
