MODEL 1607
MODEL 1
REMARK VINA RESULT:    -7.733      0.000      0.000
REMARK INTER + INTRA:         -12.725
REMARK INTER:                 -11.350
REMARK INTRA:                  -1.375
REMARK UNBOUND:                -1.375
REMARK  Name = No_1607-gen_results/8p0m/2024-11-27-11-27-31/
REMARK  8 active torsions:
REMARK  status: ('A' for Active; 'I' for Inactive)
REMARK    1  A    between atoms: C_4  and  C_15
REMARK    2  A    between atoms: C_8  and  C_11
REMARK    3  A    between atoms: C_10  and  C_16
REMARK    4  A    between atoms: C_15  and  C_19
REMARK    5  A    between atoms: C_19  and  C_21
REMARK    6  A    between atoms: C_22  and  C_23
REMARK    7  A    between atoms: C_23  and  C_24
REMARK    8  A    between atoms: C_24  and  N_26
REMARK                            x       y       z     vdW  Elec       q    Type
REMARK                         _______ _______ _______ _____ _____    ______ ____
ROOT
ATOM      1  C   UNL A   1     -27.182   1.286  25.216  0.00  0.00    +0.000 A 
ATOM      2  C   UNL A   1     -26.809   2.385  25.554  0.00  0.00    +0.006 A 
ATOM      3  C   UNL A   1     -25.513   2.709  25.919  0.00  0.00    -0.004 A 
ATOM      4  C   UNL A   1     -24.542   1.666  25.861  0.00  0.00    -0.022 A 
ATOM      5  C   UNL A   1     -24.947   0.500  25.332  0.00  0.00    -0.004 A 
ATOM      6  C   UNL A   1     -26.182   0.298  24.973  0.00  0.00    -0.000 A 
ATOM      7  C   UNL A   1     -25.128   4.059  26.467  0.00  0.00    +0.004 A 
ATOM      8  C   UNL A   1     -26.170   4.751  26.959  0.00  0.00    +0.072 A 
ATOM      9  C   UNL A   1     -27.514   4.516  26.628  0.00  0.00    +0.010 A 
ATOM     10  C   UNL A   1     -27.858   3.404  26.023  0.00  0.00    +0.080 A 
ENDROOT
BRANCH   8  11
ATOM     11  C   UNL A   1     -25.851   6.195  27.471  0.00  0.00    +0.419 C 
ATOM     12  F   UNL A   1     -26.138   6.380  28.662  0.00  0.00    -0.166 F 
ATOM     13  F   UNL A   1     -24.523   6.571  27.248  0.00  0.00    -0.166 F 
ATOM     14  F   UNL A   1     -26.489   7.156  26.677  0.00  0.00    -0.166 F 
ENDBRANCH   8  11
BRANCH  10  15
ATOM     15  C   UNL A   1     -29.266   3.154  25.728  0.00  0.00    +0.388 C 
ATOM     16  O   UNL A   1     -29.981   2.705  26.437  0.00  0.00    -0.241 OA
ATOM     17  O   UNL A   1     -29.585   3.440  24.471  0.00  0.00    -0.241 OA
ENDBRANCH  10  15
BRANCH   4  18
ATOM     18  C   UNL A   1     -23.140   1.972  26.214  0.00  0.00    +0.027 C 
ATOM     19  C   UNL A   1     -22.308   2.263  25.096  0.00  0.00    +0.005 C 
BRANCH  18  20
ATOM     20  C   UNL A   1     -22.800   2.097  27.500  0.00  0.00    +0.030 C 
BRANCH  20  21
ATOM     21  C   UNL A   1     -22.330   1.237  28.332  0.00  0.00    -0.023 C 
ATOM     22  C   UNL A   1     -22.718  -0.125  28.347  0.00  0.00    +0.034 C 
BRANCH  22  23
ATOM     23  C   UNL A   1     -23.225  -0.705  29.131  0.00  0.00    +0.189 C 
ATOM     24  O   UNL A   1     -22.808  -0.831  30.423  0.00  0.00    -0.290 OA
BRANCH  23  25
ATOM     25  C   UNL A   1     -24.579  -1.370  29.018  0.00  0.00    +0.142 C 
BRANCH  25  26
ATOM     26  N   UNL A   1     -24.736  -2.579  29.073  0.00  0.00    -0.266 NA
ATOM     27  C   UNL A   1     -23.908  -3.447  28.582  0.00  0.00    +0.072 C 
ATOM     28  C   UNL A   1     -24.156  -4.884  28.605  0.00  0.00    +0.017 C 
ATOM     29  C   UNL A   1     -25.334  -5.248  29.271  0.00  0.00    +0.003 C 
ATOM     30  C   UNL A   1     -26.182  -4.306  29.764  0.00  0.00    +0.017 C 
ATOM     31  C   UNL A   1     -25.899  -3.016  29.650  0.00  0.00    +0.072 C 
ENDBRANCH  25  26
ENDBRANCH  23  25
ENDBRANCH  22  23
ENDBRANCH  20  21
ENDBRANCH  18  20
ENDBRANCH   4  18
TORSDOF 8
ENDMDL
ENDMDL
