MODEL 1608
MODEL 1
REMARK VINA RESULT:    -6.548      0.000      0.000
REMARK INTER + INTRA:          -7.000
REMARK INTER:                  -6.931
REMARK INTRA:                  -0.068
REMARK UNBOUND:                -0.068
REMARK  Name = No_1608-gen_results/8p0m/2024-11-27-11-27-31/
REMARK  1 active torsions:
REMARK  status: ('A' for Active; 'I' for Inactive)
REMARK    1  A    between atoms: C_9  and  C_11
REMARK                            x       y       z     vdW  Elec       q    Type
REMARK                         _______ _______ _______ _____ _____    ______ ____
ROOT
ATOM      1  C   UNL A   1     -30.961  -9.617  29.397  0.00  0.00    +0.030 A 
ATOM      2  C   UNL A   1     -31.022 -10.118  28.472  0.00  0.00    +0.140 A 
ATOM      3  C   UNL A   1     -29.978 -10.199  30.388  0.00  0.00    +0.002 A 
ATOM      4  C   UNL A   1     -29.811  -9.796  31.762  0.00  0.00    +0.000 A 
ATOM      5  C   UNL A   1     -30.177 -11.152  27.860  0.00  0.00    +0.030 A 
ATOM      6  C   UNL A   1     -29.235 -11.714  28.696  0.00  0.00    +0.002 A 
ATOM      7  C   UNL A   1     -29.075 -11.244  29.974  0.00  0.00    +0.000 A 
ATOM      8  C   UNL A   1     -29.127 -10.611  32.667  0.00  0.00    +0.005 A 
ATOM      9  C   UNL A   1     -28.245 -11.602  32.185  0.00  0.00    +0.057 A 
ATOM     10  C   UNL A   1     -28.152 -11.941  30.843  0.00  0.00    +0.005 A 
ATOM     11  F   UNL A   1     -31.832  -9.635  27.387  0.00  0.00    -0.204 F 
ENDROOT
BRANCH   9  12
ATOM     12  C   UNL A   1     -27.384 -12.317  33.172  0.00  0.00    +0.284 C 
ATOM     13  N   UNL A   1     -27.502 -12.276  34.455  0.00  0.00    -0.084 NA
ATOM     14  O   UNL A   1     -26.407 -12.980  32.639  0.00  0.00    -0.267 OA
ENDBRANCH   9  12
TORSDOF 1
ENDMDL
ENDMDL
