MODEL 1609
MODEL 1
REMARK VINA RESULT:    -7.981      0.000      0.000
REMARK INTER + INTRA:          -9.137
REMARK INTER:                  -8.914
REMARK INTRA:                  -0.223
REMARK UNBOUND:                -0.223
REMARK  Name = No_1609-gen_results/8p0m/2024-11-27-11-27-31/
REMARK  2 active torsions:
REMARK  status: ('A' for Active; 'I' for Inactive)
REMARK    1  A    between atoms: C_1  and  C_3
REMARK    2  A    between atoms: C_3  and  C_4
REMARK                            x       y       z     vdW  Elec       q    Type
REMARK                         _______ _______ _______ _____ _____    ______ ____
ROOT
ATOM      1  C   UNL A   1     -24.047  -0.441  28.961  0.00  0.00    +0.040 A 
ATOM      2  C   UNL A   1     -24.260  -0.083  27.977  0.00  0.00    +0.003 A 
ATOM      3  C   UNL A   1     -23.451   0.821  27.137  0.00  0.00    +0.019 A 
ATOM      4  C   UNL A   1     -23.884   1.300  25.876  0.00  0.00    +0.002 A 
ATOM      5  C   UNL A   1     -25.148   0.902  25.342  0.00  0.00    +0.000 A 
ATOM      6  C   UNL A   1     -25.977   0.091  26.105  0.00  0.00    -0.000 A 
ATOM      7  C   UNL A   1     -25.630  -0.368  27.317  0.00  0.00    -0.000 A 
ATOM      8  C   UNL A   1     -22.775  -0.069  29.693  0.00  0.00    +0.276 A 
ATOM      9  O   UNL A   1     -22.343  -0.468  30.626  0.00  0.00    -0.266 OA
ATOM     10  N   UNL A   1     -21.951   0.725  28.932  0.00  0.00    -0.207 NA
ATOM     11  C   UNL A   1     -22.268   1.172  27.721  0.00  0.00    +0.102 A 
ENDROOT
BRANCH   1  12
ATOM     12  C   UNL A   1     -24.786  -1.375  29.835  0.00  0.00    +0.058 C 
BRANCH  12  13
ATOM     13  C   UNL A   1     -24.773  -2.788  29.582  0.00  0.00    -0.018 A 
ATOM     14  C   UNL A   1     -24.033  -3.135  28.917  0.00  0.00    -0.004 A 
ATOM     15  C   UNL A   1     -23.975  -4.650  28.482  0.00  0.00    -0.000 A 
ATOM     16  C   UNL A   1     -25.012  -5.423  29.020  0.00  0.00    -0.000 A 
ATOM     17  C   UNL A   1     -26.101  -4.814  29.567  0.00  0.00    -0.000 A 
ATOM     18  C   UNL A   1     -26.090  -3.448  29.736  0.00  0.00    -0.004 A 
ENDBRANCH  12  13
ENDBRANCH   1  12
TORSDOF 2
ENDMDL
ENDMDL
