MODEL 160
MODEL 1
REMARK VINA RESULT:    -5.752      0.000      0.000
REMARK INTER + INTRA:          -6.864
REMARK INTER:                  -6.424
REMARK INTRA:                  -0.440
REMARK UNBOUND:                -0.440
REMARK  Name = No_160-gen_results/8p0m/2024-11-27-11-27-31/
REMARK  2 active torsions:
REMARK  status: ('A' for Active; 'I' for Inactive)
REMARK    1  A    between atoms: C_3  and  C_8
REMARK    2  A    between atoms: C_8  and  C_11
REMARK                            x       y       z     vdW  Elec       q    Type
REMARK                         _______ _______ _______ _____ _____    ______ ____
ROOT
ATOM      1  C   UNL A   1     -24.088   0.350  27.646  0.00  0.00    +0.042 A 
ATOM      2  C   UNL A   1     -24.501  -0.742  27.962  0.00  0.00    +0.003 A 
ATOM      3  C   UNL A   1     -23.931  -1.619  28.737  0.00  0.00    -0.004 A 
ATOM      4  C   UNL A   1     -22.656  -1.296  29.293  0.00  0.00    +0.003 A 
ATOM      5  C   UNL A   1     -22.853   0.796  28.264  0.00  0.00    +0.196 A 
ATOM      6  C   UNL A   1     -22.195  -0.049  29.057  0.00  0.00    +0.042 A 
ATOM      7  O   UNL A   1     -22.458   2.069  27.974  0.00  0.00    -0.287 OA
ENDROOT
BRANCH   3   8
ATOM      8  C   UNL A   1     -24.508  -3.004  29.002  0.00  0.00    -0.026 C 
ATOM      9  C   UNL A   1     -24.116  -3.984  28.754  0.00  0.00    -0.030 C 
ATOM     10  C   UNL A   1     -24.757  -5.311  28.942  0.00  0.00    +0.030 C 
BRANCH   8  11
ATOM     11  C   UNL A   1     -25.854  -2.985  29.714  0.00  0.00    +0.026 C 
ATOM     12  C   UNL A   1     -26.168  -2.069  30.773  0.00  0.00    +0.005 C 
ENDBRANCH   8  11
ENDBRANCH   3   8
TORSDOF 2
ENDMDL
ENDMDL
