REMARK  Name = No_161-gen_results/8p0m/2024-11-27-11-27-31/
REMARK  5 active torsions:
REMARK  status: ('A' for Active; 'I' for Inactive)
REMARK    1  A    between atoms: C_1  and  C_2
REMARK    2  A    between atoms: C_1  and  N_8
REMARK    3  A    between atoms: N_8  and  C_9
REMARK    4  A    between atoms: C_10  and  C_11
REMARK    5  A    between atoms: C_12  and  C_13
REMARK                            x       y       z     vdW  Elec       q    Type
REMARK                         _______ _______ _______ _____ _____    ______ ____
ROOT
ATOM      1  C   UNL A   1     -28.016  -0.814  28.878  0.00  0.00    +0.139 C 
ENDROOT
BRANCH   1   2
ATOM      2  C   UNL A   1     -27.064  -0.119  28.608  0.00  0.00    -0.001 A 
ATOM      3  C   UNL A   1     -25.792  -0.430  29.076  0.00  0.00    -0.003 A 
ATOM      4  C   UNL A   1     -24.546   0.349  28.823  0.00  0.00    -0.000 A 
ATOM      5  C   UNL A   1     -24.659   1.420  27.888  0.00  0.00    -0.000 A 
ATOM      6  C   UNL A   1     -25.947   1.681  27.379  0.00  0.00    -0.000 A 
ATOM      7  C   UNL A   1     -27.044   0.974  27.687  0.00  0.00    -0.003 A 
ENDBRANCH   1   2
BRANCH   1   8
ATOM      8  N   UNL A   1     -28.657  -0.553  30.096  0.00  0.00    -0.232 NA
BRANCH   8   9
ATOM      9  C   UNL A   1     -28.584   0.251  30.738  0.00  0.00    +0.080 C 
ATOM     10  C   UNL A   1     -28.800   0.832  31.715  0.00  0.00    +0.017 C 
BRANCH  10  11
ATOM     11  C   UNL A   1     -29.004   1.960  32.504  0.00  0.00    -0.003 C 
ATOM     12  C   UNL A   1     -29.071   3.261  32.004  0.00  0.00    -0.026 C 
BRANCH  12  13
ATOM     13  C   UNL A   1     -28.959   3.502  30.654  0.00  0.00    +0.026 C 
ATOM     14  C   UNL A   1     -28.997   4.852  30.238  0.00  0.00    +0.005 C 
ENDBRANCH  12  13
ENDBRANCH  10  11
ENDBRANCH   8   9
ENDBRANCH   1   8
TORSDOF 5
