MODEL 1610
MODEL 1
REMARK VINA RESULT:    -6.160      0.000      0.000
REMARK INTER + INTRA:          -7.621
REMARK INTER:                  -7.240
REMARK INTRA:                  -0.381
REMARK UNBOUND:                -0.381
REMARK  Name = No_1610-gen_results/8p0m/2024-11-27-11-27-31/
REMARK  3 active torsions:
REMARK  status: ('A' for Active; 'I' for Inactive)
REMARK    1  A    between atoms: C_4  and  C_8
REMARK    2  A    between atoms: C_8  and  C_9
REMARK    3  A    between atoms: C_10  and  C_11
REMARK                            x       y       z     vdW  Elec       q    Type
REMARK                         _______ _______ _______ _____ _____    ______ ____
ROOT
ATOM      1  C   UNL A   1      -8.417   0.256  35.664  0.00  0.00    +0.052 C 
ENDROOT
BRANCH   1   5
ATOM      2  C   UNL A   1      -4.673  -0.459  35.144  0.00  0.00    +0.011 A 
ATOM      3  C   UNL A   1      -4.778  -1.332  34.563  0.00  0.00    +0.058 A 
ATOM      4  C   UNL A   1      -5.916   0.220  35.544  0.00  0.00    -0.003 A 
ATOM      5  C   UNL A   1      -7.184  -0.369  35.268  0.00  0.00    -0.018 A 
ATOM      6  C   UNL A   1      -5.953  -2.169  34.196  0.00  0.00    +0.011 A 
ATOM      7  C   UNL A   1      -7.126  -1.566  34.542  0.00  0.00    -0.003 A 
ATOM      8 CL   UNL A   1      -3.257  -2.191  34.074  0.00  0.00    -0.082 Cl
ENDBRANCH   1   5
BRANCH   1   9
ATOM      9  C   UNL A   1      -9.149  -0.175  36.731  0.00  0.00    -0.022 C 
ATOM     10  C   UNL A   1     -10.459  -0.371  36.845  0.00  0.00    -0.008 C 
BRANCH  10  11
ATOM     11  C   UNL A   1     -11.045  -1.042  37.922  0.00  0.00    -0.017 C 
ATOM     12  C   UNL A   1     -11.570  -1.974  37.954  0.00  0.00    -0.003 C 
ATOM     13  C   UNL A   1     -12.179  -2.649  39.113  0.00  0.00    +0.014 C 
ATOM     14  C   UNL A   1     -12.164  -1.713  40.148  0.00  0.00    +0.071 C 
ATOM     15  C   UNL A   1     -11.374  -0.229  39.172  0.00  0.00    +0.071 C 
ATOM     16  N   UNL A   1     -12.025  -0.663  40.104  0.00  0.00    -0.132 NA
ENDBRANCH  10  11
ENDBRANCH   1   9
TORSDOF 3
ENDMDL
ENDMDL
