REMARK  Name = No_1611-gen_results/8p0m/2024-11-27-11-27-31/
REMARK  1 active torsions:
REMARK  status: ('A' for Active; 'I' for Inactive)
REMARK    1  A    between atoms: C_6  and  C_7
REMARK                            x       y       z     vdW  Elec       q    Type
REMARK                         _______ _______ _______ _____ _____    ______ ____
ROOT
ATOM      1  C   UNL A   1     -28.016  -0.814  28.878  0.00  0.00    +0.005 A 
ATOM      2  C   UNL A   1     -27.064  -0.119  28.608  0.00  0.00    +0.000 A 
ATOM      3  C   UNL A   1     -25.792  -0.430  29.076  0.00  0.00    +0.000 A 
ATOM      4  C   UNL A   1     -25.576  -1.565  29.936  0.00  0.00    +0.000 A 
ATOM      5  C   UNL A   1     -26.735  -2.300  30.217  0.00  0.00    +0.005 A 
ATOM      6  C   UNL A   1     -27.918  -1.954  29.763  0.00  0.00    +0.055 A 
ENDROOT
BRANCH   6   7
ATOM      7  C   UNL A   1     -29.073  -2.784  30.178  0.00  0.00    +0.265 C 
ATOM      8  O   UNL A   1     -29.002  -3.985  30.235  0.00  0.00    -0.268 OA
ATOM      9  N   UNL A   1     -30.232  -2.152  30.471  0.00  0.00    -0.200 NA
ATOM     10  C   UNL A   1     -31.396  -2.933  30.836  0.00  0.00    +0.139 C 
ENDBRANCH   6   7
TORSDOF 1
