MODEL 1611
MODEL 1
REMARK VINA RESULT:    -5.319      0.000      0.000
REMARK INTER + INTRA:          -5.690
REMARK INTER:                  -5.630
REMARK INTRA:                  -0.060
REMARK UNBOUND:                -0.060
REMARK  Name = No_1611-gen_results/8p0m/2024-11-27-11-27-31/
REMARK  1 active torsions:
REMARK  status: ('A' for Active; 'I' for Inactive)
REMARK    1  A    between atoms: C_6  and  C_7
REMARK                            x       y       z     vdW  Elec       q    Type
REMARK                         _______ _______ _______ _____ _____    ______ ____
ROOT
ATOM      1  C   UNL A   1     -25.767  -2.633  29.710  0.00  0.00    +0.005 A 
ATOM      2  C   UNL A   1     -26.438  -3.624  29.888  0.00  0.00    +0.000 A 
ATOM      3  C   UNL A   1     -25.960  -4.885  29.549  0.00  0.00    +0.000 A 
ATOM      4  C   UNL A   1     -24.669  -5.046  28.931  0.00  0.00    +0.000 A 
ATOM      5  C   UNL A   1     -23.971  -3.847  28.739  0.00  0.00    +0.005 A 
ATOM      6  C   UNL A   1     -24.475  -2.678  29.062  0.00  0.00    +0.055 A 
ENDROOT
BRANCH   6   7
ATOM      7  C   UNL A   1     -23.657  -1.480  28.757  0.00  0.00    +0.265 C 
ATOM      8  O   UNL A   1     -24.102  -0.553  28.130  0.00  0.00    -0.268 OA
ATOM      9  N   UNL A   1     -22.375  -1.465  29.185  0.00  0.00    -0.200 NA
ATOM     10  C   UNL A   1     -21.531  -0.331  28.866  0.00  0.00    +0.139 C 
ENDBRANCH   6   7
TORSDOF 1
ENDMDL
ENDMDL
