MODEL 1612
MODEL 1
REMARK VINA RESULT:    -8.455      0.000      0.000
REMARK INTER + INTRA:         -14.307
REMARK INTER:                 -11.915
REMARK INTRA:                  -2.393
REMARK UNBOUND:                -2.393
REMARK  Name = No_1612-gen_results/8p0m/2024-11-27-11-27-31/
REMARK  7 active torsions:
REMARK  status: ('A' for Active; 'I' for Inactive)
REMARK    1  A    between atoms: C_3  and  C_16
REMARK    2  A    between atoms: C_16  and  C_17
REMARK    3  A    between atoms: C_18  and  C_31
REMARK    4  A    between atoms: C_21  and  C_23
REMARK    5  A    between atoms: C_23  and  C_24
REMARK    6  A    between atoms: C_31  and  C_32
REMARK    7  A    between atoms: C_33  and  C_34
REMARK                            x       y       z     vdW  Elec       q    Type
REMARK                         _______ _______ _______ _____ _____    ______ ____
ROOT
ATOM      1  C   UNL A   1     -11.198   1.494  37.653  0.00  0.00    -0.022 A 
ATOM      2  C   UNL A   1     -10.815   0.955  36.747  0.00  0.00    -0.021 A 
ATOM      3  C   UNL A   1     -10.092  -0.360  36.785  0.00  0.00    -0.004 A 
ATOM      4  C   UNL A   1     -10.761  -1.161  37.401  0.00  0.00    -0.004 A 
ATOM      5  C   UNL A   1     -11.418  -0.822  38.588  0.00  0.00    -0.019 A 
ATOM      6  C   UNL A   1     -11.722   0.562  38.705  0.00  0.00    -0.008 A 
ENDROOT
BRANCH   5   7
ATOM      7  C   UNL A   1     -11.922  -1.760  39.548  0.00  0.00    +0.045 C 
ATOM      8  C   UNL A   1     -12.618  -2.828  39.071  0.00  0.00    +0.009 C 
BRANCH   7   9
ATOM      9  C   UNL A   1     -11.482  -1.605  40.890  0.00  0.00    -0.018 A 
ATOM     10  C   UNL A   1     -10.340  -2.264  41.325  0.00  0.00    -0.004 A 
ATOM     11  C   UNL A   1      -9.805  -2.107  42.604  0.00  0.00    -0.000 A 
ATOM     12  C   UNL A   1     -10.557  -1.326  43.541  0.00  0.00    -0.000 A 
ATOM     13  C   UNL A   1     -11.765  -0.730  43.158  0.00  0.00    -0.000 A 
ATOM     14  C   UNL A   1     -12.202  -0.837  41.891  0.00  0.00    -0.004 A 
ENDBRANCH   7   9
ENDBRANCH   5   7
BRANCH   1  15
ATOM     15  C   UNL A   1     -11.725   2.807  37.812  0.00  0.00    +0.052 C 
BRANCH  15  18
ATOM     16  C   UNL A   1     -14.313   3.050  38.479  0.00  0.00    +0.002 A 
ATOM     17  C   UNL A   1     -15.276   3.110  38.054  0.00  0.00    +0.068 A 
ATOM     18  C   UNL A   1     -13.167   3.027  37.492  0.00  0.00    -0.018 A 
ATOM     19  C   UNL A   1     -13.432   3.228  36.120  0.00  0.00    -0.003 A 
ATOM     20  C   UNL A   1     -15.813   3.357  36.697  0.00  0.00    +0.071 A 
ATOM     21  C   UNL A   1     -14.788   3.349  35.762  0.00  0.00    +0.016 A 
ATOM     22  C   UNL A   1     -16.511   3.150  39.079  0.00  0.00    +0.251 C 
ATOM     23  O   UNL A   1     -16.307   2.664  40.058  0.00  0.00    -0.270 OA
ATOM     24  N   UNL A   1     -17.696   3.814  38.744  0.00  0.00    -0.260 N 
ATOM     25  C   UNL A   1     -18.736   3.861  39.722  0.00  0.00    +0.095 C 
ATOM     26  C   UNL A   1     -19.542   4.763  39.572  0.00  0.00    +0.022 C 
ATOM     27  C   UNL A   1     -19.655   5.591  38.344  0.00  0.00    +0.005 C 
ATOM     28  C   UNL A   1     -18.585   5.507  37.429  0.00  0.00    +0.042 C 
ATOM     29  C   UNL A   1     -17.577   4.731  37.656  0.00  0.00    +0.169 C 
ATOM     30  N   UNL A   1     -16.705   4.490  36.635  0.00  0.00    -0.219 NA
ENDBRANCH  15  18
ENDBRANCH   1  15
BRANCH   2  31
ATOM     31  C   UNL A   1     -10.058   1.936  35.667  0.00  0.00    +0.052 C 
BRANCH  31  32
ATOM     32  C   UNL A   1      -9.611   1.603  34.566  0.00  0.00    -0.021 C 
ATOM     33  C   UNL A   1     -10.609   1.318  33.514  0.00  0.00    -0.004 C 
BRANCH  33  34
ATOM     34  C   UNL A   1     -11.987   1.506  33.833  0.00  0.00    -0.000 C 
ATOM     35  C   UNL A   1     -12.990   1.137  33.029  0.00  0.00    -0.000 C 
ENDBRANCH  33  34
ENDBRANCH  31  32
ENDBRANCH   2  31
TORSDOF 7
ENDMDL
ENDMDL
