REMARK  Name = No_1612-gen_results/8p0m/2024-11-27-11-27-31/
REMARK  7 active torsions:
REMARK  status: ('A' for Active; 'I' for Inactive)
REMARK    1  A    between atoms: C_3  and  C_16
REMARK    2  A    between atoms: C_16  and  C_17
REMARK    3  A    between atoms: C_18  and  C_31
REMARK    4  A    between atoms: C_21  and  C_23
REMARK    5  A    between atoms: C_23  and  C_24
REMARK    6  A    between atoms: C_31  and  C_32
REMARK    7  A    between atoms: C_33  and  C_34
REMARK                            x       y       z     vdW  Elec       q    Type
REMARK                         _______ _______ _______ _____ _____    ______ ____
ROOT
ATOM      1  C   UNL A   1     -25.925   0.336  26.714  0.00  0.00    -0.022 A 
ATOM      2  C   UNL A   1     -25.527   1.375  26.575  0.00  0.00    -0.021 A 
ATOM      3  C   UNL A   1     -25.798   2.234  25.375  0.00  0.00    -0.004 A 
ATOM      4  C   UNL A   1     -26.995   2.302  25.200  0.00  0.00    -0.004 A 
ATOM      5  C   UNL A   1     -27.826   1.183  25.316  0.00  0.00    -0.019 A 
ATOM      6  C   UNL A   1     -27.312   0.168  26.169  0.00  0.00    -0.008 A 
ENDROOT
BRANCH   5   7
ATOM      7  C   UNL A   1     -29.159   1.088  24.795  0.00  0.00    +0.045 C 
ATOM      8  C   UNL A   1     -29.312   0.500  23.578  0.00  0.00    +0.009 C 
BRANCH   7   9
ATOM      9  C   UNL A   1     -30.219   1.429  25.677  0.00  0.00    -0.018 A 
ATOM     10  C   UNL A   1     -31.536   1.212  25.294  0.00  0.00    -0.004 A 
ATOM     11  C   UNL A   1     -32.627   1.454  26.130  0.00  0.00    -0.000 A 
ATOM     12  C   UNL A   1     -32.363   2.078  27.392  0.00  0.00    -0.000 A 
ATOM     13  C   UNL A   1     -31.052   2.398  27.764  0.00  0.00    -0.000 A 
ATOM     14  C   UNL A   1     -30.021   2.071  26.965  0.00  0.00    -0.004 A 
ENDBRANCH   7   9
ENDBRANCH   5   7
BRANCH   1  15
ATOM     15  C   UNL A   1     -25.620  -0.666  27.678  0.00  0.00    +0.052 C 
BRANCH  15  18
ATOM     16  C   UNL A   1     -28.016  -0.814  28.878  0.00  0.00    +0.002 A 
ATOM     17  C   UNL A   1     -28.469  -0.785  29.829  0.00  0.00    +0.068 A 
ATOM     18  C   UNL A   1     -26.504  -0.778  28.877  0.00  0.00    -0.018 A 
ATOM     19  C   UNL A   1     -25.810  -0.853  30.103  0.00  0.00    -0.003 A 
ATOM     20  C   UNL A   1     -27.991  -0.892  31.226  0.00  0.00    +0.071 A 
ATOM     21  C   UNL A   1     -26.604  -0.868  31.265  0.00  0.00    +0.016 A 
ATOM     22  C   UNL A   1     -30.074  -0.836  29.861  0.00  0.00    +0.251 C 
ATOM     23  O   UNL A   1     -30.561  -0.442  28.942  0.00  0.00    -0.270 OA
ATOM     24  N   UNL A   1     -30.749  -1.403  30.947  0.00  0.00    -0.260 N 
ATOM     25  C   UNL A   1     -32.175  -1.468  30.889  0.00  0.00    +0.095 C 
ATOM     26  C   UNL A   1     -32.681  -2.308  31.613  0.00  0.00    +0.022 C 
ATOM     27  C   UNL A   1     -31.959  -3.028  32.694  0.00  0.00    +0.005 C 
ATOM     28  C   UNL A   1     -30.552  -2.932  32.682  0.00  0.00    +0.042 C 
ATOM     29  C   UNL A   1     -29.942  -2.235  31.781  0.00  0.00    +0.169 C 
ATOM     30  N   UNL A   1     -28.617  -1.964  31.962  0.00  0.00    -0.219 NA
ENDBRANCH  15  18
ENDBRANCH   1  15
BRANCH   2  31
ATOM     31  C   UNL A   1     -23.942   1.534  26.984  0.00  0.00    +0.052 C 
BRANCH  31  32
ATOM     32  C   UNL A   1     -23.139   2.335  26.498  0.00  0.00    -0.021 C 
ATOM     33  C   UNL A   1     -21.776   2.323  27.069  0.00  0.00    -0.004 C 
BRANCH  33  34
ATOM     34  C   UNL A   1     -21.485   1.359  28.080  0.00  0.00    -0.000 C 
ATOM     35  C   UNL A   1     -22.398   0.528  28.594  0.00  0.00    -0.000 C 
ENDBRANCH  33  34
ENDBRANCH  31  32
ENDBRANCH   2  31
TORSDOF 7
