MODEL 1615
MODEL 1
REMARK VINA RESULT:    -6.473      0.000      0.000
REMARK INTER + INTRA:          -7.720
REMARK INTER:                  -7.229
REMARK INTRA:                  -0.491
REMARK UNBOUND:                -0.491
REMARK  Name = No_1615-gen_results/8p0m/2024-11-27-11-27-31/
REMARK  2 active torsions:
REMARK  status: ('A' for Active; 'I' for Inactive)
REMARK    1  A    between atoms: C_2  and  C_7
REMARK    2  A    between atoms: C_7  and  C_8
REMARK                            x       y       z     vdW  Elec       q    Type
REMARK                         _______ _______ _______ _____ _____    ______ ____
ROOT
ATOM      1  C   UNL A   1     -24.357  -1.155  29.394  0.00  0.00    +0.053 C 
ENDROOT
BRANCH   1   3
ATOM      2  C   UNL A   1     -23.846  -3.374  28.646  0.00  0.00    -0.004 A 
ATOM      3  C   UNL A   1     -24.624  -2.639  29.210  0.00  0.00    -0.018 A 
ATOM      4  C   UNL A   1     -25.803  -3.049  29.743  0.00  0.00    -0.004 A 
ATOM      5  C   UNL A   1     -26.147  -4.410  29.637  0.00  0.00    -0.000 A 
ATOM      6  C   UNL A   1     -24.089  -4.793  28.585  0.00  0.00    -0.000 A 
ATOM      7  C   UNL A   1     -25.273  -5.251  29.080  0.00  0.00    -0.000 A 
ENDBRANCH   1   3
BRANCH   1   8
ATOM      8  C   UNL A   1     -23.970  -0.390  28.293  0.00  0.00    -0.018 A 
ATOM      9  C   UNL A   1     -24.901  -0.189  27.304  0.00  0.00    -0.004 A 
ATOM     10  C   UNL A   1     -24.484   0.804  26.394  0.00  0.00    -0.000 A 
ATOM     11  C   UNL A   1     -23.275   1.474  26.605  0.00  0.00    -0.000 A 
ATOM     12  C   UNL A   1     -22.530   1.317  27.770  0.00  0.00    -0.000 A 
ATOM     13  C   UNL A   1     -23.012   0.473  28.701  0.00  0.00    -0.004 A 
ENDBRANCH   1   8
TORSDOF 2
ENDMDL
ENDMDL
