REMARK  Name = outputs/IAG933/test6/raw/output_1615_IAG933_linker_design_.xyz
REMARK  13 active torsions:
REMARK  status: ('A' for Active; 'I' for Inactive)
REMARK    1  A    between atoms: C_1  and  C_2
REMARK    2  A    between atoms: C_1  and  C_8
REMARK    3  A    between atoms: C_1  and  N_30
REMARK    4  A    between atoms: C_13  and  C_40
REMARK    5  A    between atoms: C_14  and  C_15
REMARK    6  A    between atoms: C_21  and  O_22
REMARK    7  A    between atoms: O_22  and  C_23
REMARK    8  A    between atoms: C_23  and  C_24
REMARK    9  A    between atoms: C_28  and  C_38
REMARK   10  A    between atoms: C_33  and  C_40
REMARK   11  A    between atoms: C_35  and  C_38
REMARK   12  A    between atoms: C_35  and  C_43
REMARK   13  A    between atoms: C_36  and  C_43
REMARK                            x       y       z     vdW  Elec       q    Type
REMARK                         _______ _______ _______ _____ _____    ______ ____
ROOT
ATOM      1  N   UNL A   1     -25.016   0.053  29.110  0.00  0.00    -0.267 NA
ATOM      2  C   UNL A   1     -26.094   0.667  28.763  0.00  0.00    +0.075 C 
ATOM      3  C   UNL A   1     -24.935   1.097  27.812  0.00  0.00    +0.085 C 
ENDROOT
BRANCH   3   4
ATOM      4  C   UNL A   1     -25.688   1.614  26.461  0.00  0.00    +0.088 C 
ATOM      5  C   UNL A   1     -26.250   2.920  26.395  0.00  0.00    +0.056 C 
ATOM      6  C   UNL A   1     -27.438   3.091  25.645  0.00  0.00    +0.102 C 
ATOM      7  N   UNL A   1     -28.075   2.089  25.003  0.00  0.00    -0.212 NA
ATOM      8  C   UNL A   1     -27.543   0.849  25.079  0.00  0.00    +0.234 C 
ATOM      9  C   UNL A   1     -26.354   0.576  25.777  0.00  0.00    +0.242 C 
ATOM     10  F   UNL A   1     -25.860  -0.681  25.795  0.00  0.00    -0.227 F 
BRANCH   5  11
ATOM     11  C   UNL A   1     -25.642   4.093  27.123  0.00  0.00    +0.263 C 
ATOM     12  N   UNL A   1     -25.614   5.252  26.449  0.00  0.00    -0.200 NA
ATOM     13  C   UNL A   1     -25.026   6.479  26.963  0.00  0.00    +0.139 C 
ATOM     14  O   UNL A   1     -25.143   3.966  28.243  0.00  0.00    -0.269 OA
ENDBRANCH   5  11
BRANCH   8  15
ATOM     15  O   UNL A   1     -28.193  -0.208  24.477  0.00  0.00    -0.459 OA
BRANCH  15  16
ATOM     16  C   UNL A   1     -29.460   0.005  23.866  0.00  0.00    +0.242 C 
BRANCH  16  17
ATOM     17  C   UNL A   1     -30.065  -1.377  23.573  0.00  0.00    +0.229 C 
ATOM     18  O   UNL A   1     -30.729  -1.878  24.721  0.00  0.00    -0.216 OA
ENDBRANCH  16  17
ENDBRANCH  15  16
ENDBRANCH   8  15
ENDBRANCH   3   4
BRANCH   3  21
ATOM     19  C   UNL A   1     -22.640   1.818  26.470  0.00  0.00    +0.176 C 
ATOM     20  C   UNL A   1     -21.209   0.675  27.961  0.00  0.00    +0.325 C 
ATOM     21  C   UNL A   1     -23.489   1.238  27.515  0.00  0.00    +0.018 C 
ATOM     22  O   UNL A   1     -21.289   1.489  26.809  0.00  0.00    -0.421 OA
ATOM     23  C   UNL A   1     -22.474   0.661  28.450  0.00  0.00    +0.122 C 
ATOM     24  C   UNL A   1     -22.647   0.417  29.899  0.00  0.00    +0.016 C 
ATOM     25  O   UNL A   1     -20.081   0.005  28.401  0.00  0.00    -0.249 OA
ENDBRANCH   3  21
BRANCH   1  26
ATOM     26  C   UNL A   1     -24.855  -1.012  30.143  0.00  0.00    +0.097 C 
BRANCH  26  27
ATOM     27  C   UNL A   1     -24.973  -2.505  29.788  0.00  0.00    -0.006 C 
ATOM     28  C   UNL A   1     -23.906  -3.173  29.146  0.00  0.00    -0.003 C 
ATOM     29  C   UNL A   1     -23.989  -4.549  28.853  0.00  0.00    -0.000 C 
ATOM     30  C   UNL A   1     -25.137  -5.280  29.205  0.00  0.00    -0.000 C 
ATOM     31  C   UNL A   1     -26.232  -4.611  29.784  0.00  0.00    -0.000 C 
ATOM     32  C   UNL A   1     -26.155  -3.232  30.065  0.00  0.00    -0.003 C 
ENDBRANCH  26  27
BRANCH  26  33
ATOM     33  C   UNL A   1     -25.387  -0.679  31.571  0.00  0.00    +0.092 C 
ATOM     34  C   UNL A   1     -25.189   0.773  32.028  0.00  0.00    +0.021 C 
ATOM     35  C   UNL A   1     -25.336   0.684  33.544  0.00  0.00    +0.020 C 
ATOM     36  C   UNL A   1     -24.829  -0.715  33.905  0.00  0.00    +0.089 C 
ATOM     37  N   UNL A   1     -24.758  -1.481  32.646  0.00  0.00    -0.218 NA
ENDBRANCH  26  33
ENDBRANCH   1  26
BRANCH   2  38
ATOM     38  C   UNL A   1     -27.340  -0.150  28.434  0.00  0.00    +0.018 C 
BRANCH  38  39
ATOM     39  C   UNL A   1     -28.755   0.363  28.692  0.00  0.00    +0.001 C 
BRANCH  39  40
ATOM     40  C   UNL A   1     -28.757   1.797  29.274  0.00  0.00    +0.000 C 
BRANCH  40  41
ATOM     41  C   UNL A   1     -30.199   2.385  29.222  0.00  0.00    +0.000 C 
ATOM     42  C   UNL A   1     -30.805   3.123  28.003  0.00  0.00    +0.000 C 
ATOM     43  C   UNL A   1     -30.318   3.330  30.428  0.00  0.00    +0.000 C 
ENDBRANCH  40  41
ENDBRANCH  39  40
ENDBRANCH  38  39
ENDBRANCH   2  38
TORSDOF 13
