MODEL 1616
MODEL 1
REMARK VINA RESULT:    -6.655      0.000      0.000
REMARK INTER + INTRA:          -7.421
REMARK INTER:                  -7.044
REMARK INTRA:                  -0.377
REMARK UNBOUND:                -0.377
REMARK  Name = No_1616-gen_results/8p0m/2024-11-27-11-27-31/
REMARK  1 active torsions:
REMARK  status: ('A' for Active; 'I' for Inactive)
REMARK    1  A    between atoms: C_4  and  C_7
REMARK                            x       y       z     vdW  Elec       q    Type
REMARK                         _______ _______ _______ _____ _____    ______ ____
ROOT
ATOM      1  C   UNL A   1     -24.588  -5.202  28.931  0.00  0.00    +0.000 A 
ATOM      2  C   UNL A   1     -25.558  -5.178  29.341  0.00  0.00    +0.000 A 
ATOM      3  C   UNL A   1     -23.978  -3.903  28.606  0.00  0.00    +0.000 A 
ATOM      4  C   UNL A   1     -24.627  -2.687  28.968  0.00  0.00    +0.000 A 
ATOM      5  C   UNL A   1     -25.862  -2.815  29.553  0.00  0.00    +0.000 A 
ATOM      6  C   UNL A   1     -26.386  -4.033  29.805  0.00  0.00    +0.000 A 
ENDROOT
BRANCH   4   7
ATOM      7  C   UNL A   1     -24.037  -1.406  28.675  0.00  0.00    +0.000 A 
ATOM      8  C   UNL A   1     -24.407  -0.661  28.089  0.00  0.00    +0.000 A 
ATOM      9  C   UNL A   1     -23.680   0.613  27.611  0.00  0.00    +0.000 A 
ATOM     10  C   UNL A   1     -22.415   0.722  28.156  0.00  0.00    +0.000 A 
ATOM     11  C   UNL A   1     -22.638  -1.245  29.200  0.00  0.00    +0.000 A 
ATOM     12  C   UNL A   1     -21.888  -0.208  28.892  0.00  0.00    +0.000 A 
ENDBRANCH   4   7
TORSDOF 1
ENDMDL
ENDMDL
