MODEL 1617
MODEL 1
REMARK VINA RESULT:    -7.183      0.000      0.000
REMARK INTER + INTRA:         -10.741
REMARK INTER:                  -8.863
REMARK INTRA:                  -1.878
REMARK UNBOUND:                -1.878
REMARK  Name = No_1617-gen_results/8p0m/2024-11-27-11-27-31/
REMARK  4 active torsions:
REMARK  status: ('A' for Active; 'I' for Inactive)
REMARK    1  A    between atoms: C_2  and  C_20
REMARK    2  A    between atoms: C_3  and  C_4
REMARK    3  A    between atoms: C_4  and  C_8
REMARK    4  A    between atoms: C_12  and  C_13
REMARK                            x       y       z     vdW  Elec       q    Type
REMARK                         _______ _______ _______ _____ _____    ______ ____
ROOT
ATOM      1  C   UNL A   1     -23.219   0.395  28.681  0.00  0.00    -0.018 A 
ATOM      2  C   UNL A   1     -22.630   1.479  28.115  0.00  0.00    -0.004 A 
ATOM      3  C   UNL A   1     -23.142   1.936  26.838  0.00  0.00    -0.000 A 
ATOM      4  C   UNL A   1     -24.110   1.250  26.182  0.00  0.00    -0.000 A 
ATOM      5  C   UNL A   1     -24.162  -0.352  27.995  0.00  0.00    -0.004 A 
ATOM      6  C   UNL A   1     -24.610   0.067  26.764  0.00  0.00    -0.000 A 
ENDROOT
BRANCH   5   7
ATOM      7  C   UNL A   1     -24.657  -1.517  28.628  0.00  0.00    -0.000 A 
ATOM      8  C   UNL A   1     -25.974  -1.437  29.154  0.00  0.00    -0.000 A 
ATOM      9  C   UNL A   1     -26.534  -2.561  29.814  0.00  0.00    -0.000 A 
ATOM     10  C   UNL A   1     -25.851  -3.736  29.783  0.00  0.00    -0.000 A 
ATOM     11  C   UNL A   1     -24.651  -3.896  29.114  0.00  0.00    -0.000 A 
ATOM     12  C   UNL A   1     -24.068  -2.733  28.545  0.00  0.00    -0.000 A 
ENDBRANCH   5   7
BRANCH   1  13
ATOM     13  C   UNL A   1     -22.568  -0.050  29.924  0.00  0.00    +0.053 C 
BRANCH  13  16
ATOM     14  C   UNL A   1     -24.424   0.945  31.484  0.00  0.00    +0.003 A 
ATOM     15  C   UNL A   1     -24.849   0.850  32.444  0.00  0.00    +0.080 A 
ATOM     16  C   UNL A   1     -23.402  -0.048  31.115  0.00  0.00    -0.018 A 
ATOM     17  C   UNL A   1     -24.768  -0.233  33.453  0.00  0.00    +0.007 A 
ATOM     18  C   UNL A   1     -23.827  -1.217  33.173  0.00  0.00    -0.000 A 
ATOM     19  C   UNL A   1     -23.119  -1.192  31.990  0.00  0.00    -0.004 A 
BRANCH  15  20
ATOM     20  C   UNL A   1     -25.896   1.998  32.926  0.00  0.00    +0.388 C 
ATOM     21  O   UNL A   1     -27.088   1.830  32.839  0.00  0.00    -0.241 OA
ATOM     22  O   UNL A   1     -25.342   3.132  33.201  0.00  0.00    -0.241 OA
ENDBRANCH  15  20
ENDBRANCH  13  16
ENDBRANCH   1  13
TORSDOF 4
ENDMDL
ENDMDL
