MODEL 1618
MODEL 1
REMARK VINA RESULT:    -5.013      0.000      0.000
REMARK INTER + INTRA:          -5.722
REMARK INTER:                  -5.599
REMARK INTRA:                  -0.123
REMARK UNBOUND:                -0.123
REMARK  Name = No_1618-gen_results/8p0m/2024-11-27-11-27-31/
REMARK  2 active torsions:
REMARK  status: ('A' for Active; 'I' for Inactive)
REMARK    1  A    between atoms: C_2  and  C_7
REMARK    2  A    between atoms: C_7  and  N_8
REMARK                            x       y       z     vdW  Elec       q    Type
REMARK                         _______ _______ _______ _____ _____    ______ ____
ROOT
ATOM      1  C   UNL A   1     -22.119   0.758  28.271  0.00  0.00    -0.002 A 
ATOM      2  C   UNL A   1     -22.945   0.108  28.184  0.00  0.00    +0.002 A 
ATOM      3  C   UNL A   1     -22.025   1.839  27.279  0.00  0.00    -0.000 A 
ATOM      4  C   UNL A   1     -23.080   2.063  26.347  0.00  0.00    -0.000 A 
ATOM      5  C   UNL A   1     -24.185   0.152  27.363  0.00  0.00    -0.002 A 
ATOM      6  C   UNL A   1     -24.130   1.137  26.422  0.00  0.00    -0.000 A 
ENDROOT
BRANCH   2   7
ATOM      7  C   UNL A   1     -22.876  -1.024  29.269  0.00  0.00    +0.151 C 
BRANCH   7   8
ATOM      8  N   UNL A   1     -23.215  -2.239  28.894  0.00  0.00    -0.269 NA
ATOM      9  C   UNL A   1     -23.959  -2.964  29.215  0.00  0.00    +0.068 C 
ATOM     10  C   UNL A   1     -24.177  -4.330  28.642  0.00  0.00    +0.053 C 
ENDBRANCH   7   8
ENDBRANCH   2   7
TORSDOF 2
ENDMDL
ENDMDL
