MODEL 161
MODEL 1
REMARK VINA RESULT:    -5.722      0.000      0.000
REMARK INTER + INTRA:          -7.776
REMARK INTER:                  -7.395
REMARK INTRA:                  -0.381
REMARK UNBOUND:                -0.381
REMARK  Name = No_161-gen_results/8p0m/2024-11-27-11-27-31/
REMARK  5 active torsions:
REMARK  status: ('A' for Active; 'I' for Inactive)
REMARK    1  A    between atoms: C_1  and  C_2
REMARK    2  A    between atoms: C_1  and  N_8
REMARK    3  A    between atoms: N_8  and  C_9
REMARK    4  A    between atoms: C_10  and  C_11
REMARK    5  A    between atoms: C_12  and  C_13
REMARK                            x       y       z     vdW  Elec       q    Type
REMARK                         _______ _______ _______ _____ _____    ______ ____
ROOT
ATOM      1  C   UNL A   1     -23.879  -1.302  29.891  0.00  0.00    +0.139 C 
ENDROOT
BRANCH   1   2
ATOM      2  C   UNL A   1     -24.485  -2.328  29.683  0.00  0.00    -0.001 A 
ATOM      3  C   UNL A   1     -23.854  -3.435  29.126  0.00  0.00    -0.003 A 
ATOM      4  C   UNL A   1     -24.491  -4.746  28.813  0.00  0.00    -0.000 A 
ATOM      5  C   UNL A   1     -25.830  -4.916  29.277  0.00  0.00    -0.000 A 
ATOM      6  C   UNL A   1     -26.431  -3.800  29.893  0.00  0.00    -0.000 A 
ATOM      7  C   UNL A   1     -25.820  -2.624  30.099  0.00  0.00    -0.003 A 
ENDBRANCH   1   2
BRANCH   1   8
ATOM      8  N   UNL A   1     -22.770  -1.054  29.071  0.00  0.00    -0.232 NA
BRANCH   8   9
ATOM      9  C   UNL A   1     -22.494  -0.209  28.548  0.00  0.00    +0.080 C 
ATOM     10  C   UNL A   1     -22.686   0.799  28.013  0.00  0.00    +0.017 C 
BRANCH  10  11
ATOM     11  C   UNL A   1     -22.468   1.799  27.070  0.00  0.00    -0.003 C 
ATOM     12  C   UNL A   1     -23.373   2.131  26.061  0.00  0.00    -0.026 C 
BRANCH  12  13
ATOM     13  C   UNL A   1     -24.580   1.479  25.956  0.00  0.00    +0.026 C 
ATOM     14  C   UNL A   1     -24.695   0.500  24.944  0.00  0.00    +0.005 C 
ENDBRANCH  12  13
ENDBRANCH  10  11
ENDBRANCH   8   9
ENDBRANCH   1   8
TORSDOF 5
ENDMDL
ENDMDL
