MODEL 1620
MODEL 1
REMARK VINA RESULT:    -4.300      0.000      0.000
REMARK INTER + INTRA:          -4.300
REMARK INTER:                  -4.300
REMARK INTRA:                   0.000
REMARK UNBOUND:                 0.000
REMARK  Name = No_1620-gen_results/8p0m/2024-11-27-11-27-31/
REMARK  0 active torsions:
REMARK  status: ('A' for Active; 'I' for Inactive)
REMARK                            x       y       z     vdW  Elec       q    Type
REMARK                         _______ _______ _______ _____ _____    ______ ____
ROOT
ATOM      1  C   UNL A   1     -24.983  -5.420  28.996  0.00  0.00    +0.000 A 
ATOM      2  C   UNL A   1     -24.217  -4.751  28.721  0.00  0.00    +0.000 A 
ATOM      3  C   UNL A   1     -26.134  -4.767  29.621  0.00  0.00    +0.000 A 
ATOM      4  C   UNL A   1     -26.193  -3.407  29.800  0.00  0.00    +0.000 A 
ATOM      5  C   UNL A   1     -24.011  -3.304  28.782  0.00  0.00    +0.000 A 
ATOM      6  C   UNL A   1     -25.119  -2.663  29.385  0.00  0.00    +0.000 A 
ENDROOT
TORSDOF 0
ENDMDL
ENDMDL
