MODEL 1621
MODEL 1
REMARK VINA RESULT:    -6.910      0.000      0.000
REMARK INTER + INTRA:          -8.913
REMARK INTER:                  -8.122
REMARK INTRA:                  -0.792
REMARK UNBOUND:                -0.792
REMARK  Name = No_1621-gen_results/8p0m/2024-11-27-11-27-31/
REMARK  3 active torsions:
REMARK  status: ('A' for Active; 'I' for Inactive)
REMARK    1  A    between atoms: C_2  and  C_11
REMARK    2  A    between atoms: C_3  and  C_7
REMARK    3  A    between atoms: N_13  and  C_15
REMARK                            x       y       z     vdW  Elec       q    Type
REMARK                         _______ _______ _______ _____ _____    ______ ____
ROOT
ATOM      1  C   UNL A   1     -24.839   0.008  27.163  0.00  0.00    +0.008 A 
ATOM      2  C   UNL A   1     -25.178   0.284  28.122  0.00  0.00    +0.054 A 
ATOM      3  C   UNL A   1     -25.865   0.116  26.126  0.00  0.00    +0.072 A 
ATOM      4  C   UNL A   1     -27.136   0.557  26.400  0.00  0.00    +0.004 A 
ATOM      5  C   UNL A   1     -26.429   0.779  28.694  0.00  0.00    +0.004 A 
ATOM      6  C   UNL A   1     -27.429   0.887  27.698  0.00  0.00    +0.000 A 
ENDROOT
BRANCH   3   7
ATOM      7  C   UNL A   1     -25.566  -0.191  24.697  0.00  0.00    +0.419 C 
ATOM      8  F   UNL A   1     -26.423   0.436  24.055  0.00  0.00    -0.166 F 
ATOM      9  F   UNL A   1     -24.338   0.205  24.387  0.00  0.00    -0.166 F 
ATOM     10  F   UNL A   1     -25.695  -1.522  24.450  0.00  0.00    -0.166 F 
ENDBRANCH   3   7
BRANCH   2  11
ATOM     11  C   UNL A   1     -24.094   0.295  29.339  0.00  0.00    +0.253 C 
ATOM     12  O   UNL A   1     -23.471   1.308  29.645  0.00  0.00    -0.270 OA
ATOM     13  N   UNL A   1     -23.846  -0.823  30.001  0.00  0.00    -0.253 N 
ATOM     14  C   UNL A   1     -22.861  -0.893  31.026  0.00  0.00    +0.120 C 
BRANCH  13  15
ATOM     15  C   UNL A   1     -24.534  -2.090  29.679  0.00  0.00    +0.054 A 
ATOM     16  C   UNL A   1     -23.788  -2.987  28.986  0.00  0.00    +0.015 A 
ATOM     17  C   UNL A   1     -24.283  -4.141  28.877  0.00  0.00    +0.001 A 
ATOM     18  C   UNL A   1     -25.590  -4.517  29.306  0.00  0.00    +0.000 A 
ATOM     19  C   UNL A   1     -26.311  -3.566  30.008  0.00  0.00    +0.001 A 
ATOM     20  C   UNL A   1     -25.732  -2.321  30.292  0.00  0.00    +0.015 A 
ENDBRANCH  13  15
ENDBRANCH   2  11
TORSDOF 3
ENDMDL
ENDMDL
