REMARK  Name = No_1621-gen_results/8p0m/2024-11-27-11-27-31/
REMARK  3 active torsions:
REMARK  status: ('A' for Active; 'I' for Inactive)
REMARK    1  A    between atoms: C_2  and  C_11
REMARK    2  A    between atoms: C_3  and  C_7
REMARK    3  A    between atoms: N_13  and  C_15
REMARK                            x       y       z     vdW  Elec       q    Type
REMARK                         _______ _______ _______ _____ _____    ______ ____
ROOT
ATOM      1  C   UNL A   1     -28.016  -0.814  28.878  0.00  0.00    +0.008 A 
ATOM      2  C   UNL A   1     -28.469  -0.785  29.829  0.00  0.00    +0.054 A 
ATOM      3  C   UNL A   1     -27.087   0.290  28.638  0.00  0.00    +0.072 A 
ATOM      4  C   UNL A   1     -26.832   1.249  29.587  0.00  0.00    +0.004 A 
ATOM      5  C   UNL A   1     -28.391   0.080  31.006  0.00  0.00    +0.004 A 
ATOM      6  C   UNL A   1     -27.494   1.152  30.784  0.00  0.00    +0.000 A 
ENDROOT
BRANCH   3   7
ATOM      7  C   UNL A   1     -26.317   0.399  27.365  0.00  0.00    +0.419 C 
ATOM      8  F   UNL A   1     -25.845   1.547  27.381  0.00  0.00    -0.166 F 
ATOM      9  F   UNL A   1     -25.361  -0.521  27.323  0.00  0.00    -0.166 F 
ATOM     10  F   UNL A   1     -27.136   0.259  26.289  0.00  0.00    -0.166 F 
ENDBRANCH   3   7
BRANCH   2  11
ATOM     11  C   UNL A   1     -29.451  -2.018  30.244  0.00  0.00    +0.253 C 
ATOM     12  O   UNL A   1     -29.034  -3.167  30.367  0.00  0.00    -0.270 OA
ATOM     13  N   UNL A   1     -30.741  -1.792  30.423  0.00  0.00    -0.253 N 
ATOM     14  C   UNL A   1     -31.660  -2.839  30.717  0.00  0.00    +0.120 C 
BRANCH  13  15
ATOM     15  C   UNL A   1     -31.326  -0.444  30.270  0.00  0.00    +0.054 A 
ATOM     16  C   UNL A   1     -31.915   0.055  31.386  0.00  0.00    +0.015 A 
ATOM     17  C   UNL A   1     -32.240   1.272  31.335  0.00  0.00    +0.001 A 
ATOM     18  C   UNL A   1     -32.151   2.097  30.174  0.00  0.00    +0.000 A 
ATOM     19  C   UNL A   1     -31.543   1.541  29.062  0.00  0.00    +0.001 A 
ATOM     20  C   UNL A   1     -31.021   0.241  29.129  0.00  0.00    +0.015 A 
ENDBRANCH  13  15
ENDBRANCH   2  11
TORSDOF 3
