REMARK  Name = No_1622-gen_results/8p0m/2024-11-27-11-27-31/
REMARK  7 active torsions:
REMARK  status: ('A' for Active; 'I' for Inactive)
REMARK    1  A    between atoms: C_6  and  C_16
REMARK    2  A    between atoms: C_7  and  O_15
REMARK    3  A    between atoms: C_10  and  C_12
REMARK    4  A    between atoms: O_15  and  C_17
REMARK    5  A    between atoms: C_17  and  C_18
REMARK    6  A    between atoms: C_22  and  C_28
REMARK    7  A    between atoms: C_32  and  C_34
REMARK                            x       y       z     vdW  Elec       q    Type
REMARK                         _______ _______ _______ _____ _____    ______ ____
ROOT
ATOM      1  C   UNL A   1     -28.016  -0.814  28.878  0.00  0.00    +0.092 A 
ATOM      2 CL   UNL A   1     -28.621  -1.185  29.735  0.00  0.00    -0.079 Cl
ATOM      3  C   UNL A   1     -26.523  -0.788  28.975  0.00  0.00    +0.015 A 
ATOM      4  C   UNL A   1     -25.694   0.143  28.283  0.00  0.00    +0.001 A 
ATOM      5  C   UNL A   1     -26.272   0.856  27.169  0.00  0.00    +0.007 A 
ATOM      6  C   UNL A   1     -27.631   0.734  27.002  0.00  0.00    +0.090 A 
ATOM      7  C   UNL A   1     -28.378   0.057  27.778  0.00  0.00    +0.154 A 
ATOM      8  C   UNL A   1     -25.286   1.597  26.366  0.00  0.00    +0.000 A 
ATOM      9  C   UNL A   1     -23.962   1.540  26.749  0.00  0.00    +0.002 A 
ATOM     10  C   UNL A   1     -23.479   0.822  27.852  0.00  0.00    +0.030 A 
ATOM     11  C   UNL A   1     -24.287   0.101  28.561  0.00  0.00    +0.003 A 
ENDROOT
BRANCH   6  12
ATOM     12  C   UNL A   1     -27.974   1.428  25.728  0.00  0.00    +0.268 C 
ATOM     13  N   UNL A   1     -29.077   1.296  25.191  0.00  0.00    -0.200 NA
ATOM     14  C   UNL A   1     -29.540   1.797  24.075  0.00  0.00    +0.139 C 
ATOM     15  O   UNL A   1     -27.407   2.479  25.418  0.00  0.00    -0.268 OA
ENDBRANCH   6  12
BRANCH  10  16
ATOM     16  C   UNL A   1     -22.033   0.985  28.184  0.00  0.00    +0.160 C 
ATOM     17  N   UNL A   1     -21.296   1.880  27.592  0.00  0.00    -0.136 NA
ATOM     18 CL   UNL A   1     -21.236  -0.316  28.936  0.00  0.00    -0.059 Cl
ENDBRANCH  10  16
BRANCH   7  19
ATOM     19  O   UNL A   1     -29.749   0.053  27.563  0.00  0.00    -0.474 OA
BRANCH  19  20
ATOM     20  C   UNL A   1     -30.486   0.944  27.781  0.00  0.00    +0.188 C 
ATOM     21  C   UNL A   1     -31.942   0.300  27.624  0.00  0.00    +0.052 C 
BRANCH  20  22
ATOM     22  C   UNL A   1     -30.512   1.797  28.468  0.00  0.00    +0.017 A 
ATOM     23  C   UNL A   1     -30.956   2.769  28.938  0.00  0.00    -0.001 A 
ATOM     24  C   UNL A   1     -30.889   3.665  29.599  0.00  0.00    -0.000 A 
ATOM     25  C   UNL A   1     -29.668   3.716  30.453  0.00  0.00    -0.000 A 
ATOM     26  C   UNL A   1     -28.772   2.668  30.221  0.00  0.00    -0.004 A 
ATOM     27  C   UNL A   1     -29.048   1.759  29.308  0.00  0.00    -0.001 A 
BRANCH  26  28
ATOM     28  C   UNL A   1     -27.513   2.692  31.039  0.00  0.00    -0.015 C 
ATOM     29  C   UNL A   1     -26.850   1.857  31.352  0.00  0.00    -0.008 C 
ATOM     30  C   UNL A   1     -25.639   1.952  32.115  0.00  0.00    -0.026 C 
ATOM     31  C   UNL A   1     -25.238   3.108  32.295  0.00  0.00    -0.022 C 
ATOM     32  C   UNL A   1     -26.794   3.971  31.484  0.00  0.00    +0.066 C 
ATOM     33  C   UNL A   1     -24.904   0.736  32.498  0.00  0.00    +0.031 C 
BRANCH  32  34
ATOM     34  C   UNL A   1     -26.463   5.219  31.394  0.00  0.00    -0.018 C 
ATOM     35  C   UNL A   1     -27.143   6.199  30.725  0.00  0.00    -0.004 C 
ENDBRANCH  32  34
ENDBRANCH  26  28
ENDBRANCH  20  22
ENDBRANCH  19  20
ENDBRANCH   7  19
TORSDOF 7
