MODEL 1622
MODEL 1
REMARK VINA RESULT:    -8.103      0.000      0.000
REMARK INTER + INTRA:         -13.610
REMARK INTER:                 -11.419
REMARK INTRA:                  -2.191
REMARK UNBOUND:                -2.191
REMARK  Name = No_1622-gen_results/8p0m/2024-11-27-11-27-31/
REMARK  7 active torsions:
REMARK  status: ('A' for Active; 'I' for Inactive)
REMARK    1  A    between atoms: C_6  and  C_16
REMARK    2  A    between atoms: C_7  and  O_15
REMARK    3  A    between atoms: C_10  and  C_12
REMARK    4  A    between atoms: O_15  and  C_17
REMARK    5  A    between atoms: C_17  and  C_18
REMARK    6  A    between atoms: C_22  and  C_28
REMARK    7  A    between atoms: C_32  and  C_34
REMARK                            x       y       z     vdW  Elec       q    Type
REMARK                         _______ _______ _______ _____ _____    ______ ____
ROOT
ATOM      1  C   UNL A   1     -24.856   0.878  25.111  0.00  0.00    +0.092 A 
ATOM      2 CL   UNL A   1     -23.997   0.363  24.625  0.00  0.00    -0.079 Cl
ATOM      3  C   UNL A   1     -26.236   0.711  24.557  0.00  0.00    +0.015 A 
ATOM      4  C   UNL A   1     -27.264   1.693  24.665  0.00  0.00    +0.001 A 
ATOM      5  C   UNL A   1     -27.095   2.735  25.650  0.00  0.00    +0.007 A 
ATOM      6  C   UNL A   1     -25.862   2.813  26.253  0.00  0.00    +0.090 A 
ATOM      7  C   UNL A   1     -24.890   2.043  25.972  0.00  0.00    +0.154 A 
ATOM      8  C   UNL A   1     -28.303   3.547  25.864  0.00  0.00    +0.000 A 
ATOM      9  C   UNL A   1     -29.429   3.243  25.127  0.00  0.00    +0.002 A 
ATOM     10  C   UNL A   1     -29.511   2.211  24.182  0.00  0.00    +0.030 A 
ATOM     11  C   UNL A   1     -28.502   1.423  23.993  0.00  0.00    +0.003 A 
ENDROOT
BRANCH   6  12
ATOM     12  C   UNL A   1     -25.967   3.852  27.317  0.00  0.00    +0.268 C 
ATOM     13  N   UNL A   1     -26.143   3.556  28.502  0.00  0.00    -0.200 NA
ATOM     14  C   UNL A   1     -26.285   4.322  29.553  0.00  0.00    +0.139 C 
ATOM     15  O   UNL A   1     -25.433   4.954  27.167  0.00  0.00    -0.268 OA
ENDBRANCH   6  12
BRANCH  10  16
ATOM     16  C   UNL A   1     -30.773   2.118  23.390  0.00  0.00    +0.160 C 
ATOM     17  N   UNL A   1     -31.491   3.172  23.129  0.00  0.00    -0.136 NA
ATOM     18 CL   UNL A   1     -31.536   0.602  23.280  0.00  0.00    -0.059 Cl
ENDBRANCH  10  16
BRANCH   7  19
ATOM     19  O   UNL A   1     -23.664   2.248  26.589  0.00  0.00    -0.474 OA
BRANCH  19  20
ATOM     20  C   UNL A   1     -23.157   1.535  27.376  0.00  0.00    +0.188 C 
ATOM     21  C   UNL A   1     -21.588   1.735  27.138  0.00  0.00    +0.052 C 
BRANCH  20  22
ATOM     22  C   UNL A   1     -23.356   1.231  28.409  0.00  0.00    +0.017 A 
ATOM     23  C   UNL A   1     -23.321   1.333  29.572  0.00  0.00    -0.001 A 
ATOM     24  C   UNL A   1     -23.474   0.934  30.602  0.00  0.00    -0.000 A 
ATOM     25  C   UNL A   1     -24.163  -0.387  30.660  0.00  0.00    -0.000 A 
ATOM     26  C   UNL A   1     -24.429  -0.941  29.404  0.00  0.00    -0.004 A 
ATOM     27  C   UNL A   1     -24.067  -0.297  28.313  0.00  0.00    -0.001 A 
BRANCH  26  28
ATOM     28  C   UNL A   1     -25.098  -2.286  29.411  0.00  0.00    -0.015 C 
ATOM     29  C   UNL A   1     -24.673  -3.294  29.219  0.00  0.00    -0.008 C 
ATOM     30  C   UNL A   1     -25.366  -4.550  29.270  0.00  0.00    -0.026 C 
ATOM     31  C   UNL A   1     -26.513  -4.482  29.728  0.00  0.00    -0.022 C 
ATOM     32  C   UNL A   1     -26.542  -2.532  29.865  0.00  0.00    +0.066 C 
ATOM     33  C   UNL A   1     -24.666  -5.799  28.929  0.00  0.00    +0.031 C 
BRANCH  32  34
ATOM     34  C   UNL A   1     -27.620  -2.269  30.531  0.00  0.00    -0.018 C 
ATOM     35  C   UNL A   1     -27.752  -1.367  31.550  0.00  0.00    -0.004 C 
ENDBRANCH  32  34
ENDBRANCH  26  28
ENDBRANCH  20  22
ENDBRANCH  19  20
ENDBRANCH   7  19
TORSDOF 7
ENDMDL
ENDMDL
