MODEL 1623
MODEL 1
REMARK VINA RESULT:    -4.988      0.000      0.000
REMARK INTER + INTRA:          -5.388
REMARK INTER:                  -5.279
REMARK INTRA:                  -0.109
REMARK UNBOUND:                -0.109
REMARK  Name = No_1623-gen_results/8p0m/2024-11-27-11-27-31/
REMARK  1 active torsions:
REMARK  status: ('A' for Active; 'I' for Inactive)
REMARK    1  A    between atoms: C_2  and  C_3
REMARK                            x       y       z     vdW  Elec       q    Type
REMARK                         _______ _______ _______ _____ _____    ______ ____
ROOT
ATOM      1  C   UNL A   1     -24.212  -2.796  29.062  0.00  0.00    +0.044 A 
ATOM      2  C   UNL A   1     -25.603  -2.522  29.530  0.00  0.00    +0.001 A 
ATOM      3  C   UNL A   1     -26.429  -3.499  29.894  0.00  0.00    -0.000 A 
ATOM      4  C   UNL A   1     -26.089  -4.888  29.588  0.00  0.00    -0.000 A 
ATOM      5  C   UNL A   1     -24.926  -5.204  28.972  0.00  0.00    -0.000 A 
ATOM      6  C   UNL A   1     -24.001  -4.190  28.698  0.00  0.00    +0.001 A 
ENDROOT
BRANCH   1   8
ATOM      7  F   UNL A   1     -22.936  -1.367  30.031  0.00  0.00    -0.193 F 
ATOM      8  C   UNL A   1     -23.365  -1.889  28.995  0.00  0.00    +0.341 C 
ATOM      9  F   UNL A   1     -23.742  -0.884  28.061  0.00  0.00    -0.193 F 
ENDBRANCH   1   8
TORSDOF 1
ENDMDL
ENDMDL
