REMARK  Name = No_1623-gen_results/8p0m/2024-11-27-11-27-31/
REMARK  1 active torsions:
REMARK  status: ('A' for Active; 'I' for Inactive)
REMARK    1  A    between atoms: C_2  and  C_3
REMARK                            x       y       z     vdW  Elec       q    Type
REMARK                         _______ _______ _______ _____ _____    ______ ____
ROOT
ATOM      1  C   UNL A   1     -26.358  -0.071  28.012  0.00  0.00    +0.044 A 
ATOM      2  C   UNL A   1     -26.929   0.340  26.695  0.00  0.00    +0.001 A 
ATOM      3  C   UNL A   1     -26.155   0.657  25.661  0.00  0.00    -0.000 A 
ATOM      4  C   UNL A   1     -24.723   0.874  25.865  0.00  0.00    -0.000 A 
ATOM      5  C   UNL A   1     -24.160   0.721  27.086  0.00  0.00    -0.000 A 
ATOM      6  C   UNL A   1     -24.949   0.269  28.150  0.00  0.00    +0.001 A 
ENDROOT
BRANCH   1   8
ATOM      7  F   UNL A   1     -28.073  -1.254  28.532  0.00  0.00    -0.193 F 
ATOM      8  C   UNL A   1     -27.061  -0.629  28.872  0.00  0.00    +0.341 C 
ATOM      9  F   UNL A   1     -27.366   0.246  29.952  0.00  0.00    -0.193 F 
ENDBRANCH   1   8
TORSDOF 1
