MODEL 1625
MODEL 1
REMARK VINA RESULT:    -6.265      0.000      0.000
REMARK INTER + INTRA:          -8.293
REMARK INTER:                  -7.730
REMARK INTRA:                  -0.562
REMARK UNBOUND:                -0.562
REMARK  Name = No_1625-gen_results/8p0m/2024-11-27-11-27-31/
REMARK  4 active torsions:
REMARK  status: ('A' for Active; 'I' for Inactive)
REMARK    1  A    between atoms: C_1  and  C_7
REMARK    2  A    between atoms: C_3  and  C_12
REMARK    3  A    between atoms: C_13  and  C_14
REMARK    4  A    between atoms: C_15  and  C_16
REMARK                            x       y       z     vdW  Elec       q    Type
REMARK                         _______ _______ _______ _____ _____    ______ ____
ROOT
ATOM      1  C   UNL A   1     -26.036  -2.440  30.128  0.00  0.00    +0.072 A 
ATOM      2  C   UNL A   1     -25.091  -1.736  29.855  0.00  0.00    +0.004 A 
ATOM      3  C   UNL A   1     -23.924  -2.209  29.288  0.00  0.00    +0.001 A 
ATOM      4  C   UNL A   1     -23.849  -3.595  28.973  0.00  0.00    +0.011 A 
ATOM      5  C   UNL A   1     -24.989  -4.305  29.138  0.00  0.00    +0.058 A 
ATOM      6  C   UNL A   1     -26.075  -3.759  29.651  0.00  0.00    +0.015 A 
ATOM      7 CL   UNL A   1     -24.921  -5.958  28.700  0.00  0.00    -0.082 Cl
ENDROOT
BRANCH   1   8
ATOM      8  C   UNL A   1     -27.277  -1.835  30.736  0.00  0.00    +0.419 C 
ATOM      9  F   UNL A   1     -27.072  -1.244  31.801  0.00  0.00    -0.166 F 
ATOM     10  F   UNL A   1     -28.362  -2.482  30.725  0.00  0.00    -0.166 F 
ATOM     11  F   UNL A   1     -27.623  -0.703  29.951  0.00  0.00    -0.166 F 
ENDBRANCH   1   8
BRANCH   3  12
ATOM     12  C   UNL A   1     -22.693  -1.342  29.148  0.00  0.00    +0.000 C 
ATOM     13  C   UNL A   1     -22.876  -0.117  28.581  0.00  0.00    +0.000 C 
BRANCH  13  14
ATOM     14  C   UNL A   1     -21.731   0.723  28.293  0.00  0.00    +0.000 C 
ATOM     15  C   UNL A   1     -21.811   1.732  27.308  0.00  0.00    +0.000 C 
BRANCH  15  16
ATOM     16  C   UNL A   1     -22.999   2.090  26.764  0.00  0.00    +0.000 C 
ATOM     17  C   UNL A   1     -23.092   2.380  25.383  0.00  0.00    +0.000 C 
ENDBRANCH  15  16
ENDBRANCH  13  14
ENDBRANCH   3  12
TORSDOF 4
ENDMDL
ENDMDL
