MODEL 1626
MODEL 1
REMARK VINA RESULT:    -5.175      0.000      0.000
REMARK INTER + INTRA:          -5.523
REMARK INTER:                  -5.478
REMARK INTRA:                  -0.045
REMARK UNBOUND:                -0.045
REMARK  Name = No_1626-gen_results/8p0m/2024-11-27-11-27-31/
REMARK  1 active torsions:
REMARK  status: ('A' for Active; 'I' for Inactive)
REMARK    1  A    between atoms: C_2  and  C_5
REMARK                            x       y       z     vdW  Elec       q    Type
REMARK                         _______ _______ _______ _____ _____    ______ ____
ROOT
ATOM      1  C   UNL A   1     -24.097  -3.660  28.844  0.00  0.00    +0.036 A 
ATOM      2  C   UNL A   1     -24.431  -2.766  29.292  0.00  0.00    +0.082 A 
ATOM      3  C   UNL A   1     -25.006  -4.855  29.024  0.00  0.00    +0.140 A 
ATOM      4  C   UNL A   1     -26.268  -4.680  29.630  0.00  0.00    +0.030 A 
ATOM      5  C   UNL A   1     -26.572  -3.419  30.092  0.00  0.00    +0.003 A 
ATOM      6  C   UNL A   1     -25.697  -2.374  29.904  0.00  0.00    +0.007 A 
ATOM      7  F   UNL A   1     -24.750  -6.081  28.579  0.00  0.00    -0.204 F 
ENDROOT
BRANCH   2   8
ATOM      8  C   UNL A   1     -23.525  -1.528  29.101  0.00  0.00    +0.388 C 
ATOM      9  O   UNL A   1     -22.244  -1.717  28.952  0.00  0.00    -0.241 OA
ATOM     10  O   UNL A   1     -24.060  -0.390  29.048  0.00  0.00    -0.241 OA
ENDBRANCH   2   8
TORSDOF 1
ENDMDL
ENDMDL
