MODEL 1627
MODEL 1
REMARK VINA RESULT:    -4.740      0.000      0.000
REMARK INTER + INTRA:          -5.353
REMARK INTER:                  -5.294
REMARK INTRA:                  -0.059
REMARK UNBOUND:                -0.059
REMARK  Name = No_1627-gen_results/8p0m/2024-11-27-11-27-31/
REMARK  2 active torsions:
REMARK  status: ('A' for Active; 'I' for Inactive)
REMARK    1  A    between atoms: C_1  and  C_2
REMARK    2  A    between atoms: C_1  and  C_8
REMARK                            x       y       z     vdW  Elec       q    Type
REMARK                         _______ _______ _______ _____ _____    ______ ____
ROOT
ATOM      1  C   UNL A   1     -28.369 -11.639  31.360  0.00  0.00    -0.016 A 
ATOM      2  C   UNL A   1     -29.163 -10.622  31.862  0.00  0.00    -0.004 A 
ATOM      3  C   UNL A   1     -30.130  -9.848  31.122  0.00  0.00    -0.000 A 
ATOM      4  C   UNL A   1     -30.308 -10.125  29.746  0.00  0.00    -0.000 A 
ATOM      5  C   UNL A   1     -29.522 -11.156  29.167  0.00  0.00    -0.000 A 
ATOM      6  C   UNL A   1     -28.656 -11.849  29.955  0.00  0.00    -0.004 A 
ENDROOT
BRANCH   1   7
ATOM      7  C   UNL A   1     -27.614 -12.321  32.014  0.00  0.00    +0.075 C 
BRANCH   7   8
ATOM      8  C   UNL A   1     -27.113 -11.823  33.334  0.00  0.00    +0.100 C 
ATOM      9  N   UNL A   1     -27.489 -12.384  34.496  0.00  0.00    -0.151 NA
ENDBRANCH   7   8
ENDBRANCH   1   7
TORSDOF 2
ENDMDL
ENDMDL
