MODEL 1628
MODEL 1
REMARK VINA RESULT:    -6.213      0.000      0.000
REMARK INTER + INTRA:          -9.133
REMARK INTER:                  -8.392
REMARK INTRA:                  -0.741
REMARK UNBOUND:                -0.741
REMARK  Name = No_1628-gen_results/8p0m/2024-11-27-11-27-31/
REMARK  6 active torsions:
REMARK  status: ('A' for Active; 'I' for Inactive)
REMARK    1  A    between atoms: C_2  and  C_3
REMARK    2  A    between atoms: C_3  and  C_4
REMARK    3  A    between atoms: C_3  and  C_12
REMARK    4  A    between atoms: C_4  and  C_5
REMARK    5  A    between atoms: C_5  and  C_6
REMARK    6  A    between atoms: C_13  and  C_14
REMARK                            x       y       z     vdW  Elec       q    Type
REMARK                         _______ _______ _______ _____ _____    ______ ____
ROOT
ATOM      1  C   UNL A   1     -23.209  -1.038  29.240  0.00  0.00    +0.034 C 
ENDROOT
BRANCH   1   3
ATOM      2 BR   UNL A   1     -23.588  -1.051  31.865  0.00  0.00    -0.080 Br
ATOM      3  C   UNL A   1     -22.747  -0.631  30.503  0.00  0.00    +0.072 C 
ENDBRANCH   1   3
BRANCH   1   4
ATOM      4  C   UNL A   1     -23.456  -2.506  29.208  0.00  0.00    -0.026 C 
ATOM      5  C   UNL A   1     -24.065  -3.166  28.579  0.00  0.00    -0.005 C 
BRANCH   5   6
ATOM      6  C   UNL A   1     -24.185  -4.682  28.583  0.00  0.00    -0.005 C 
ATOM      7  C   UNL A   1     -25.253  -5.219  29.304  0.00  0.00    -0.026 C 
ATOM      8  C   UNL A   1     -26.291  -4.281  29.657  0.00  0.00    +0.031 C 
ENDBRANCH   5   6
ENDBRANCH   1   4
BRANCH   1   9
ATOM      9  C   UNL A   1     -23.638  -0.287  28.450  0.00  0.00    +0.010 C 
BRANCH   9  10
ATOM     10  C   UNL A   1     -23.283   0.936  28.508  0.00  0.00    +0.027 C 
BRANCH  10  11
ATOM     11  C   UNL A   1     -23.677   1.707  27.612  0.00  0.00    -0.022 A 
ATOM     12  C   UNL A   1     -22.967   1.857  26.386  0.00  0.00    -0.004 A 
ATOM     13  C   UNL A   1     -23.343   2.856  25.442  0.00  0.00    -0.000 A 
ATOM     14  C   UNL A   1     -24.376   3.727  25.774  0.00  0.00    -0.000 A 
ATOM     15  C   UNL A   1     -24.986   3.670  26.961  0.00  0.00    -0.000 A 
ATOM     16  C   UNL A   1     -24.638   2.789  27.849  0.00  0.00    -0.004 A 
ENDBRANCH  10  11
ENDBRANCH   9  10
ENDBRANCH   1   9
TORSDOF 6
ENDMDL
ENDMDL
