REMARK  Name = No_1628-gen_results/8p0m/2024-11-27-11-27-31/
REMARK  6 active torsions:
REMARK  status: ('A' for Active; 'I' for Inactive)
REMARK    1  A    between atoms: C_2  and  C_3
REMARK    2  A    between atoms: C_3  and  C_4
REMARK    3  A    between atoms: C_3  and  C_12
REMARK    4  A    between atoms: C_4  and  C_5
REMARK    5  A    between atoms: C_5  and  C_6
REMARK    6  A    between atoms: C_13  and  C_14
REMARK                            x       y       z     vdW  Elec       q    Type
REMARK                         _______ _______ _______ _____ _____    ______ ____
ROOT
ATOM      1  C   UNL A   1     -26.316   0.393  27.421  0.00  0.00    +0.034 C 
ENDROOT
BRANCH   1   3
ATOM      2 BR   UNL A   1     -28.115  -0.626  29.081  0.00  0.00    -0.080 Br
ATOM      3  C   UNL A   1     -26.927   0.455  28.685  0.00  0.00    +0.072 C 
ENDBRANCH   1   3
BRANCH   1   4
ATOM      4  C   UNL A   1     -24.833   0.459  27.540  0.00  0.00    -0.026 C 
ATOM      5  C   UNL A   1     -24.104   1.278  27.573  0.00  0.00    -0.005 C 
BRANCH   5   6
ATOM      6  C   UNL A   1     -22.598   1.236  27.778  0.00  0.00    -0.005 C 
ATOM      7  C   UNL A   1     -22.108   0.199  28.574  0.00  0.00    -0.026 C 
ATOM      8  C   UNL A   1     -23.031  -0.885  28.811  0.00  0.00    +0.031 C 
ENDBRANCH   5   6
ENDBRANCH   1   4
BRANCH   1   9
ATOM      9  C   UNL A   1     -26.878   0.021  26.463  0.00  0.00    +0.010 C 
BRANCH   9  10
ATOM     10  C   UNL A   1     -27.229   0.876  25.585  0.00  0.00    +0.027 C 
BRANCH  10  11
ATOM     11  C   UNL A   1     -28.259   1.546  25.793  0.00  0.00    -0.022 A 
ATOM     12  C   UNL A   1     -29.042   2.067  24.723  0.00  0.00    -0.004 A 
ATOM     13  C   UNL A   1     -30.123   2.960  24.977  0.00  0.00    -0.000 A 
ATOM     14  C   UNL A   1     -30.355   3.365  26.288  0.00  0.00    -0.000 A 
ATOM     15  C   UNL A   1     -29.568   2.970  27.292  0.00  0.00    -0.000 A 
ATOM     16  C   UNL A   1     -28.558   2.183  27.079  0.00  0.00    -0.004 A 
ENDBRANCH  10  11
ENDBRANCH   9  10
ENDBRANCH   1   9
TORSDOF 6
