MODEL 1629
MODEL 1
REMARK VINA RESULT:    -5.928      0.000      0.000
REMARK INTER + INTRA:          -6.369
REMARK INTER:                  -6.274
REMARK INTRA:                  -0.094
REMARK UNBOUND:                -0.094
REMARK  Name = No_1629-gen_results/8p0m/2024-11-27-11-27-31/
REMARK  1 active torsions:
REMARK  status: ('A' for Active; 'I' for Inactive)
REMARK    1  A    between atoms: C_11  and  C_12
REMARK                            x       y       z     vdW  Elec       q    Type
REMARK                         _______ _______ _______ _____ _____    ______ ____
ROOT
ATOM      1  O   UNL A   1     -28.333  -4.990  30.864  0.00  0.00    -0.268 OA
ATOM      2  C   UNL A   1     -27.659  -4.058  30.411  0.00  0.00    +0.265 C 
ATOM      3  C   UNL A   1     -26.737  -3.871  29.969  0.00  0.00    +0.051 A 
ATOM      4  N   UNL A   1     -28.166  -2.688  31.032  0.00  0.00    -0.201 NA
ATOM      5  C   UNL A   1     -26.024  -4.910  29.201  0.00  0.00    +0.004 A 
ATOM      6  C   UNL A   1     -27.523  -1.516  30.870  0.00  0.00    +0.120 C 
ATOM      7  C   UNL A   1     -25.977  -2.548  29.620  0.00  0.00    -0.012 A 
ATOM      8  C   UNL A   1     -26.454  -1.422  30.103  0.00  0.00    +0.050 C 
ATOM      9  C   UNL A   1     -24.734  -5.099  29.157  0.00  0.00    +0.000 A 
ATOM     10  C   UNL A   1     -23.942  -3.810  28.890  0.00  0.00    +0.004 A 
ATOM     11  C   UNL A   1     -24.498  -2.579  29.336  0.00  0.00    +0.068 A 
ENDROOT
BRANCH  11  12
ATOM     12  C   UNL A   1     -23.699  -1.391  29.219  0.00  0.00    +0.418 C 
ATOM     13  F   UNL A   1     -23.632  -0.677  30.161  0.00  0.00    -0.166 F 
ATOM     14  F   UNL A   1     -22.364  -1.822  28.793  0.00  0.00    -0.166 F 
ATOM     15  F   UNL A   1     -23.990  -0.623  28.079  0.00  0.00    -0.166 F 
ENDBRANCH  11  12
TORSDOF 1
ENDMDL
ENDMDL
