REMARK  Name = No_1629-gen_results/8p0m/2024-11-27-11-27-31/
REMARK  1 active torsions:
REMARK  status: ('A' for Active; 'I' for Inactive)
REMARK    1  A    between atoms: C_11  and  C_12
REMARK                            x       y       z     vdW  Elec       q    Type
REMARK                         _______ _______ _______ _____ _____    ______ ____
ROOT
ATOM      1  O   UNL A   1     -28.123  -1.335  28.487  0.00  0.00    -0.268 OA
ATOM      2  C   UNL A   1     -27.064  -0.824  28.869  0.00  0.00    +0.265 C 
ATOM      3  C   UNL A   1     -26.402  -0.062  28.622  0.00  0.00    +0.051 A 
ATOM      4  N   UNL A   1     -26.265  -1.867  29.761  0.00  0.00    -0.201 NA
ATOM      5  C   UNL A   1     -26.844   1.134  27.880  0.00  0.00    +0.004 A 
ATOM      6  C   UNL A   1     -25.000  -1.671  30.179  0.00  0.00    +0.120 C 
ATOM      7  C   UNL A   1     -24.979   0.319  29.150  0.00  0.00    -0.012 A 
ATOM      8  C   UNL A   1     -24.365  -0.541  29.933  0.00  0.00    +0.050 C 
ATOM      9  C   UNL A   1     -26.162   1.790  26.982  0.00  0.00    +0.000 A 
ATOM     10  C   UNL A   1     -24.731   2.121  27.430  0.00  0.00    +0.004 A 
ATOM     11  C   UNL A   1     -24.096   1.237  28.346  0.00  0.00    +0.068 A 
ENDROOT
BRANCH  11  12
ATOM     12  C   UNL A   1     -22.711   1.461  28.656  0.00  0.00    +0.418 C 
ATOM     13  F   UNL A   1     -21.910   1.189  27.827  0.00  0.00    -0.166 F 
ATOM     14  F   UNL A   1     -22.591   2.865  29.059  0.00  0.00    -0.166 F 
ATOM     15  F   UNL A   1     -22.309   0.908  29.883  0.00  0.00    -0.166 F 
ENDBRANCH  11  12
TORSDOF 1
