MODEL 162
MODEL 1
REMARK VINA RESULT:    -6.581      0.000      0.000
REMARK INTER + INTRA:          -7.313
REMARK INTER:                  -6.965
REMARK INTRA:                  -0.348
REMARK UNBOUND:                -0.348
REMARK  Name = No_162-gen_results/8p0m/2024-11-27-11-27-31/
REMARK  1 active torsions:
REMARK  status: ('A' for Active; 'I' for Inactive)
REMARK    1  A    between atoms: C_2  and  C_7
REMARK                            x       y       z     vdW  Elec       q    Type
REMARK                         _______ _______ _______ _____ _____    ______ ____
ROOT
ATOM      1  C   UNL A   1     -25.610  -2.520  29.564  0.00  0.00    +0.000 A 
ATOM      2  C   UNL A   1     -24.494  -2.563  29.099  0.00  0.00    +0.000 A 
ATOM      3  C   UNL A   1     -23.920  -3.772  28.721  0.00  0.00    +0.000 A 
ATOM      4  C   UNL A   1     -24.619  -5.017  28.915  0.00  0.00    +0.000 A 
ATOM      5  C   UNL A   1     -25.893  -4.877  29.480  0.00  0.00    +0.000 A 
ATOM      6  C   UNL A   1     -26.384  -3.712  29.836  0.00  0.00    +0.000 A 
ENDROOT
BRANCH   2   7
ATOM      7  C   UNL A   1     -23.620  -1.384  28.855  0.00  0.00    +0.000 A 
ATOM      8  C   UNL A   1     -22.467  -1.178  29.200  0.00  0.00    +0.000 A 
ATOM      9  C   UNL A   1     -21.649  -0.026  28.798  0.00  0.00    +0.000 A 
ATOM     10  C   UNL A   1     -22.270   0.933  27.972  0.00  0.00    +0.000 A 
ATOM     11  C   UNL A   1     -24.189  -0.354  27.955  0.00  0.00    +0.000 A 
ATOM     12  C   UNL A   1     -23.524   0.718  27.575  0.00  0.00    +0.000 A 
ENDBRANCH   2   7
TORSDOF 1
ENDMDL
ENDMDL
