MODEL 1632
MODEL 1
REMARK VINA RESULT:    -6.957      0.000      0.000
REMARK INTER + INTRA:         -11.392
REMARK INTER:                  -8.990
REMARK INTRA:                  -2.402
REMARK UNBOUND:                -2.402
REMARK  Name = No_1632-gen_results/8p0m/2024-11-27-11-27-31/
REMARK  5 active torsions:
REMARK  status: ('A' for Active; 'I' for Inactive)
REMARK    1  A    between atoms: C_2  and  C_16
REMARK    2  A    between atoms: C_3  and  C_7
REMARK    3  A    between atoms: C_8  and  O_14
REMARK    4  A    between atoms: O_14  and  C_15
REMARK    5  A    between atoms: C_19  and  C_26
REMARK                            x       y       z     vdW  Elec       q    Type
REMARK                         _______ _______ _______ _____ _____    ______ ____
ROOT
ATOM      1  C   UNL A   1     -25.840  -2.677  29.628  0.00  0.00    +0.061 A 
ATOM      2  C   UNL A   1     -24.629  -2.467  29.282  0.00  0.00    +0.141 A 
ATOM      3  C   UNL A   1     -23.854  -3.633  28.828  0.00  0.00    +0.037 A 
ATOM      4  C   UNL A   1     -24.412  -4.930  29.034  0.00  0.00    +0.005 A 
ATOM      5  C   UNL A   1     -26.397  -3.970  29.689  0.00  0.00    +0.143 A 
ATOM      6  C   UNL A   1     -25.683  -5.025  29.433  0.00  0.00    +0.030 A 
ATOM      7  F   UNL A   1     -27.670  -4.123  30.114  0.00  0.00    -0.204 F 
ENDROOT
BRANCH   1  10
ATOM      8  C   UNL A   1     -27.034  -1.205  31.375  0.00  0.00    +0.007 A 
ATOM      9  C   UNL A   1     -27.604  -0.325  31.489  0.00  0.00    +0.080 A 
ATOM     10  C   UNL A   1     -26.679  -1.497  29.987  0.00  0.00    +0.005 A 
ATOM     11  C   UNL A   1     -27.047  -0.675  28.950  0.00  0.00    +0.000 A 
ATOM     12  C   UNL A   1     -28.123   0.714  30.600  0.00  0.00    +0.007 A 
ATOM     13  C   UNL A   1     -27.784   0.441  29.254  0.00  0.00    +0.000 A 
BRANCH   9  14
ATOM     14  C   UNL A   1     -28.039   0.120  33.008  0.00  0.00    +0.388 C 
ATOM     15  O   UNL A   1     -29.099   0.576  33.197  0.00  0.00    -0.241 OA
ATOM     16  O   UNL A   1     -27.143   0.031  33.858  0.00  0.00    -0.241 OA
ENDBRANCH   9  14
ENDBRANCH   1  10
BRANCH   2  17
ATOM     17  O   UNL A   1     -24.178  -1.217  29.062  0.00  0.00    -0.477 OA
BRANCH  17  18
ATOM     18  C   UNL A   1     -23.495  -0.633  30.137  0.00  0.00    +0.166 C 
ATOM     19  C   UNL A   1     -23.789   0.700  30.335  0.00  0.00    +0.085 C 
ATOM     20  C   UNL A   1     -23.973   1.567  29.404  0.00  0.00    -0.018 C 
ATOM     21  C   UNL A   1     -23.331   1.455  28.225  0.00  0.00    +0.004 C 
ATOM     22  C   UNL A   1     -22.193   0.886  28.162  0.00  0.00    +0.041 C 
ATOM     23  C   UNL A   1     -21.996  -0.452  29.703  0.00  0.00    +0.055 C 
ATOM     24  C   UNL A   1     -21.530  -0.150  28.529  0.00  0.00    -0.102 C 
ATOM     25  C   UNL A   1     -23.550  -1.435  31.412  0.00  0.00    +0.050 C 
BRANCH  19  26
ATOM     26  C   UNL A   1     -24.212   1.124  31.765  0.00  0.00    -0.018 C 
ATOM     27  C   UNL A   1     -24.954   2.275  31.999  0.00  0.00    -0.004 C 
ENDBRANCH  19  26
ENDBRANCH  17  18
ENDBRANCH   2  17
TORSDOF 5
ENDMDL
ENDMDL
