REMARK  Name = No_1632-gen_results/8p0m/2024-11-27-11-27-31/
REMARK  5 active torsions:
REMARK  status: ('A' for Active; 'I' for Inactive)
REMARK    1  A    between atoms: C_2  and  C_16
REMARK    2  A    between atoms: C_3  and  C_7
REMARK    3  A    between atoms: C_8  and  O_14
REMARK    4  A    between atoms: O_14  and  C_15
REMARK    5  A    between atoms: C_19  and  C_26
REMARK                            x       y       z     vdW  Elec       q    Type
REMARK                         _______ _______ _______ _____ _____    ______ ____
ROOT
ATOM      1  C   UNL A   1     -26.317   0.399  27.365  0.00  0.00    +0.061 A 
ATOM      2  C   UNL A   1     -26.881   0.971  26.372  0.00  0.00    +0.141 A 
ATOM      3  C   UNL A   1     -26.146   0.970  25.097  0.00  0.00    +0.037 A 
ATOM      4  C   UNL A   1     -24.779   0.561  25.112  0.00  0.00    +0.005 A 
ATOM      5  C   UNL A   1     -25.007  -0.116  27.299  0.00  0.00    +0.143 A 
ATOM      6  C   UNL A   1     -24.288   0.006  26.223  0.00  0.00    +0.030 A 
ATOM      7  F   UNL A   1     -24.453  -0.661  28.404  0.00  0.00    -0.204 F 
ENDROOT
BRANCH   1  10
ATOM      8  C   UNL A   1     -28.016  -0.814  28.878  0.00  0.00    +0.007 A 
ATOM      9  C   UNL A   1     -28.469  -0.785  29.829  0.00  0.00    +0.080 A 
ATOM     10  C   UNL A   1     -27.087   0.290  28.638  0.00  0.00    +0.005 A 
ATOM     11  C   UNL A   1     -26.832   1.249  29.587  0.00  0.00    +0.000 A 
ATOM     12  C   UNL A   1     -28.391   0.080  31.006  0.00  0.00    +0.007 A 
ATOM     13  C   UNL A   1     -27.494   1.152  30.784  0.00  0.00    +0.000 A 
BRANCH   9  14
ATOM     14  C   UNL A   1     -29.512  -1.990  30.223  0.00  0.00    +0.388 C 
ATOM     15  O   UNL A   1     -29.136  -2.900  30.854  0.00  0.00    -0.241 OA
ATOM     16  O   UNL A   1     -30.639  -1.894  29.718  0.00  0.00    -0.241 OA
ENDBRANCH   9  14
ENDBRANCH   1  10
BRANCH   2  17
ATOM     17  O   UNL A   1     -28.188   1.292  26.409  0.00  0.00    -0.477 OA
BRANCH  17  18
ATOM     18  C   UNL A   1     -28.462   2.660  26.542  0.00  0.00    +0.166 C 
ATOM     19  C   UNL A   1     -29.494   2.947  27.410  0.00  0.00    +0.085 C 
ATOM     20  C   UNL A   1     -30.578   2.266  27.528  0.00  0.00    -0.018 C 
ATOM     21  C   UNL A   1     -31.096   1.611  26.471  0.00  0.00    +0.004 C 
ATOM     22  C   UNL A   1     -30.901   2.040  25.288  0.00  0.00    +0.041 C 
ATOM     23  C   UNL A   1     -29.166   3.132  25.219  0.00  0.00    +0.055 C 
ATOM     24  C   UNL A   1     -30.006   2.475  24.477  0.00  0.00    -0.102 C 
ATOM     25  C   UNL A   1     -27.243   3.512  26.787  0.00  0.00    +0.050 C 
BRANCH  19  26
ATOM     26  C   UNL A   1     -29.211   3.990  28.522  0.00  0.00    -0.018 C 
ATOM     27  C   UNL A   1     -29.958   4.035  29.692  0.00  0.00    -0.004 C 
ENDBRANCH  19  26
ENDBRANCH  17  18
ENDBRANCH   2  17
TORSDOF 5
