MODEL 1634
MODEL 1
REMARK VINA RESULT:    -7.153      0.000      0.000
REMARK INTER + INTRA:          -8.394
REMARK INTER:                  -7.990
REMARK INTRA:                  -0.404
REMARK UNBOUND:                -0.404
REMARK  Name = No_1634-gen_results/8p0m/2024-11-27-11-27-31/
REMARK  2 active torsions:
REMARK  status: ('A' for Active; 'I' for Inactive)
REMARK    1  A    between atoms: C_3  and  C_7
REMARK    2  A    between atoms: C_5  and  C_14
REMARK                            x       y       z     vdW  Elec       q    Type
REMARK                         _______ _______ _______ _____ _____    ______ ____
ROOT
ATOM      1  C   UNL A   1     -24.711  -5.020  28.886  0.00  0.00    +0.000 A 
ATOM      2  C   UNL A   1     -24.046  -4.018  28.749  0.00  0.00    +0.000 A 
ATOM      3  C   UNL A   1     -24.480  -2.731  29.018  0.00  0.00    +0.000 A 
ATOM      4  C   UNL A   1     -25.805  -2.586  29.524  0.00  0.00    +0.007 A 
ATOM      5  C   UNL A   1     -26.463  -3.719  29.816  0.00  0.00    +0.080 A 
ATOM      6  C   UNL A   1     -25.957  -4.893  29.570  0.00  0.00    +0.007 A 
ENDROOT
BRANCH   3   7
ATOM      7  C   UNL A   1     -23.663  -1.506  28.698  0.00  0.00    +0.001 A 
ATOM      8  C   UNL A   1     -24.319  -0.611  27.941  0.00  0.00    +0.011 A 
ATOM      9  C   UNL A   1     -23.609   0.594  27.472  0.00  0.00    +0.058 A 
ATOM     10  C   UNL A   1     -22.454   0.950  28.148  0.00  0.00    +0.011 A 
ATOM     11  C   UNL A   1     -22.464  -1.133  29.243  0.00  0.00    +0.000 A 
ATOM     12  C   UNL A   1     -21.761   0.028  28.862  0.00  0.00    +0.001 A 
ATOM     13 CL   UNL A   1     -24.458   1.728  26.488  0.00  0.00    -0.082 Cl
ENDBRANCH   3   7
BRANCH   5  14
ATOM     14  C   UNL A   1     -27.813  -3.568  30.428  0.00  0.00    +0.388 C 
ATOM     15  O   UNL A   1     -28.343  -4.417  31.079  0.00  0.00    -0.241 OA
ATOM     16  O   UNL A   1     -28.577  -2.509  30.140  0.00  0.00    -0.241 OA
ENDBRANCH   5  14
TORSDOF 2
ENDMDL
ENDMDL
