MODEL 1635
MODEL 1
REMARK VINA RESULT:    -6.320      0.000      0.000
REMARK INTER + INTRA:          -6.929
REMARK INTER:                  -6.689
REMARK INTRA:                  -0.240
REMARK UNBOUND:                -0.240
REMARK  Name = No_1635-gen_results/8p0m/2024-11-27-11-27-31/
REMARK  1 active torsions:
REMARK  status: ('A' for Active; 'I' for Inactive)
REMARK    1  A    between atoms: C_4  and  C_7
REMARK                            x       y       z     vdW  Elec       q    Type
REMARK                         _______ _______ _______ _____ _____    ______ ____
ROOT
ATOM      1  C   UNL A   1     -23.746   0.932  27.750  0.00  0.00    +0.065 C 
ATOM      2  C   UNL A   1     -22.881   1.046  28.341  0.00  0.00    +0.008 C 
ATOM      3  C   UNL A   1     -24.463  -0.348  27.872  0.00  0.00    +0.154 C 
ATOM      4  C   UNL A   1     -24.071  -1.308  28.849  0.00  0.00    +0.080 C 
ATOM      5  C   UNL A   1     -22.959  -0.993  29.590  0.00  0.00    +0.012 C 
ATOM      6  C   UNL A   1     -22.324   0.185  29.418  0.00  0.00    +0.001 C 
ATOM      7  O   UNL A   1     -25.511  -0.638  27.129  0.00  0.00    -0.296 OA
ENDROOT
BRANCH   4   8
ATOM      8  C   UNL A   1     -24.785  -2.564  28.987  0.00  0.00    -0.015 A 
ATOM      9  C   UNL A   1     -25.694  -2.725  29.528  0.00  0.00    -0.004 A 
ATOM     10  C   UNL A   1     -26.380  -4.032  29.858  0.00  0.00    -0.000 A 
ATOM     11  C   UNL A   1     -25.687  -5.106  29.417  0.00  0.00    -0.000 A 
ATOM     12  C   UNL A   1     -24.451  -5.019  28.749  0.00  0.00    -0.000 A 
ATOM     13  C   UNL A   1     -23.947  -3.671  28.524  0.00  0.00    -0.004 A 
ENDBRANCH   4   8
TORSDOF 1
ENDMDL
ENDMDL
