MODEL 1636
MODEL 1
REMARK VINA RESULT:    -7.107      0.000      0.000
REMARK INTER + INTRA:          -9.306
REMARK INTER:                  -8.354
REMARK INTRA:                  -0.952
REMARK UNBOUND:                -0.952
REMARK  Name = No_1636-gen_results/8p0m/2024-11-27-11-27-31/
REMARK  3 active torsions:
REMARK  status: ('A' for Active; 'I' for Inactive)
REMARK    1  A    between atoms: C_2  and  C_7
REMARK    2  A    between atoms: C_6  and  C_14
REMARK    3  A    between atoms: C_7  and  C_8
REMARK                            x       y       z     vdW  Elec       q    Type
REMARK                         _______ _______ _______ _____ _____    ______ ____
ROOT
ATOM      1  C   UNL A   1     -24.374   0.729  25.276  0.00  0.00    -0.004 A 
ATOM      2  C   UNL A   1     -24.479   1.764  25.893  0.00  0.00    -0.018 A 
ATOM      3  C   UNL A   1     -25.657   2.404  26.107  0.00  0.00    -0.004 A 
ATOM      4  C   UNL A   1     -26.832   1.835  25.579  0.00  0.00    -0.000 A 
ATOM      5  C   UNL A   1     -25.544   0.042  24.791  0.00  0.00    -0.000 A 
ATOM      6  C   UNL A   1     -26.749   0.658  24.954  0.00  0.00    -0.000 A 
ENDROOT
BRANCH   6   7
ATOM      7  C   UNL A   1     -27.971  -0.023  24.348  0.00  0.00    -0.000 A 
ATOM      8  C   UNL A   1     -28.217  -0.965  24.057  0.00  0.00    -0.000 A 
ATOM      9  C   UNL A   1     -29.462  -1.451  23.457  0.00  0.00    +0.000 A 
ATOM     10  C   UNL A   1     -29.060   1.099  24.161  0.00  0.00    -0.000 A 
ATOM     11  C   UNL A   1     -30.259   0.732  23.603  0.00  0.00    +0.000 A 
ATOM     12  C   UNL A   1     -30.455  -0.539  23.240  0.00  0.00    +0.000 A 
ENDBRANCH   6   7
BRANCH   2  13
ATOM     13  C   UNL A   1     -23.286   2.465  26.529  0.00  0.00    +0.053 C 
BRANCH  13  14
ATOM     14  C   UNL A   1     -22.617   1.677  27.627  0.00  0.00    -0.018 A 
ATOM     15  C   UNL A   1     -21.432   1.262  27.584  0.00  0.00    -0.004 A 
ATOM     16  C   UNL A   1     -20.861   0.385  28.156  0.00  0.00    -0.000 A 
ATOM     17  C   UNL A   1     -21.684  -0.265  29.226  0.00  0.00    -0.000 A 
ATOM     18  C   UNL A   1     -22.971   0.217  29.318  0.00  0.00    -0.000 A 
ATOM     19  C   UNL A   1     -23.466   1.175  28.557  0.00  0.00    -0.004 A 
ENDBRANCH  13  14
ENDBRANCH   2  13
TORSDOF 3
ENDMDL
ENDMDL
