MODEL 1637
MODEL 1
REMARK VINA RESULT:    -6.388      0.000      0.000
REMARK INTER + INTRA:          -7.094
REMARK INTER:                  -6.761
REMARK INTRA:                  -0.333
REMARK UNBOUND:                -0.333
REMARK  Name = No_1637-gen_results/8p0m/2024-11-27-11-27-31/
REMARK  1 active torsions:
REMARK  status: ('A' for Active; 'I' for Inactive)
REMARK    1  A    between atoms: C_3  and  C_4
REMARK                            x       y       z     vdW  Elec       q    Type
REMARK                         _______ _______ _______ _____ _____    ______ ____
ROOT
ATOM      1  C   UNL A   1     -24.225  -4.940  28.625  0.00  0.00    +0.000 A 
ATOM      2  C   UNL A   1     -23.855  -3.791  28.566  0.00  0.00    +0.000 A 
ATOM      3  C   UNL A   1     -24.577  -2.737  29.025  0.00  0.00    +0.000 A 
ATOM      4  C   UNL A   1     -25.512  -5.258  29.271  0.00  0.00    +0.000 A 
ATOM      5  C   UNL A   1     -26.293  -4.283  29.722  0.00  0.00    +0.000 A 
ATOM      6  C   UNL A   1     -25.848  -2.971  29.635  0.00  0.00    +0.000 A 
ENDROOT
BRANCH   3   7
ATOM      7  C   UNL A   1     -24.137  -1.325  28.962  0.00  0.00    +0.000 A 
ATOM      8  C   UNL A   1     -22.729  -1.078  29.078  0.00  0.00    +0.000 A 
ATOM      9  C   UNL A   1     -22.215   0.227  29.065  0.00  0.00    +0.000 A 
ATOM     10  C   UNL A   1     -24.613  -0.552  27.713  0.00  0.00    +0.000 A 
ATOM     11  C   UNL A   1     -22.639   0.945  27.859  0.00  0.00    +0.000 A 
ATOM     12  C   UNL A   1     -24.117   0.870  27.623  0.00  0.00    +0.000 A 
ENDBRANCH   3   7
TORSDOF 1
ENDMDL
ENDMDL
