MODEL 1638
MODEL 1
REMARK VINA RESULT:    -8.051      0.000      0.000
REMARK INTER + INTRA:         -10.355
REMARK INTER:                  -8.992
REMARK INTRA:                  -1.362
REMARK UNBOUND:                -1.362
REMARK  Name = No_1638-gen_results/8p0m/2024-11-27-11-27-31/
REMARK  2 active torsions:
REMARK  status: ('A' for Active; 'I' for Inactive)
REMARK    1  A    between atoms: C_11  and  C_12
REMARK    2  A    between atoms: C_15  and  C_16
REMARK                            x       y       z     vdW  Elec       q    Type
REMARK                         _______ _______ _______ _____ _____    ______ ____
ROOT
ATOM      1  C   UNL A   1     -23.029  -0.765  29.088  0.00  0.00    +0.000 A 
ATOM      2  C   UNL A   1     -21.890  -0.672  29.411  0.00  0.00    +0.000 A 
ATOM      3  C   UNL A   1     -20.850   0.032  28.668  0.00  0.00    +0.000 A 
ATOM      4  C   UNL A   1     -23.281   0.432  28.235  0.00  0.00    +0.000 A 
ATOM      5  C   UNL A   1     -22.353   1.149  27.592  0.00  0.00    +0.000 A 
ATOM      6  C   UNL A   1     -21.078   0.920  27.776  0.00  0.00    +0.000 A 
ENDROOT
BRANCH   1  17
ATOM      7  C   UNL A   1     -26.226  -4.736  29.593  0.00  0.00    +0.030 A 
ATOM      8  C   UNL A   1     -26.570  -3.844  30.037  0.00  0.00    +0.002 A 
ATOM      9  C   UNL A   1     -24.978  -4.570  28.839  0.00  0.00    +0.140 A 
ATOM     10  C   UNL A   1     -24.445  -3.373  28.591  0.00  0.00    +0.030 A 
ATOM     11  C   UNL A   1     -26.185  -2.461  29.901  0.00  0.00    +0.000 A 
ATOM     12  C   UNL A   1     -26.830  -1.342  30.502  0.00  0.00    +0.000 A 
ATOM     13  C   UNL A   1     -25.045  -2.340  29.170  0.00  0.00    +0.002 A 
ATOM     14  F   UNL A   1     -24.553  -5.895  28.467  0.00  0.00    -0.204 F 
ATOM     15  C   UNL A   1     -26.089  -0.517  31.163  0.00  0.00    +0.000 A 
ATOM     16  C   UNL A   1     -24.717  -0.313  30.590  0.00  0.00    +0.000 A 
ATOM     17  C   UNL A   1     -24.148  -1.250  29.772  0.00  0.00    +0.000 A 
ENDBRANCH   1  17
BRANCH   4  18
ATOM     18  C   UNL A   1     -24.787   0.736  27.877  0.00  0.00    +0.000 A 
ATOM     19  C   UNL A   1     -25.468  -0.074  26.995  0.00  0.00    +0.000 A 
ATOM     20  C   UNL A   1     -25.355   1.912  28.463  0.00  0.00    +0.000 A 
ATOM     21  C   UNL A   1     -26.712   2.047  28.540  0.00  0.00    +0.000 A 
ATOM     22  C   UNL A   1     -26.873   0.131  26.956  0.00  0.00    +0.000 A 
ATOM     23  C   UNL A   1     -27.495   1.222  27.602  0.00  0.00    +0.000 A 
ENDBRANCH   4  18
TORSDOF 2
ENDMDL
ENDMDL
