MODEL 1639
MODEL 1
REMARK VINA RESULT:    -5.983      0.000      0.000
REMARK INTER + INTRA:          -9.066
REMARK INTER:                  -7.732
REMARK INTRA:                  -1.334
REMARK UNBOUND:                -1.334
REMARK  Name = No_1639-gen_results/8p0m/2024-11-27-11-27-31/
REMARK  5 active torsions:
REMARK  status: ('A' for Active; 'I' for Inactive)
REMARK    1  A    between atoms: C_1  and  C_11
REMARK    2  A    between atoms: C_4  and  C_5
REMARK    3  A    between atoms: C_8  and  C_10
REMARK    4  A    between atoms: C_14  and  C_15
REMARK    5  A    between atoms: C_16  and  C_17
REMARK                            x       y       z     vdW  Elec       q    Type
REMARK                         _______ _______ _______ _____ _____    ______ ____
ROOT
ATOM      1  C   UNL A   1     -22.712   1.436  27.837  0.00  0.00    -0.022 C 
ATOM      2  C   UNL A   1     -23.670   1.749  27.014  0.00  0.00    -0.004 C 
ATOM      3  C   UNL A   1     -21.331   1.755  27.449  0.00  0.00    +0.031 C 
ENDROOT
BRANCH   1   7
ATOM      4  C   UNL A   1     -23.597  -0.280  31.418  0.00  0.00    +0.080 A 
ATOM      5  C   UNL A   1     -22.682  -0.732  30.770  0.00  0.00    +0.007 A 
ATOM      6  C   UNL A   1     -22.286  -0.225  29.548  0.00  0.00    -0.000 A 
ATOM      7  C   UNL A   1     -22.971   0.917  29.046  0.00  0.00    -0.004 A 
ATOM      8  C   UNL A   1     -24.083   1.039  31.124  0.00  0.00    +0.007 A 
ATOM      9  C   UNL A   1     -23.868   1.516  29.862  0.00  0.00    -0.000 A 
BRANCH   4  10
ATOM     10  C   UNL A   1     -23.962  -0.655  32.861  0.00  0.00    +0.388 C 
ATOM     11  O   UNL A   1     -24.909  -0.174  33.442  0.00  0.00    -0.241 OA
ATOM     12  O   UNL A   1     -23.164  -1.499  33.508  0.00  0.00    -0.241 OA
ENDBRANCH   4  10
ENDBRANCH   1   7
BRANCH   2  13
ATOM     13  C   UNL A   1     -24.983   1.452  27.298  0.00  0.00    -0.000 C 
ATOM     14  C   UNL A   1     -25.695   0.256  26.856  0.00  0.00    -0.000 C 
BRANCH  14  15
ATOM     15  C   UNL A   1     -25.293  -1.044  27.104  0.00  0.00    -0.000 C 
ATOM     16  C   UNL A   1     -25.397  -1.657  28.328  0.00  0.00    -0.000 C 
BRANCH  16  17
ATOM     17  C   UNL A   1     -24.622  -2.780  28.631  0.00  0.00    -0.005 C 
ATOM     18  C   UNL A   1     -25.160  -3.900  29.274  0.00  0.00    -0.026 C 
ATOM     19  C   UNL A   1     -26.375  -3.800  29.738  0.00  0.00    +0.031 C 
ENDBRANCH  16  17
ENDBRANCH  14  15
ENDBRANCH   2  13
TORSDOF 5
ENDMDL
ENDMDL
