REMARK  Name = outputs/IAG933/test6/raw/output_1639_IAG933_linker_design_.xyz
REMARK  9 active torsions:
REMARK  status: ('A' for Active; 'I' for Inactive)
REMARK    1  A    between atoms: C_1  and  C_2
REMARK    2  A    between atoms: C_1  and  C_8
REMARK    3  A    between atoms: C_1  and  N_28
REMARK    4  A    between atoms: C_13  and  N_29
REMARK    5  A    between atoms: C_14  and  C_15
REMARK    6  A    between atoms: C_21  and  O_22
REMARK    7  A    between atoms: O_22  and  C_23
REMARK    8  A    between atoms: C_23  and  C_24
REMARK    9  A    between atoms: O_37  and  C_41
REMARK                            x       y       z     vdW  Elec       q    Type
REMARK                         _______ _______ _______ _____ _____    ______ ____
ROOT
ATOM      1  N   UNL A   1     -24.758  -0.032  29.209  0.00  0.00    -0.044 N 
ATOM      2  N   UNL A   1     -24.825   1.218  27.552  0.00  0.00    -0.145 N 
ATOM      3  C   UNL A   1     -20.793   0.671  28.025  0.00  0.00    +0.034 C 
ATOM      4  C   UNL A   1     -21.384   1.387  27.022  0.00  0.00    +0.043 C 
ATOM      5  S   UNL A   1     -25.909   0.949  28.651  0.00  0.00    +0.194 S 
ATOM      6  C   UNL A   1     -23.688   1.058  27.594  0.00  0.00    +0.194 C 
ATOM      7  O   UNL A   1     -27.119   0.063  28.666  0.00  0.00    -0.115 OA
ATOM      8  N   UNL A   1     -22.572  -0.095  29.432  0.00  0.00    -0.057 NA
ATOM      9  C   UNL A   1     -21.334  -0.032  29.051  0.00  0.00    +0.290 C 
ATOM     10  O   UNL A   1     -26.348   2.190  29.229  0.00  0.00    -0.115 OA
ATOM     11  C   UNL A   1     -23.566   0.376  28.764  0.00  0.00    +0.361 C 
ATOM     12  C   UNL A   1     -22.717   1.480  26.709  0.00  0.00    +0.211 C 
ENDROOT
BRANCH   2  13
ATOM     13  C   UNL A   1     -25.688   1.614  26.461  0.00  0.00    +0.169 C 
ATOM     14  C   UNL A   1     -26.250   2.920  26.395  0.00  0.00    +0.075 C 
ATOM     15  C   UNL A   1     -27.438   3.091  25.645  0.00  0.00    +0.104 C 
ATOM     16  N   UNL A   1     -28.075   2.089  25.003  0.00  0.00    -0.212 NA
ATOM     17  C   UNL A   1     -27.543   0.849  25.079  0.00  0.00    +0.236 C 
ATOM     18  C   UNL A   1     -26.354   0.576  25.777  0.00  0.00    +0.260 C 
ATOM     19  F   UNL A   1     -25.860  -0.681  25.795  0.00  0.00    -0.225 F 
BRANCH  14  20
ATOM     20  C   UNL A   1     -25.642   4.093  27.123  0.00  0.00    +0.264 C 
ATOM     21  N   UNL A   1     -25.614   5.252  26.449  0.00  0.00    -0.200 NA
ATOM     22  C   UNL A   1     -25.026   6.479  26.963  0.00  0.00    +0.139 C 
ATOM     23  O   UNL A   1     -25.143   3.966  28.243  0.00  0.00    -0.269 OA
ENDBRANCH  14  20
BRANCH  17  24
ATOM     24  O   UNL A   1     -28.193  -0.208  24.477  0.00  0.00    -0.459 OA
BRANCH  24  25
ATOM     25  C   UNL A   1     -29.460   0.005  23.866  0.00  0.00    +0.242 C 
BRANCH  25  26
ATOM     26  C   UNL A   1     -30.065  -1.377  23.573  0.00  0.00    +0.229 C 
ATOM     27  O   UNL A   1     -30.729  -1.878  24.721  0.00  0.00    -0.216 OA
ENDBRANCH  25  26
ENDBRANCH  24  25
ENDBRANCH  17  24
ENDBRANCH   2  13
BRANCH  12  29
ATOM     28  F   UNL A   1     -23.457   0.831  24.681  0.00  0.00    +0.014 F 
ATOM     29  O   UNL A   1     -23.033   1.879  25.450  0.00  0.00    -0.290 OA
ENDBRANCH  12  29
BRANCH   1  30
ATOM     30  C   UNL A   1     -24.855  -1.012  30.143  0.00  0.00    +0.226 C 
BRANCH  30  31
ATOM     31  C   UNL A   1     -24.973  -2.505  29.788  0.00  0.00    +0.023 C 
ATOM     32  C   UNL A   1     -23.906  -3.173  29.146  0.00  0.00    -0.000 C 
ATOM     33  C   UNL A   1     -23.989  -4.549  28.853  0.00  0.00    -0.000 C 
ATOM     34  C   UNL A   1     -25.137  -5.280  29.205  0.00  0.00    -0.000 C 
ATOM     35  C   UNL A   1     -26.232  -4.611  29.784  0.00  0.00    -0.000 C 
ATOM     36  C   UNL A   1     -26.155  -3.232  30.065  0.00  0.00    -0.000 C 
ENDBRANCH  30  31
BRANCH  30  37
ATOM     37  C   UNL A   1     -25.387  -0.679  31.571  0.00  0.00    +0.122 C 
ATOM     38  C   UNL A   1     -25.189   0.773  32.028  0.00  0.00    +0.023 C 
ATOM     39  C   UNL A   1     -25.336   0.684  33.544  0.00  0.00    +0.020 C 
ATOM     40  C   UNL A   1     -24.829  -0.715  33.905  0.00  0.00    +0.089 C 
ATOM     41  N   UNL A   1     -24.758  -1.481  32.646  0.00  0.00    -0.215 NA
ENDBRANCH  30  37
ENDBRANCH   1  30
TORSDOF 9
