MODEL 163
MODEL 1
REMARK VINA RESULT:    -5.405      0.000      0.000
REMARK INTER + INTRA:          -6.031
REMARK INTER:                  -6.037
REMARK INTRA:                   0.006
REMARK UNBOUND:                 0.006
REMARK  Name = No_163-gen_results/8p0m/2024-11-27-11-27-31/
REMARK  2 active torsions:
REMARK  status: ('A' for Active; 'I' for Inactive)
REMARK    1  A    between atoms: C_9  and  C_11
REMARK    2  A    between atoms: C_10  and  C_13
REMARK                            x       y       z     vdW  Elec       q    Type
REMARK                         _______ _______ _______ _____ _____    ______ ____
ROOT
ATOM      1  C   UNL A   1      -9.811   2.565  10.648  0.00  0.00    -0.000 A 
ATOM      2  C   UNL A   1      -8.805   2.041  10.230  0.00  0.00    -0.000 A 
ATOM      3  C   UNL A   1      -7.978   1.270  10.875  0.00  0.00    -0.001 A 
ATOM      4  C   UNL A   1      -8.249   0.997  12.251  0.00  0.00    -0.000 A 
ATOM      5  C   UNL A   1     -10.214   2.242  12.004  0.00  0.00    -0.000 A 
ATOM      6  C   UNL A   1      -9.413   1.474  12.741  0.00  0.00    -0.000 A 
ATOM      7  C   UNL A   1      -8.196   2.180   8.790  0.00  0.00    +0.001 A 
ATOM      8  C   UNL A   1      -7.691   1.083   8.166  0.00  0.00    +0.010 A 
ATOM      9  C   UNL A   1      -6.828   0.248   8.898  0.00  0.00    +0.067 A 
ATOM     10  C   UNL A   1      -7.162   0.166  10.316  0.00  0.00    +0.020 A 
ENDROOT
BRANCH   9  11
ATOM     11  C   UNL A   1      -5.957  -0.666   8.216  0.00  0.00    +0.100 C 
ATOM     12  N   UNL A   1      -5.904  -1.197   7.314  0.00  0.00    -0.191 NA
ENDBRANCH   9  11
BRANCH  10  13
ATOM     13  C   UNL A   1      -6.420  -0.834  11.047  0.00  0.00    +0.209 C 
ATOM     14  O   UNL A   1      -7.111  -1.898  10.942  0.00  0.00    -0.215 OA
ENDBRANCH  10  13
TORSDOF 2
ENDMDL
ENDMDL
