REMARK  Name = No_1640-gen_results/8p0m/2024-11-27-11-27-31/
REMARK  2 active torsions:
REMARK  status: ('A' for Active; 'I' for Inactive)
REMARK    1  A    between atoms: C_1  and  C_2
REMARK    2  A    between atoms: C_1  and  C_8
REMARK                            x       y       z     vdW  Elec       q    Type
REMARK                         _______ _______ _______ _____ _____    ______ ____
ROOT
ATOM      1  C   UNL A   1     -27.064  -0.119  28.608  0.00  0.00    -0.019 A 
ATOM      2  C   UNL A   1     -26.972   0.714  27.506  0.00  0.00    -0.004 A 
ATOM      3  C   UNL A   1     -25.820   1.491  27.116  0.00  0.00    -0.000 A 
ATOM      4  C   UNL A   1     -24.656   1.424  27.918  0.00  0.00    -0.000 A 
ATOM      5  C   UNL A   1     -24.685   0.590  29.066  0.00  0.00    -0.000 A 
ATOM      6  C   UNL A   1     -25.810  -0.127  29.334  0.00  0.00    -0.004 A 
ENDROOT
BRANCH   1   7
ATOM      7  C   UNL A   1     -28.016  -0.814  28.878  0.00  0.00    +0.062 C 
BRANCH   7   8
ATOM      8  C   UNL A   1     -28.044  -1.573  30.169  0.00  0.00    +0.165 C 
ATOM      9  F   UNL A   1     -29.125  -2.237  30.411  0.00  0.00    -0.237 F 
ATOM     10  C   UNL A   1     -26.849  -2.463  30.323  0.00  0.00    +0.038 C 
ENDBRANCH   7   8
ENDBRANCH   1   7
TORSDOF 2
