MODEL 1640
MODEL 1
REMARK VINA RESULT:    -5.041      0.000      0.000
REMARK INTER + INTRA:          -5.949
REMARK INTER:                  -5.630
REMARK INTRA:                  -0.319
REMARK UNBOUND:                -0.319
REMARK  Name = No_1640-gen_results/8p0m/2024-11-27-11-27-31/
REMARK  2 active torsions:
REMARK  status: ('A' for Active; 'I' for Inactive)
REMARK    1  A    between atoms: C_1  and  C_2
REMARK    2  A    between atoms: C_1  and  C_8
REMARK                            x       y       z     vdW  Elec       q    Type
REMARK                         _______ _______ _______ _____ _____    ______ ____
ROOT
ATOM      1  C   UNL A   1     -24.626  -2.437  28.937  0.00  0.00    -0.019 A 
ATOM      2  C   UNL A   1     -25.826  -2.749  29.554  0.00  0.00    -0.004 A 
ATOM      3  C   UNL A   1     -26.340  -4.074  29.802  0.00  0.00    -0.000 A 
ATOM      4  C   UNL A   1     -25.572  -5.187  29.383  0.00  0.00    -0.000 A 
ATOM      5  C   UNL A   1     -24.332  -4.936  28.740  0.00  0.00    -0.000 A 
ATOM      6  C   UNL A   1     -23.919  -3.650  28.578  0.00  0.00    -0.004 A 
ENDROOT
BRANCH   1   7
ATOM      7  C   UNL A   1     -24.183  -1.320  28.801  0.00  0.00    +0.062 C 
BRANCH   7   8
ATOM      8  C   UNL A   1     -23.207  -0.777  29.799  0.00  0.00    +0.165 C 
ATOM      9  F   UNL A   1     -23.133  -1.413  30.921  0.00  0.00    -0.237 F 
ATOM     10  C   UNL A   1     -21.839  -0.609  29.212  0.00  0.00    +0.038 C 
ENDBRANCH   7   8
ENDBRANCH   1   7
TORSDOF 2
ENDMDL
ENDMDL
