MODEL 1641
MODEL 1
REMARK VINA RESULT:    -5.287      0.000      0.000
REMARK INTER + INTRA:          -5.742
REMARK INTER:                  -5.596
REMARK INTRA:                  -0.146
REMARK UNBOUND:                -0.146
REMARK  Name = No_1641-gen_results/8p0m/2024-11-27-11-27-31/
REMARK  1 active torsions:
REMARK  status: ('A' for Active; 'I' for Inactive)
REMARK    1  A    between atoms: C_4  and  C_7
REMARK                            x       y       z     vdW  Elec       q    Type
REMARK                         _______ _______ _______ _____ _____    ______ ____
ROOT
ATOM      1  C   UNL A   1     -26.611  -3.954  29.863  0.00  0.00    -0.000 A 
ATOM      2  C   UNL A   1     -26.108  -4.850  29.626  0.00  0.00    -0.000 A 
ATOM      3  C   UNL A   1     -25.849  -2.707  29.696  0.00  0.00    +0.004 A 
ATOM      4  C   UNL A   1     -24.551  -2.723  29.108  0.00  0.00    +0.071 A 
ATOM      5  C   UNL A   1     -24.809  -5.135  28.957  0.00  0.00    -0.000 A 
ATOM      6  C   UNL A   1     -24.069  -4.002  28.794  0.00  0.00    +0.004 A 
ENDROOT
BRANCH   4   7
ATOM      7  C   UNL A   1     -23.775  -1.544  28.913  0.00  0.00    +0.419 C 
ATOM      8  F   UNL A   1     -22.576  -1.755  28.872  0.00  0.00    -0.166 F 
ATOM      9  F   UNL A   1     -24.031  -0.621  29.957  0.00  0.00    -0.166 F 
ATOM     10  F   UNL A   1     -24.153  -0.907  27.787  0.00  0.00    -0.166 F 
ENDBRANCH   4   7
TORSDOF 1
ENDMDL
ENDMDL
