REMARK  Name = No_1643-gen_results/8p0m/2024-11-27-11-27-31/
REMARK  4 active torsions:
REMARK  status: ('A' for Active; 'I' for Inactive)
REMARK    1  A    between atoms: C_2  and  C_11
REMARK    2  A    between atoms: C_5  and  C_7
REMARK    3  A    between atoms: N_12  and  C_13
REMARK    4  A    between atoms: C_14  and  C_15
REMARK                            x       y       z     vdW  Elec       q    Type
REMARK                         _______ _______ _______ _____ _____    ______ ____
ROOT
ATOM      1  C   UNL A   1     -28.016  -0.814  28.878  0.00  0.00    +0.002 A 
ATOM      2  C   UNL A   1     -27.064  -0.119  28.608  0.00  0.00    +0.019 A 
ATOM      3  C   UNL A   1     -27.001   0.691  27.491  0.00  0.00    +0.002 A 
ATOM      4  C   UNL A   1     -28.137   0.736  26.635  0.00  0.00    +0.005 A 
ATOM      5  C   UNL A   1     -29.236   0.076  27.069  0.00  0.00    +0.055 A 
ATOM      6  C   UNL A   1     -29.218  -0.643  28.175  0.00  0.00    +0.005 A 
ENDROOT
BRANCH   5   7
ATOM      7  C   UNL A   1     -30.415   0.159  26.182  0.00  0.00    +0.265 C 
ATOM      8  N   UNL A   1     -31.373  -0.505  26.485  0.00  0.00    -0.200 NA
ATOM      9  O   UNL A   1     -30.387   0.841  25.108  0.00  0.00    -0.268 OA
ATOM     10  C   UNL A   1     -32.590  -0.593  25.596  0.00  0.00    +0.139 C 
ENDBRANCH   5   7
BRANCH   2  11
ATOM     11  C   UNL A   1     -25.626  -0.113  29.258  0.00  0.00    +0.099 C 
ATOM     12  N   UNL A   1     -24.651   0.312  28.899  0.00  0.00    -0.242 NA
BRANCH  12  13
ATOM     13  C   UNL A   1     -23.459   0.138  29.547  0.00  0.00    +0.099 C 
ATOM     14  C   UNL A   1     -22.217   0.662  29.024  0.00  0.00    +0.021 C 
BRANCH  14  15
ATOM     15  C   UNL A   1     -22.377   1.334  27.802  0.00  0.00    +0.002 C 
ATOM     16  C   UNL A   1     -23.491   1.654  27.151  0.00  0.00    +0.000 C 
ENDBRANCH  14  15
ENDBRANCH  12  13
ENDBRANCH   2  11
TORSDOF 4
