MODEL 1644
MODEL 1
REMARK VINA RESULT:    -5.204      0.000      0.000
REMARK INTER + INTRA:          -5.690
REMARK INTER:                  -5.509
REMARK INTRA:                  -0.181
REMARK UNBOUND:                -0.181
REMARK  Name = No_1644-gen_results/8p0m/2024-11-27-11-27-31/
REMARK  1 active torsions:
REMARK  status: ('A' for Active; 'I' for Inactive)
REMARK    1  A    between atoms: C_2  and  C_7
REMARK                            x       y       z     vdW  Elec       q    Type
REMARK                         _______ _______ _______ _____ _____    ______ ____
ROOT
ATOM      1  C   UNL A   1     -23.943  -3.804  28.843  0.00  0.00    +0.004 A 
ATOM      2  C   UNL A   1     -24.351  -2.904  29.209  0.00  0.00    +0.071 A 
ATOM      3  C   UNL A   1     -24.802  -5.033  29.037  0.00  0.00    -0.000 A 
ATOM      4  C   UNL A   1     -26.111  -4.888  29.543  0.00  0.00    -0.000 A 
ATOM      5  C   UNL A   1     -25.670  -2.482  29.733  0.00  0.00    +0.004 A 
ATOM      6  C   UNL A   1     -26.490  -3.586  29.919  0.00  0.00    -0.000 A 
ENDROOT
BRANCH   2   7
ATOM      7  C   UNL A   1     -23.465  -1.579  29.004  0.00  0.00    +0.419 C 
ATOM      8  F   UNL A   1     -22.333  -1.684  28.880  0.00  0.00    -0.166 F 
ATOM      9  F   UNL A   1     -24.028  -0.869  27.959  0.00  0.00    -0.166 F 
ATOM     10  F   UNL A   1     -23.745  -0.857  30.088  0.00  0.00    -0.166 F 
ENDBRANCH   2   7
TORSDOF 1
ENDMDL
ENDMDL
