MODEL 1645
MODEL 1
REMARK VINA RESULT:    -6.659      0.000      0.000
REMARK INTER + INTRA:         -14.401
REMARK INTER:                 -11.720
REMARK INTRA:                  -2.681
REMARK UNBOUND:                -2.681
REMARK  Name = No_1645-gen_results/8p0m/2024-11-27-11-27-31/
REMARK  13 active torsions:
REMARK  status: ('A' for Active; 'I' for Inactive)
REMARK    1  A    between atoms: C_1  and  C_8
REMARK    2  A    between atoms: C_3  and  C_18
REMARK    3  A    between atoms: C_5  and  C_11
REMARK    4  A    between atoms: C_7  and  C_15
REMARK    5  A    between atoms: C_8  and  O_10
REMARK    6  A    between atoms: O_10  and  C_27
REMARK    7  A    between atoms: C_15  and  O_17
REMARK    8  A    between atoms: O_17  and  C_20
REMARK    9  A    between atoms: C_27  and  C_28
REMARK   10  A    between atoms: C_28  and  O_29
REMARK   11  A    between atoms: O_29  and  C_30
REMARK   12  A    between atoms: C_31  and  C_32
REMARK   13  A    between atoms: C_33  and  C_34
REMARK                            x       y       z     vdW  Elec       q    Type
REMARK                         _______ _______ _______ _____ _____    ______ ____
ROOT
ATOM      1  C   UNL A   1     -24.285   0.854  31.400  0.00  0.00    +0.074 C 
ATOM      2  C   UNL A   1     -24.292   1.030  30.204  0.00  0.00    -0.020 C 
ATOM      3  C   UNL A   1     -24.829   2.164  29.595  0.00  0.00    +0.093 C 
ATOM      4  C   UNL A   1     -24.891   2.455  28.149  0.00  0.00    +0.021 C 
ATOM      5  C   UNL A   1     -24.144   1.577  27.306  0.00  0.00    +0.097 C 
ATOM      6  C   UNL A   1     -23.550   0.450  27.883  0.00  0.00    +0.024 C 
ATOM      7  C   UNL A   1     -23.593   0.186  29.208  0.00  0.00    +0.119 C 
ENDROOT
BRANCH   5   8
ATOM      8  C   UNL A   1     -24.183   1.858  25.870  0.00  0.00    +0.398 C 
ATOM      9  F   UNL A   1     -25.088   2.646  25.555  0.00  0.00    -0.170 F 
ATOM     10  F   UNL A   1     -23.032   2.273  25.334  0.00  0.00    -0.170 F 
ATOM     11  F   UNL A   1     -24.442   0.694  25.159  0.00  0.00    -0.170 F 
ENDBRANCH   5   8
BRANCH   3  12
ATOM     12  C   UNL A   1     -25.564   3.216  30.383  0.00  0.00    +0.234 C 
ATOM     13 CL   UNL A   1     -26.921   3.555  30.031  0.00  0.00    -0.043 Cl
ATOM     14  O   UNL A   1     -24.860   4.020  31.144  0.00  0.00    -0.279 OA
ENDBRANCH   3  12
BRANCH   1  15
ATOM     15  C   UNL A   1     -25.588   0.259  31.896  0.00  0.00    +0.341 C 
ATOM     16  O   UNL A   1     -25.521  -0.866  32.608  0.00  0.00    -0.245 OA
BRANCH  15  17
ATOM     17  O   UNL A   1     -26.707   0.615  31.500  0.00  0.00    -0.441 OA
BRANCH  17  18
ATOM     18  C   UNL A   1     -27.765  -0.147  31.368  0.00  0.00    +0.256 C 
BRANCH  18  19
ATOM     19  C   UNL A   1     -28.336  -0.259  30.025  0.00  0.00    +0.253 C 
BRANCH  19  20
ATOM     20  O   UNL A   1     -27.608  -0.003  29.112  0.00  0.00    -0.468 OA
BRANCH  20  21
ATOM     21  C   UNL A   1     -27.982   0.747  27.995  0.00  0.00    +0.172 C 
ATOM     22  C   UNL A   1     -27.459   0.335  26.746  0.00  0.00    +0.040 C 
BRANCH  22  23
ATOM     23  C   UNL A   1     -27.947   0.888  25.695  0.00  0.00    +0.003 C 
ATOM     24  C   UNL A   1     -27.735   0.383  24.396  0.00  0.00    +0.000 C 
BRANCH  24  25
ATOM     25  C   UNL A   1     -28.267   1.065  23.297  0.00  0.00    +0.000 C 
ATOM     26  C   UNL A   1     -28.731   2.342  23.414  0.00  0.00    +0.000 C 
ENDBRANCH  24  25
ENDBRANCH  22  23
ENDBRANCH  20  21
ENDBRANCH  19  20
ENDBRANCH  18  19
ENDBRANCH  17  18
ENDBRANCH  15  17
ENDBRANCH   1  15
BRANCH   7  27
ATOM     27  C   UNL A   1     -22.861  -0.972  29.755  0.00  0.00    +0.325 C 
ATOM     28  O   UNL A   1     -22.312  -0.899  30.634  0.00  0.00    -0.249 OA
BRANCH  27  29
ATOM     29  O   UNL A   1     -23.063  -2.075  28.996  0.00  0.00    -0.424 OA
BRANCH  29  30
ATOM     30  C   UNL A   1     -24.068  -2.931  29.203  0.00  0.00    +0.148 A 
ATOM     31  C   UNL A   1     -23.870  -4.115  28.745  0.00  0.00    +0.038 A 
ATOM     32  C   UNL A   1     -24.840  -5.224  29.048  0.00  0.00    +0.003 A 
ATOM     33  C   UNL A   1     -26.112  -4.812  29.531  0.00  0.00    +0.000 A 
ATOM     34  C   UNL A   1     -26.340  -3.455  29.830  0.00  0.00    +0.003 A 
ATOM     35  C   UNL A   1     -25.304  -2.524  29.672  0.00  0.00    +0.038 A 
ENDBRANCH  29  30
ENDBRANCH  27  29
ENDBRANCH   7  27
TORSDOF 13
ENDMDL
ENDMDL
