REMARK  Name = No_1646-gen_results/8p0m/2024-11-27-11-27-31/
REMARK  3 active torsions:
REMARK  status: ('A' for Active; 'I' for Inactive)
REMARK    1  A    between atoms: C_3  and  C_4
REMARK    2  A    between atoms: C_4  and  C_8
REMARK    3  A    between atoms: C_9  and  C_15
REMARK                            x       y       z     vdW  Elec       q    Type
REMARK                         _______ _______ _______ _____ _____    ______ ____
ROOT
ATOM      1  C   UNL A   1     -25.213   0.692  27.383  0.00  0.00    -0.018 A 
ATOM      2  C   UNL A   1     -23.920   0.921  27.770  0.00  0.00    -0.002 A 
ATOM      3  C   UNL A   1     -23.258   2.119  27.263  0.00  0.00    -0.000 A 
ATOM      4  C   UNL A   1     -23.932   2.964  26.435  0.00  0.00    -0.000 A 
ATOM      5  C   UNL A   1     -25.857   1.475  26.432  0.00  0.00    -0.004 A 
ATOM      6  C   UNL A   1     -25.219   2.610  25.980  0.00  0.00    -0.000 A 
ENDROOT
BRANCH   2   7
ATOM      7  C   UNL A   1     -23.088   0.126  28.709  0.00  0.00    +0.019 C 
ATOM      8  C   UNL A   1     -21.757   0.305  28.914  0.00  0.00    +0.106 C 
ATOM      9  N   UNL A   1     -21.337  -0.750  29.757  0.00  0.00    -0.127 NA
ENDBRANCH   2   7
BRANCH   1  10
ATOM     10  C   UNL A   1     -25.654  -0.660  27.719  0.00  0.00    +0.053 C 
BRANCH  10  13
ATOM     11  C   UNL A   1     -28.016  -0.814  28.878  0.00  0.00    +0.007 A 
ATOM     12  C   UNL A   1     -28.469  -0.785  29.829  0.00  0.00    +0.057 A 
ATOM     13  C   UNL A   1     -26.504  -0.778  28.877  0.00  0.00    -0.017 A 
ATOM     14  C   UNL A   1     -27.918  -0.937  31.182  0.00  0.00    +0.011 A 
ATOM     15  C   UNL A   1     -26.542  -0.940  31.261  0.00  0.00    +0.001 A 
ATOM     16  C   UNL A   1     -25.783  -0.893  30.120  0.00  0.00    -0.004 A 
ATOM     17 CL   UNL A   1     -30.275  -0.801  29.829  0.00  0.00    -0.082 Cl
ENDBRANCH  10  13
ENDBRANCH   1  10
TORSDOF 3
