MODEL 1647
MODEL 1
REMARK VINA RESULT:    -6.684      0.000      0.000
REMARK INTER + INTRA:          -7.704
REMARK INTER:                  -7.465
REMARK INTRA:                  -0.239
REMARK UNBOUND:                -0.239
REMARK  Name = No_1647-gen_results/8p0m/2024-11-27-11-27-31/
REMARK  2 active torsions:
REMARK  status: ('A' for Active; 'I' for Inactive)
REMARK    1  A    between atoms: C_3  and  C_4
REMARK    2  A    between atoms: C_4  and  C_8
REMARK                            x       y       z     vdW  Elec       q    Type
REMARK                         _______ _______ _______ _____ _____    ______ ____
ROOT
ATOM      1  C   UNL A   1     -24.905  -1.144  29.147  0.00  0.00    +0.053 C 
ENDROOT
BRANCH   1   4
ATOM      2  C   UNL A   1     -23.857  -3.479  28.578  0.00  0.00    -0.004 A 
ATOM      3  C   UNL A   1     -24.077  -4.509  28.544  0.00  0.00    -0.000 A 
ATOM      4  C   UNL A   1     -24.901  -2.599  29.127  0.00  0.00    -0.018 A 
ATOM      5  C   UNL A   1     -25.182  -5.298  29.140  0.00  0.00    -0.000 A 
ATOM      6  C   UNL A   1     -26.209  -4.537  29.687  0.00  0.00    -0.000 A 
ATOM      7  C   UNL A   1     -26.113  -3.162  29.732  0.00  0.00    -0.004 A 
ENDBRANCH   1   4
BRANCH   1   8
ATOM      8  C   UNL A   1     -23.685  -0.490  28.643  0.00  0.00    -0.018 A 
ATOM      9  C   UNL A   1     -23.928   0.501  27.750  0.00  0.00    -0.004 A 
ATOM     10  C   UNL A   1     -22.796   1.268  27.267  0.00  0.00    -0.000 A 
ATOM     11  C   UNL A   1     -21.550   1.069  27.762  0.00  0.00    -0.000 A 
ATOM     12  C   UNL A   1     -22.431  -0.662  29.205  0.00  0.00    -0.004 A 
ATOM     13  C   UNL A   1     -21.375   0.087  28.778  0.00  0.00    -0.000 A 
ENDBRANCH   1   8
TORSDOF 2
ENDMDL
ENDMDL
