REMARK  Name = outputs/IAG933/test6/raw/output_1648_IAG933_linker_design_.xyz
REMARK  10 active torsions:
REMARK  status: ('A' for Active; 'I' for Inactive)
REMARK    1  A    between atoms: C_1  and  C_2
REMARK    2  A    between atoms: C_1  and  C_8
REMARK    3  A    between atoms: C_1  and  N_41
REMARK    4  A    between atoms: C_13  and  N_42
REMARK    5  A    between atoms: C_14  and  C_15
REMARK    6  A    between atoms: C_21  and  O_22
REMARK    7  A    between atoms: O_22  and  C_23
REMARK    8  A    between atoms: C_23  and  C_24
REMARK    9  A    between atoms: C_30  and  C_39
REMARK   10  A    between atoms: C_32  and  C_39
REMARK                            x       y       z     vdW  Elec       q    Type
REMARK                         _______ _______ _______ _____ _____    ______ ____
ROOT
ATOM      1  C   UNL A   1     -22.862   0.363  29.209  0.00  0.00    +0.140 C 
ATOM      2  C   UNL A   1     -25.408   0.511  28.431  0.00  0.00    +0.171 C 
ATOM      3  C   UNL A   1     -22.367   1.107  28.074  0.00  0.00    +0.145 C 
ATOM      4  C   UNL A   1     -22.532   2.053  26.238  0.00  0.00    +0.249 C 
ATOM      5  O   UNL A   1     -21.381   1.885  27.061  0.00  0.00    -0.471 OA
ATOM      6  N   UNL A   1     -24.254   0.023  29.306  0.00  0.00    -0.245 NA
ATOM      7  N   UNL A   1     -24.698   1.213  27.434  0.00  0.00    -0.287 N 
ATOM      8  C   UNL A   1     -23.486   1.575  27.409  0.00  0.00    +0.102 C 
ENDROOT
BRANCH   7   9
ATOM      9  C   UNL A   1     -25.688   1.614  26.461  0.00  0.00    +0.144 C 
ATOM     10  C   UNL A   1     -26.250   2.920  26.395  0.00  0.00    +0.073 C 
ATOM     11  C   UNL A   1     -27.438   3.091  25.645  0.00  0.00    +0.104 C 
ATOM     12  N   UNL A   1     -28.075   2.089  25.003  0.00  0.00    -0.212 NA
ATOM     13  C   UNL A   1     -27.543   0.849  25.079  0.00  0.00    +0.236 C 
ATOM     14  C   UNL A   1     -26.354   0.576  25.777  0.00  0.00    +0.258 C 
ATOM     15  F   UNL A   1     -25.860  -0.681  25.795  0.00  0.00    -0.225 F 
BRANCH  10  16
ATOM     16  C   UNL A   1     -25.642   4.093  27.123  0.00  0.00    +0.264 C 
ATOM     17  N   UNL A   1     -25.614   5.252  26.449  0.00  0.00    -0.200 NA
ATOM     18  C   UNL A   1     -25.026   6.479  26.963  0.00  0.00    +0.139 C 
ATOM     19  O   UNL A   1     -25.143   3.966  28.243  0.00  0.00    -0.269 OA
ENDBRANCH  10  16
BRANCH  13  20
ATOM     20  O   UNL A   1     -28.193  -0.208  24.477  0.00  0.00    -0.459 OA
BRANCH  20  21
ATOM     21  C   UNL A   1     -29.460   0.005  23.866  0.00  0.00    +0.242 C 
BRANCH  21  22
ATOM     22  C   UNL A   1     -30.065  -1.377  23.573  0.00  0.00    +0.229 C 
ATOM     23  O   UNL A   1     -30.729  -1.878  24.721  0.00  0.00    -0.216 OA
ENDBRANCH  21  22
ENDBRANCH  20  21
ENDBRANCH  13  20
ENDBRANCH   7   9
BRANCH   2  24
ATOM     24  C   UNL A   1     -26.939   0.203  28.835  0.00  0.00    +0.208 C 
ATOM     25  O   UNL A   1     -27.463  -0.998  28.854  0.00  0.00    -0.215 OA
BRANCH  24  27
ATOM     26  C   UNL A   1     -29.525   2.498  28.344  0.00  0.00    -0.000 C 
ATOM     27  C   UNL A   1     -27.714   1.242  29.098  0.00  0.00    +0.011 C 
ATOM     28  C   UNL A   1     -27.346   2.233  30.006  0.00  0.00    -0.002 C 
ATOM     29  C   UNL A   1     -28.902   1.310  28.391  0.00  0.00    -0.002 C 
ATOM     30  C   UNL A   1     -29.119   3.513  29.177  0.00  0.00    -0.000 C 
ATOM     31  C   UNL A   1     -28.103   3.391  30.092  0.00  0.00    -0.000 C 
ENDBRANCH  24  27
ENDBRANCH   2  24
BRANCH   6  32
ATOM     32  C   UNL A   1     -24.855  -1.012  30.143  0.00  0.00    +0.098 C 
BRANCH  32  33
ATOM     33  C   UNL A   1     -24.973  -2.505  29.788  0.00  0.00    -0.006 C 
ATOM     34  C   UNL A   1     -23.906  -3.173  29.146  0.00  0.00    -0.003 C 
ATOM     35  C   UNL A   1     -23.989  -4.549  28.853  0.00  0.00    -0.000 C 
ATOM     36  C   UNL A   1     -25.137  -5.280  29.205  0.00  0.00    -0.000 C 
ATOM     37  C   UNL A   1     -26.232  -4.611  29.784  0.00  0.00    -0.000 C 
ATOM     38  C   UNL A   1     -26.155  -3.232  30.065  0.00  0.00    -0.003 C 
ENDBRANCH  32  33
BRANCH  32  39
ATOM     39  C   UNL A   1     -25.387  -0.679  31.571  0.00  0.00    +0.092 C 
ATOM     40  C   UNL A   1     -25.189   0.773  32.028  0.00  0.00    +0.021 C 
ATOM     41  C   UNL A   1     -25.336   0.684  33.544  0.00  0.00    +0.020 C 
ATOM     42  C   UNL A   1     -24.829  -0.715  33.905  0.00  0.00    +0.089 C 
ATOM     43  N   UNL A   1     -24.758  -1.481  32.646  0.00  0.00    -0.218 NA
ENDBRANCH  32  39
ENDBRANCH   6  32
TORSDOF 10
