MODEL 1648
MODEL 1
REMARK VINA RESULT:    -5.296      0.000      0.000
REMARK INTER + INTRA:          -5.750
REMARK INTER:                  -5.606
REMARK INTRA:                  -0.144
REMARK UNBOUND:                -0.144
REMARK  Name = No_1648-gen_results/8p0m/2024-11-27-11-27-31/
REMARK  1 active torsions:
REMARK  status: ('A' for Active; 'I' for Inactive)
REMARK    1  A    between atoms: C_4  and  C_7
REMARK                            x       y       z     vdW  Elec       q    Type
REMARK                         _______ _______ _______ _____ _____    ______ ____
ROOT
ATOM      1  C   UNL A   1     -26.604  -3.952  29.844  0.00  0.00    -0.000 A 
ATOM      2  C   UNL A   1     -26.135  -4.870  29.623  0.00  0.00    -0.000 A 
ATOM      3  C   UNL A   1     -25.809  -2.734  29.615  0.00  0.00    -0.000 A 
ATOM      4  C   UNL A   1     -24.530  -2.810  28.991  0.00  0.00    -0.000 A 
ATOM      5  C   UNL A   1     -24.075  -4.073  28.704  0.00  0.00    -0.000 A 
ATOM      6  C   UNL A   1     -24.836  -5.158  28.959  0.00  0.00    -0.000 A 
ENDROOT
BRANCH   4   7
ATOM      7  C   UNL A   1     -23.746  -1.628  28.742  0.00  0.00    -0.005 C 
ATOM      8  C   UNL A   1     -22.664  -1.321  29.345  0.00  0.00    -0.026 C 
ATOM      9  C   UNL A   1     -21.790  -0.220  28.921  0.00  0.00    +0.031 C 
ENDBRANCH   4   7
TORSDOF 1
ENDMDL
ENDMDL
