REMARK  Name = outputs/IAG933/test6/raw/output_1649_IAG933_linker_design_.xyz
REMARK  18 active torsions:
REMARK  status: ('A' for Active; 'I' for Inactive)
REMARK    1  A    between atoms: C_1  and  C_2
REMARK    2  A    between atoms: C_1  and  C_8
REMARK    3  A    between atoms: C_9  and  C_38
REMARK    4  A    between atoms: C_14  and  C_15
REMARK    5  A    between atoms: C_15  and  O_18
REMARK    6  A    between atoms: O_18  and  C_47
REMARK    7  A    between atoms: C_21  and  O_22
REMARK    8  A    between atoms: O_22  and  C_23
REMARK    9  A    between atoms: C_23  and  C_24
REMARK   10  A    between atoms: N_29  and  C_50
REMARK   11  A    between atoms: N_30  and  C_38
REMARK   12  A    between atoms: C_31  and  C_50
REMARK   13  A    between atoms: C_32  and  O_42
REMARK   14  A    between atoms: C_32  and  C_50
REMARK   15  A    between atoms: N_34  and  C_41
REMARK   16  A    between atoms: C_38  and  C_41
REMARK   17  A    between atoms: C_39  and  C_44
REMARK   18  A    between atoms: C_41  and  C_47
REMARK                            x       y       z     vdW  Elec       q    Type
REMARK                         _______ _______ _______ _____ _____    ______ ____
ROOT
ATOM      1  C   UNL A   1     -25.714   1.796  31.070  0.00  0.00    +0.120 C 
ENDROOT
BRANCH   1   3
ATOM      2  C   UNL A   1     -25.387  -0.679  31.571  0.00  0.00    +0.079 C 
ATOM      3  C   UNL A   1     -25.189   0.773  32.028  0.00  0.00    +0.040 C 
ATOM      4  C   UNL A   1     -25.336   0.684  33.544  0.00  0.00    +0.022 C 
ATOM      5  C   UNL A   1     -24.829  -0.715  33.905  0.00  0.00    +0.089 C 
ATOM      6  N   UNL A   1     -24.758  -1.481  32.646  0.00  0.00    -0.219 NA
BRANCH   2   7
ATOM      7  C   UNL A   1     -24.855  -1.012  30.143  0.00  0.00    +0.044 C 
BRANCH   7   8
ATOM      8  C   UNL A   1     -24.973  -2.505  29.788  0.00  0.00    -0.021 C 
ATOM      9  C   UNL A   1     -23.906  -3.173  29.146  0.00  0.00    -0.004 C 
ATOM     10  C   UNL A   1     -23.989  -4.549  28.853  0.00  0.00    -0.000 C 
ATOM     11  C   UNL A   1     -25.137  -5.280  29.205  0.00  0.00    -0.000 C 
ATOM     12  C   UNL A   1     -26.232  -4.611  29.784  0.00  0.00    -0.000 C 
ATOM     13  C   UNL A   1     -26.155  -3.232  30.065  0.00  0.00    -0.004 C 
ENDBRANCH   7   8
ENDBRANCH   2   7
ENDBRANCH   1   3
BRANCH   1  14
ATOM     14  N   UNL A   1     -26.248   2.977  31.743  0.00  0.00    -0.204 NA
ATOM     15  C   UNL A   1     -25.694   4.097  32.322  0.00  0.00    +0.262 C 
ATOM     16  O   UNL A   1     -24.431   4.222  32.328  0.00  0.00    -0.271 OA
BRANCH  15  17
ATOM     17  C   UNL A   1     -26.481   4.939  33.015  0.00  0.00    +0.189 C 
BRANCH  17  18
ATOM     18  N   UNL A   1     -25.899   6.117  33.547  0.00  0.00    -0.276 N 
ATOM     19  C   UNL A   1     -26.220   7.255  33.824  0.00  0.00    +0.066 C 
ATOM     20  C   UNL A   1     -24.170   7.258  35.907  0.00  0.00    +0.001 C 
ATOM     21  C   UNL A   1     -23.932   6.273  35.001  0.00  0.00    +0.016 C 
ATOM     22  C   UNL A   1     -26.104   8.207  34.820  0.00  0.00    +0.016 C 
ATOM     23  C   UNL A   1     -24.853   6.076  33.959  0.00  0.00    +0.066 C 
ATOM     24  C   UNL A   1     -25.180   8.180  35.798  0.00  0.00    +0.001 C 
ENDBRANCH  17  18
BRANCH  17  25
ATOM     25  C   UNL A   1     -27.860   4.599  33.475  0.00  0.00    +0.215 C 
BRANCH  25  27
ATOM     26  O   UNL A   1     -27.872   2.745  34.799  0.00  0.00    -0.035 OA
ATOM     27  O   UNL A   1     -27.735   4.113  34.827  0.00  0.00    -0.187 OA
ENDBRANCH  25  27
ENDBRANCH  17  25
ENDBRANCH  15  17
ENDBRANCH   1  14
BRANCH   1  28
ATOM     28  C   UNL A   1     -24.651   2.335  30.074  0.00  0.00    +0.159 C 
BRANCH  28  29
ATOM     29  N   UNL A   1     -23.648   1.872  28.974  0.00  0.00    -0.194 NA
ATOM     30  O   UNL A   1     -22.201   0.250  29.295  0.00  0.00    -0.263 OA
ATOM     31  C   UNL A   1     -22.620   1.070  28.555  0.00  0.00    +0.322 C 
BRANCH  31  32
ATOM     32  C   UNL A   1     -21.908   1.679  27.494  0.00  0.00    +0.340 C 
ATOM     33  O   UNL A   1     -22.482   2.180  26.476  0.00  0.00    -0.262 OA
ATOM     34  N   UNL A   1     -20.583   1.643  27.657  0.00  0.00    -0.080 NA
ENDBRANCH  31  32
ENDBRANCH  28  29
BRANCH  28  35
ATOM     35  C   UNL A   1     -25.420   3.252  29.334  0.00  0.00    +0.230 C 
BRANCH  35  36
ATOM     36  O   UNL A   1     -25.143   3.966  28.243  0.00  0.00    -0.459 OA
BRANCH  36  37
ATOM     37  C   UNL A   1     -25.642   4.093  27.123  0.00  0.00    +0.222 C 
ATOM     38  N   UNL A   1     -25.614   5.252  26.449  0.00  0.00    -0.236 NA
ATOM     39  C   UNL A   1     -25.026   6.479  26.963  0.00  0.00    +0.155 C 
BRANCH  37  41
ATOM     40  C   UNL A   1     -25.688   1.614  26.461  0.00  0.00    +0.041 C 
ATOM     41  C   UNL A   1     -26.250   2.920  26.395  0.00  0.00    +0.074 C 
ATOM     42  C   UNL A   1     -27.438   3.091  25.645  0.00  0.00    +0.107 C 
ATOM     43  N   UNL A   1     -28.075   2.089  25.003  0.00  0.00    -0.208 NA
ATOM     44  C   UNL A   1     -27.543   0.849  25.079  0.00  0.00    +0.253 C 
ATOM     45  C   UNL A   1     -26.354   0.576  25.777  0.00  0.00    +0.193 C 
ATOM     46  F   UNL A   1     -25.860  -0.681  25.795  0.00  0.00    -0.199 F 
BRANCH  44  47
ATOM     47  O   UNL A   1     -28.193  -0.208  24.477  0.00  0.00    -0.456 OA
BRANCH  47  48
ATOM     48  C   UNL A   1     -29.460   0.005  23.866  0.00  0.00    +0.243 C 
BRANCH  48  49
ATOM     49  C   UNL A   1     -30.065  -1.377  23.573  0.00  0.00    +0.229 C 
ATOM     50  O   UNL A   1     -30.729  -1.878  24.721  0.00  0.00    -0.216 OA
ENDBRANCH  48  49
ENDBRANCH  47  48
ENDBRANCH  44  47
ENDBRANCH  37  41
ENDBRANCH  36  37
ENDBRANCH  35  36
ENDBRANCH  28  35
ENDBRANCH   1  28
TORSDOF 18
