MODEL 164
MODEL 1
REMARK VINA RESULT:    -4.518      0.000      0.000
REMARK INTER + INTRA:          -4.518
REMARK INTER:                  -4.518
REMARK INTRA:                   0.000
REMARK UNBOUND:                 0.000
REMARK  Name = No_164-gen_results/8p0m/2024-11-27-11-27-31/
REMARK  0 active torsions:
REMARK  status: ('A' for Active; 'I' for Inactive)
REMARK                            x       y       z     vdW  Elec       q    Type
REMARK                         _______ _______ _______ _____ _____    ______ ____
ROOT
ATOM      1  C   UNL A   1     -26.556  -3.819  29.858  0.00  0.00    +0.001 A 
ATOM      2  C   UNL A   1     -26.245  -4.797  29.618  0.00  0.00    +0.000 A 
ATOM      3  C   UNL A   1     -25.555  -2.752  29.702  0.00  0.00    +0.011 A 
ATOM      4  C   UNL A   1     -24.283  -3.030  29.121  0.00  0.00    +0.058 A 
ATOM      5  C   UNL A   1     -24.042  -4.342  28.801  0.00  0.00    +0.011 A 
ATOM      6  C   UNL A   1     -24.989  -5.287  28.989  0.00  0.00    +0.001 A 
ATOM      7 CL   UNL A   1     -23.140  -1.833  28.923  0.00  0.00    -0.082 Cl
ENDROOT
TORSDOF 0
ENDMDL
ENDMDL
