REMARK  Name = outputs/IAG933/test6/raw/output_165_IAG933_linker_design_.xyz
REMARK  18 active torsions:
REMARK  status: ('A' for Active; 'I' for Inactive)
REMARK    1  A    between atoms: C_1  and  C_2
REMARK    2  A    between atoms: C_1  and  C_8
REMARK    3  A    between atoms: C_1  and  N_40
REMARK    4  A    between atoms: C_13  and  C_32
REMARK    5  A    between atoms: C_14  and  C_15
REMARK    6  A    between atoms: C_21  and  O_22
REMARK    7  A    between atoms: O_22  and  C_23
REMARK    8  A    between atoms: C_23  and  C_24
REMARK    9  A    between atoms: C_28  and  C_29
REMARK   10  A    between atoms: C_28  and  C_32
REMARK   11  A    between atoms: C_28  and  C_39
REMARK   12  A    between atoms: C_29  and  O_38
REMARK   13  A    between atoms: C_29  and  C_42
REMARK   14  A    between atoms: C_31  and  C_39
REMARK   15  A    between atoms: C_32  and  O_41
REMARK   16  A    between atoms: C_34  and  O_38
REMARK   17  A    between atoms: C_37  and  N_40
REMARK   18  A    between atoms: N_40  and  O_41
REMARK                            x       y       z     vdW  Elec       q    Type
REMARK                         _______ _______ _______ _____ _____    ______ ____
ROOT
ATOM      1  C   UNL A   1     -24.816   1.003  27.339  0.00  0.00    +0.148 C 
ENDROOT
BRANCH   1   2
ATOM      2  C   UNL A   1     -25.688   1.614  26.461  0.00  0.00    +0.099 C 
ATOM      3  C   UNL A   1     -26.250   2.920  26.395  0.00  0.00    +0.057 C 
ATOM      4  C   UNL A   1     -27.438   3.091  25.645  0.00  0.00    +0.102 C 
ATOM      5  N   UNL A   1     -28.075   2.089  25.003  0.00  0.00    -0.212 NA
ATOM      6  C   UNL A   1     -27.543   0.849  25.079  0.00  0.00    +0.234 C 
ATOM      7  C   UNL A   1     -26.354   0.576  25.777  0.00  0.00    +0.242 C 
ATOM      8  F   UNL A   1     -25.860  -0.681  25.795  0.00  0.00    -0.227 F 
BRANCH   3   9
ATOM      9  C   UNL A   1     -25.642   4.093  27.123  0.00  0.00    +0.263 C 
ATOM     10  N   UNL A   1     -25.614   5.252  26.449  0.00  0.00    -0.200 NA
ATOM     11  C   UNL A   1     -25.026   6.479  26.963  0.00  0.00    +0.139 C 
ATOM     12  O   UNL A   1     -25.143   3.966  28.243  0.00  0.00    -0.269 OA
ENDBRANCH   3   9
BRANCH   6  13
ATOM     13  O   UNL A   1     -28.193  -0.208  24.477  0.00  0.00    -0.459 OA
BRANCH  13  14
ATOM     14  C   UNL A   1     -29.460   0.005  23.866  0.00  0.00    +0.242 C 
BRANCH  14  15
ATOM     15  C   UNL A   1     -30.065  -1.377  23.573  0.00  0.00    +0.229 C 
ATOM     16  O   UNL A   1     -30.729  -1.878  24.721  0.00  0.00    -0.216 OA
ENDBRANCH  14  15
ENDBRANCH  13  14
ENDBRANCH   6  13
ENDBRANCH   1   2
BRANCH   1  17
ATOM     17  O   UNL A   1     -24.840  -0.520  27.933  0.00  0.00    -0.282 OA
BRANCH  17  18
ATOM     18  N   UNL A   1     -25.520  -0.233  29.155  0.00  0.00    -0.130 NA
BRANCH  18  19
ATOM     19  C   UNL A   1     -26.736  -0.347  28.793  0.00  0.00    +0.283 C 
ATOM     20  O   UNL A   1     -27.637  -0.669  28.266  0.00  0.00    -0.198 OA
ENDBRANCH  18  19
BRANCH  18  21
ATOM     21  C   UNL A   1     -24.855  -1.012  30.143  0.00  0.00    +0.125 C 
BRANCH  21  22
ATOM     22  C   UNL A   1     -24.973  -2.505  29.788  0.00  0.00    -0.004 C 
ATOM     23  C   UNL A   1     -23.906  -3.173  29.146  0.00  0.00    -0.003 C 
ATOM     24  C   UNL A   1     -23.989  -4.549  28.853  0.00  0.00    -0.000 C 
ATOM     25  C   UNL A   1     -25.137  -5.280  29.205  0.00  0.00    -0.000 C 
ATOM     26  C   UNL A   1     -26.232  -4.611  29.784  0.00  0.00    -0.000 C 
ATOM     27  C   UNL A   1     -26.155  -3.232  30.065  0.00  0.00    -0.003 C 
ENDBRANCH  21  22
BRANCH  21  28
ATOM     28  C   UNL A   1     -25.387  -0.679  31.571  0.00  0.00    +0.094 C 
ATOM     29  C   UNL A   1     -25.189   0.773  32.028  0.00  0.00    +0.021 C 
ATOM     30  C   UNL A   1     -25.336   0.684  33.544  0.00  0.00    +0.020 C 
ATOM     31  C   UNL A   1     -24.829  -0.715  33.905  0.00  0.00    +0.089 C 
ATOM     32  N   UNL A   1     -24.758  -1.481  32.646  0.00  0.00    -0.218 NA
ENDBRANCH  21  28
ENDBRANCH  18  21
ENDBRANCH  17  18
ENDBRANCH   1  17
BRANCH   1  33
ATOM     33  C   UNL A   1     -23.550   1.263  27.518  0.00  0.00    +0.067 C 
BRANCH  33  34
ATOM     34  C   UNL A   1     -23.191   0.942  28.897  0.00  0.00    +0.026 C 
BRANCH  34  35
ATOM     35  C   UNL A   1     -22.603   0.507  29.552  0.00  0.00    +0.110 C 
ATOM     36  N   UNL A   1     -21.734  -0.283  30.001  0.00  0.00    -0.131 NA
ENDBRANCH  34  35
ENDBRANCH  33  34
BRANCH  33  37
ATOM     37  C   UNL A   1     -22.838   1.188  26.767  0.00  0.00    +0.212 C 
BRANCH  37  40
ATOM     38  F   UNL A   1     -21.758   1.559  24.555  0.00  0.00    -0.168 F 
ATOM     39  F   UNL A   1     -22.796   2.849  25.272  0.00  0.00    -0.168 F 
ATOM     40  C   UNL A   1     -22.913   1.557  25.242  0.00  0.00    +0.422 C 
ATOM     41  F   UNL A   1     -23.593   0.561  24.576  0.00  0.00    -0.168 F 
ENDBRANCH  37  40
BRANCH  37  42
ATOM     42  O   UNL A   1     -21.476   0.870  26.703  0.00  0.00    -0.348 OA
BRANCH  42  44
ATOM     43  C   UNL A   1     -19.870   1.230  28.237  0.00  0.00    +0.035 C 
ATOM     44  C   UNL A   1     -20.791   1.880  27.493  0.00  0.00    +0.142 C 
ENDBRANCH  42  44
ENDBRANCH  37  42
ENDBRANCH  33  37
ENDBRANCH   1  33
TORSDOF 18
