MODEL 1650
MODEL 1
REMARK VINA RESULT:    -6.403      0.000      0.000
REMARK INTER + INTRA:          -6.843
REMARK INTER:                  -6.777
REMARK INTRA:                  -0.066
REMARK UNBOUND:                -0.066
REMARK  Name = No_1650-gen_results/8p0m/2024-11-27-11-27-31/
REMARK  1 active torsions:
REMARK  status: ('A' for Active; 'I' for Inactive)
REMARK    1  A    between atoms: C_8  and  C_11
REMARK                            x       y       z     vdW  Elec       q    Type
REMARK                         _______ _______ _______ _____ _____    ______ ____
ROOT
ATOM      1  C   UNL A   1     -29.683 -11.614  28.080  0.00  0.00    +0.000 A 
ATOM      2  C   UNL A   1     -28.964 -11.950  28.992  0.00  0.00    +0.000 A 
ATOM      3  C   UNL A   1     -29.005 -11.372  30.260  0.00  0.00    +0.000 A 
ATOM      4  C   UNL A   1     -29.912 -10.266  30.503  0.00  0.00    +0.000 A 
ATOM      5  C   UNL A   1     -30.712  -9.923  29.390  0.00  0.00    +0.000 A 
ATOM      6  C   UNL A   1     -30.598 -10.522  28.232  0.00  0.00    +0.000 A 
ATOM      7  C   UNL A   1     -28.164 -11.741  31.429  0.00  0.00    +0.008 A 
ATOM      8  C   UNL A   1     -28.327 -11.250  32.635  0.00  0.00    +0.098 A 
ATOM      9  C   UNL A   1     -29.394 -10.247  32.786  0.00  0.00    +0.008 A 
ATOM     10  C   UNL A   1     -30.128  -9.760  31.790  0.00  0.00    +0.000 A 
ENDROOT
BRANCH   8  11
ATOM     11  C   UNL A   1     -27.567 -11.629  33.806  0.00  0.00    +0.477 C 
ATOM     12  N   UNL A   1     -27.011 -10.667  34.570  0.00  0.00    +0.205 NA
ATOM     13  N   UNL A   1     -26.723 -12.764  33.731  0.00  0.00    +0.205 NA
ENDBRANCH   8  11
TORSDOF 1
ENDMDL
ENDMDL
