REMARK  Name = No_1650-gen_results/8p0m/2024-11-27-11-27-31/
REMARK  1 active torsions:
REMARK  status: ('A' for Active; 'I' for Inactive)
REMARK    1  A    between atoms: C_8  and  C_11
REMARK                            x       y       z     vdW  Elec       q    Type
REMARK                         _______ _______ _______ _____ _____    ______ ____
ROOT
ATOM      1  C   UNL A   1     -28.016  -0.814  28.878  0.00  0.00    +0.000 A 
ATOM      2  C   UNL A   1     -27.064  -0.119  28.608  0.00  0.00    +0.000 A 
ATOM      3  C   UNL A   1     -25.765  -0.390  29.036  0.00  0.00    +0.000 A 
ATOM      4  C   UNL A   1     -25.530  -1.530  29.901  0.00  0.00    +0.000 A 
ATOM      5  C   UNL A   1     -26.689  -2.289  30.181  0.00  0.00    +0.000 A 
ATOM      6  C   UNL A   1     -27.873  -1.951  29.737  0.00  0.00    +0.000 A 
ATOM      7  C   UNL A   1     -24.549   0.410  28.734  0.00  0.00    +0.008 A 
ATOM      8  C   UNL A   1     -23.331   0.044  29.057  0.00  0.00    +0.098 A 
ATOM      9  C   UNL A   1     -23.211  -1.223  29.798  0.00  0.00    +0.008 A 
ATOM     10  C   UNL A   1     -24.236  -1.957  30.220  0.00  0.00    +0.000 A 
ENDROOT
BRANCH   8  11
ATOM     11  C   UNL A   1     -22.122   0.766  28.728  0.00  0.00    +0.477 C 
ATOM     12  N   UNL A   1     -22.151   1.685  27.741  0.00  0.00    +0.205 NA
ATOM     13  N   UNL A   1     -20.890   0.067  28.729  0.00  0.00    +0.205 NA
ENDBRANCH   8  11
TORSDOF 1
