REMARK  Name = No_1651-gen_results/8p0m/2024-11-27-11-27-31/
REMARK  0 active torsions:
REMARK  status: ('A' for Active; 'I' for Inactive)
REMARK                            x       y       z     vdW  Elec       q    Type
REMARK                         _______ _______ _______ _____ _____    ______ ____
ROOT
ATOM      1  O   UNL A   1     -28.123  -1.335  28.487  0.00  0.00    -0.296 OA
ATOM      2  C   UNL A   1     -27.064  -0.824  28.869  0.00  0.00    +0.155 C 
ATOM      3  C   UNL A   1     -25.946  -1.040  28.849  0.00  0.00    +0.090 C 
ATOM      4  C   UNL A   1     -24.760  -0.156  29.164  0.00  0.00    -0.019 A 
ATOM      5  C   UNL A   1     -25.092   1.079  29.649  0.00  0.00    -0.025 A 
ATOM      6  C   UNL A   1     -26.409   1.438  29.707  0.00  0.00    +0.034 C 
ATOM      7  C   UNL A   1     -27.369   0.659  29.415  0.00  0.00    +0.070 C 
ATOM      8  C   UNL A   1     -23.362  -0.567  29.103  0.00  0.00    -0.004 A 
ATOM      9  C   UNL A   1     -22.490  -0.149  29.850  0.00  0.00    -0.000 A 
ATOM     10  C   UNL A   1     -22.744   1.241  30.372  0.00  0.00    -0.000 A 
ATOM     11  C   UNL A   1     -23.973   1.770  30.303  0.00  0.00    -0.005 A 
ENDROOT
TORSDOF 0
