MODEL 1651
MODEL 1
REMARK VINA RESULT:    -5.640      0.000      0.000
REMARK INTER + INTRA:          -5.640
REMARK INTER:                  -5.640
REMARK INTRA:                   0.000
REMARK UNBOUND:                 0.000
REMARK  Name = No_1651-gen_results/8p0m/2024-11-27-11-27-31/
REMARK  0 active torsions:
REMARK  status: ('A' for Active; 'I' for Inactive)
REMARK                            x       y       z     vdW  Elec       q    Type
REMARK                         _______ _______ _______ _____ _____    ______ ____
ROOT
ATOM      1  O   UNL A   1     -26.691 -12.614  33.807  0.00  0.00    -0.296 OA
ATOM      2  C   UNL A   1     -27.396 -12.128  32.915  0.00  0.00    +0.155 C 
ATOM      3  C   UNL A   1     -27.691 -12.343  31.836  0.00  0.00    +0.090 C 
ATOM      4  C   UNL A   1     -28.781 -11.752  30.970  0.00  0.00    -0.019 A 
ATOM      5  C   UNL A   1     -29.460 -10.716  31.549  0.00  0.00    -0.025 A 
ATOM      6  C   UNL A   1     -29.184 -10.384  32.846  0.00  0.00    +0.034 C 
ATOM      7  C   UNL A   1     -28.265 -10.925  33.536  0.00  0.00    +0.070 C 
ATOM      8  C   UNL A   1     -29.048 -12.119  29.584  0.00  0.00    -0.004 A 
ATOM      9  C   UNL A   1     -29.455 -11.341  28.734  0.00  0.00    -0.000 A 
ATOM     10  C   UNL A   1     -30.279 -10.206  29.284  0.00  0.00    -0.000 A 
ATOM     11  C   UNL A   1     -30.229  -9.913  30.590  0.00  0.00    -0.005 A 
ENDROOT
TORSDOF 0
ENDMDL
ENDMDL
