MODEL 1652
MODEL 1
REMARK VINA RESULT:    -5.832      0.000      0.000
REMARK INTER + INTRA:          -6.200
REMARK INTER:                  -6.172
REMARK INTRA:                  -0.028
REMARK UNBOUND:                -0.028
REMARK  Name = No_1652-gen_results/8p0m/2024-11-27-11-27-31/
REMARK  1 active torsions:
REMARK  status: ('A' for Active; 'I' for Inactive)
REMARK    1  A    between atoms: C_5  and  C_11
REMARK                            x       y       z     vdW  Elec       q    Type
REMARK                         _______ _______ _______ _____ _____    ______ ____
ROOT
ATOM      1  C   UNL A   1     -30.726  -9.729  29.319  0.00  0.00    +0.000 A 
ATOM      2  C   UNL A   1     -30.063 -10.313  30.145  0.00  0.00    +0.000 A 
ATOM      3  C   UNL A   1     -29.130 -11.299  29.829  0.00  0.00    +0.001 A 
ATOM      4  C   UNL A   1     -28.291 -12.068  30.769  0.00  0.00    +0.010 A 
ATOM      5  C   UNL A   1     -28.294 -11.610  32.122  0.00  0.00    +0.068 A 
ATOM      6  C   UNL A   1     -29.183 -10.551  32.436  0.00  0.00    +0.010 A 
ATOM      7  C   UNL A   1     -29.978  -9.954  31.547  0.00  0.00    +0.001 A 
ATOM      8  C   UNL A   1     -30.982 -10.422  28.017  0.00  0.00    +0.000 A 
ATOM      9  C   UNL A   1     -29.947 -11.295  27.531  0.00  0.00    +0.000 A 
ATOM     10  C   UNL A   1     -29.104 -11.886  28.471  0.00  0.00    +0.000 A 
ENDROOT
BRANCH   5  11
ATOM     11  C   UNL A   1     -27.214 -12.211  32.847  0.00  0.00    +0.100 C 
ATOM     12  N   UNL A   1     -26.820 -12.447  33.745  0.00  0.00    -0.191 NA
ENDBRANCH   5  11
TORSDOF 1
ENDMDL
ENDMDL
