REMARK  Name = outputs/IAG933/test6/raw/output_1653_IAG933_linker_design_.xyz
REMARK  17 active torsions:
REMARK  status: ('A' for Active; 'I' for Inactive)
REMARK    1  A    between atoms: C_1  and  C_2
REMARK    2  A    between atoms: C_1  and  C_8
REMARK    3  A    between atoms: C_1  and  C_43
REMARK    4  A    between atoms: C_14  and  C_15
REMARK    5  A    between atoms: C_15  and  O_18
REMARK    6  A    between atoms: O_18  and  C_44
REMARK    7  A    between atoms: C_21  and  O_22
REMARK    8  A    between atoms: O_22  and  C_23
REMARK    9  A    between atoms: C_23  and  C_24
REMARK   10  A    between atoms: C_28  and  C_41
REMARK   11  A    between atoms: C_28  and  C_44
REMARK   12  A    between atoms: C_29  and  C_37
REMARK   13  A    between atoms: C_33  and  C_37
REMARK   14  A    between atoms: C_33  and  N_42
REMARK   15  A    between atoms: C_36  and  N_42
REMARK   16  A    between atoms: C_36  and  C_43
REMARK   17  A    between atoms: N_42  and  C_44
REMARK                            x       y       z     vdW  Elec       q    Type
REMARK                         _______ _______ _______ _____ _____    ______ ____
ROOT
ATOM      1  C   UNL A   1     -25.195   3.150  29.909  0.00  0.00    +0.234 C 
ENDROOT
BRANCH   1   2
ATOM      2  N   UNL A   1     -24.734   2.004  29.222  0.00  0.00    -0.239 NA
BRANCH   2   3
ATOM      3  C   UNL A   1     -26.040   1.233  29.317  0.00  0.00    +0.076 C 
BRANCH   3   4
ATOM      4  C   UNL A   1     -25.941  -0.315  29.190  0.00  0.00    +0.023 C 
BRANCH   4   5
ATOM      5  C   UNL A   1     -24.855  -1.012  30.143  0.00  0.00    +0.040 C 
BRANCH   5   6
ATOM      6  C   UNL A   1     -24.973  -2.505  29.788  0.00  0.00    -0.021 C 
ATOM      7  C   UNL A   1     -23.906  -3.173  29.146  0.00  0.00    -0.004 C 
ATOM      8  C   UNL A   1     -23.989  -4.549  28.853  0.00  0.00    -0.000 C 
ATOM      9  C   UNL A   1     -25.137  -5.280  29.205  0.00  0.00    -0.000 C 
ATOM     10  C   UNL A   1     -26.232  -4.611  29.784  0.00  0.00    -0.000 C 
ATOM     11  C   UNL A   1     -26.155  -3.232  30.065  0.00  0.00    -0.004 C 
ENDBRANCH   5   6
BRANCH   5  12
ATOM     12  C   UNL A   1     -25.387  -0.679  31.571  0.00  0.00    +0.077 C 
ATOM     13  C   UNL A   1     -25.189   0.773  32.028  0.00  0.00    +0.019 C 
ATOM     14  C   UNL A   1     -25.336   0.684  33.544  0.00  0.00    +0.020 C 
ATOM     15  C   UNL A   1     -24.829  -0.715  33.905  0.00  0.00    +0.089 C 
ATOM     16  N   UNL A   1     -24.758  -1.481  32.646  0.00  0.00    -0.219 NA
ENDBRANCH   5  12
ENDBRANCH   4   5
ENDBRANCH   3   4
ENDBRANCH   2   3
BRANCH   2  17
ATOM     17  C   UNL A   1     -23.407   1.553  29.733  0.00  0.00    +0.085 C 
BRANCH  17  18
ATOM     18  C   UNL A   1     -22.548   0.535  28.843  0.00  0.00    +0.106 C 
BRANCH  18  19
ATOM     19  C   UNL A   1     -21.909   1.384  27.688  0.00  0.00    +0.262 C 
ATOM     20  O   UNL A   1     -22.471   1.946  26.762  0.00  0.00    -0.272 OA
ATOM     21  N   UNL A   1     -20.577   1.444  27.876  0.00  0.00    -0.088 NA
ENDBRANCH  18  19
ENDBRANCH  17  18
ENDBRANCH   2  17
ENDBRANCH   1   2
BRANCH   1  22
ATOM     22  C   UNL A   1     -26.495   3.950  29.698  0.00  0.00    +0.088 C 
BRANCH  22  29
ATOM     23  O   UNL A   1     -30.009   6.633  32.361  0.00  0.00    -0.285 OA
ATOM     24  N   UNL A   1     -26.867   6.317  35.309  0.00  0.00    -0.176 NA
ATOM     25  C   UNL A   1     -28.332   5.461  30.989  0.00  0.00    +0.039 C 
ATOM     26  N   UNL A   1     -27.890   6.708  34.557  0.00  0.00    -0.206 N 
ATOM     27  C   UNL A   1     -26.345   4.504  32.232  0.00  0.00    -0.001 C 
ATOM     28  C   UNL A   1     -26.085   5.348  34.738  0.00  0.00    +0.119 C 
ATOM     29  C   UNL A   1     -27.088   4.662  30.988  0.00  0.00    -0.014 C 
ATOM     30  C   UNL A   1     -26.729   5.235  33.395  0.00  0.00    +0.039 C 
ATOM     31  C   UNL A   1     -27.879   6.079  33.396  0.00  0.00    +0.109 C 
ATOM     32  C   UNL A   1     -28.802   6.103  32.198  0.00  0.00    +0.210 C 
ATOM     33  C   UNL A   1     -28.778   7.707  35.073  0.00  0.00    +0.140 C 
ENDBRANCH  22  29
ENDBRANCH   1  22
BRANCH   1  34
ATOM     34  O   UNL A   1     -25.143   3.966  28.243  0.00  0.00    -0.448 OA
BRANCH  34  35
ATOM     35  C   UNL A   1     -25.642   4.093  27.123  0.00  0.00    +0.223 C 
ATOM     36  N   UNL A   1     -25.614   5.252  26.449  0.00  0.00    -0.236 NA
ATOM     37  C   UNL A   1     -25.026   6.479  26.963  0.00  0.00    +0.155 C 
BRANCH  35  39
ATOM     38  C   UNL A   1     -25.688   1.614  26.461  0.00  0.00    +0.041 C 
ATOM     39  C   UNL A   1     -26.250   2.920  26.395  0.00  0.00    +0.074 C 
ATOM     40  C   UNL A   1     -27.438   3.091  25.645  0.00  0.00    +0.107 C 
ATOM     41  N   UNL A   1     -28.075   2.089  25.003  0.00  0.00    -0.208 NA
ATOM     42  C   UNL A   1     -27.543   0.849  25.079  0.00  0.00    +0.253 C 
ATOM     43  C   UNL A   1     -26.354   0.576  25.777  0.00  0.00    +0.193 C 
ATOM     44  F   UNL A   1     -25.860  -0.681  25.795  0.00  0.00    -0.199 F 
BRANCH  42  45
ATOM     45  O   UNL A   1     -28.193  -0.208  24.477  0.00  0.00    -0.456 OA
BRANCH  45  46
ATOM     46  C   UNL A   1     -29.460   0.005  23.866  0.00  0.00    +0.243 C 
BRANCH  46  47
ATOM     47  C   UNL A   1     -30.065  -1.377  23.573  0.00  0.00    +0.229 C 
ATOM     48  O   UNL A   1     -30.729  -1.878  24.721  0.00  0.00    -0.216 OA
ENDBRANCH  46  47
ENDBRANCH  45  46
ENDBRANCH  42  45
ENDBRANCH  35  39
ENDBRANCH  34  35
ENDBRANCH   1  34
TORSDOF 17
