REMARK  Name = No_1654-gen_results/8p0m/2024-11-27-11-27-31/
REMARK  2 active torsions:
REMARK  status: ('A' for Active; 'I' for Inactive)
REMARK    1  A    between atoms: C_2  and  O_7
REMARK    2  A    between atoms: O_7  and  C_8
REMARK                            x       y       z     vdW  Elec       q    Type
REMARK                         _______ _______ _______ _____ _____    ______ ____
ROOT
ATOM      1  O   UNL A   1     -29.942  -0.863  29.870  0.00  0.00    -0.454 OA
ENDROOT
BRANCH   1   3
ATOM      2  C   UNL A   1     -28.016  -0.814  28.878  0.00  0.00    +0.037 A 
ATOM      3  C   UNL A   1     -28.469  -0.785  29.829  0.00  0.00    +0.145 A 
ATOM      4  C   UNL A   1     -26.504  -0.778  28.877  0.00  0.00    +0.003 A 
ATOM      5  C   UNL A   1     -25.915  -0.658  29.923  0.00  0.00    +0.000 A 
ATOM      6  C   UNL A   1     -27.969  -0.724  31.205  0.00  0.00    +0.037 A 
ATOM      7  C   UNL A   1     -26.585  -0.639  31.206  0.00  0.00    +0.003 A 
ENDBRANCH   1   3
BRANCH   1   8
ATOM      8  C   UNL A   1     -30.609  -0.203  28.989  0.00  0.00    +0.145 A 
ATOM      9  C   UNL A   1     -31.607  -0.898  28.298  0.00  0.00    +0.037 A 
ATOM     10  C   UNL A   1     -32.274  -0.333  27.172  0.00  0.00    +0.003 A 
ATOM     11  C   UNL A   1     -31.913   0.993  26.813  0.00  0.00    +0.000 A 
ATOM     12  C   UNL A   1     -30.921   1.637  27.496  0.00  0.00    +0.003 A 
ATOM     13  C   UNL A   1     -30.216   1.030  28.540  0.00  0.00    +0.037 A 
ENDBRANCH   1   8
TORSDOF 2
