MODEL 1654
MODEL 1
REMARK VINA RESULT:    -6.279      0.000      0.000
REMARK INTER + INTRA:          -7.312
REMARK INTER:                  -7.013
REMARK INTRA:                  -0.299
REMARK UNBOUND:                -0.299
REMARK  Name = No_1654-gen_results/8p0m/2024-11-27-11-27-31/
REMARK  2 active torsions:
REMARK  status: ('A' for Active; 'I' for Inactive)
REMARK    1  A    between atoms: C_2  and  O_7
REMARK    2  A    between atoms: O_7  and  C_8
REMARK                            x       y       z     vdW  Elec       q    Type
REMARK                         _______ _______ _______ _____ _____    ______ ____
ROOT
ATOM      1  O   UNL A   1     -24.467  -1.310  29.524  0.00  0.00    -0.454 OA
ENDROOT
BRANCH   1   3
ATOM      2  C   UNL A   1     -23.861  -3.270  28.828  0.00  0.00    +0.037 A 
ATOM      3  C   UNL A   1     -24.641  -2.761  29.320  0.00  0.00    +0.145 A 
ATOM      4  C   UNL A   1     -24.094  -4.747  28.596  0.00  0.00    +0.003 A 
ATOM      5  C   UNL A   1     -25.096  -5.262  29.027  0.00  0.00    +0.000 A 
ATOM      6  C   UNL A   1     -25.952  -3.150  29.848  0.00  0.00    +0.037 A 
ATOM      7  C   UNL A   1     -26.146  -4.513  29.683  0.00  0.00    +0.003 A 
ENDBRANCH   1   3
BRANCH   1   8
ATOM      8  C   UNL A   1     -24.212  -0.579  28.495  0.00  0.00    +0.145 A 
ATOM      9  C   UNL A   1     -23.095   0.259  28.574  0.00  0.00    +0.037 A 
ATOM     10  C   UNL A   1     -22.827   1.249  27.584  0.00  0.00    +0.003 A 
ATOM     11  C   UNL A   1     -23.722   1.312  26.483  0.00  0.00    +0.000 A 
ATOM     12  C   UNL A   1     -24.815   0.493  26.446  0.00  0.00    +0.003 A 
ATOM     13  C   UNL A   1     -25.109  -0.409  27.473  0.00  0.00    +0.037 A 
ENDBRANCH   1   8
TORSDOF 2
ENDMDL
ENDMDL
