MODEL 1655
MODEL 1
REMARK VINA RESULT:    -5.387      0.000      0.000
REMARK INTER + INTRA:          -6.259
REMARK INTER:                  -6.016
REMARK INTRA:                  -0.242
REMARK UNBOUND:                -0.242
REMARK  Name = No_1655-gen_results/8p0m/2024-11-27-11-27-31/
REMARK  2 active torsions:
REMARK  status: ('A' for Active; 'I' for Inactive)
REMARK    1  A    between atoms: C_2  and  C_3
REMARK    2  A    between atoms: C_3  and  C_4
REMARK                            x       y       z     vdW  Elec       q    Type
REMARK                         _______ _______ _______ _____ _____    ______ ____
ROOT
ATOM      1  C   UNL A   1     -25.317  -2.471  29.938  0.00  0.00    -0.004 A 
ATOM      2  C   UNL A   1     -24.345  -2.851  29.327  0.00  0.00    -0.018 A 
ATOM      3  C   UNL A   1     -26.518  -3.220  29.977  0.00  0.00    -0.000 A 
ATOM      4  C   UNL A   1     -26.410  -4.564  29.687  0.00  0.00    -0.000 A 
ATOM      5  C   UNL A   1     -25.225  -5.065  29.159  0.00  0.00    -0.000 A 
ATOM      6  C   UNL A   1     -24.131  -4.195  28.955  0.00  0.00    -0.004 A 
ENDROOT
BRANCH   2   7
ATOM      7  C   UNL A   1     -23.330  -1.970  28.972  0.00  0.00    +0.052 C 
BRANCH   7   8
ATOM      8  C   UNL A   1     -23.502  -0.546  28.565  0.00  0.00    -0.026 C 
ATOM      9  C   UNL A   1     -22.458   0.443  28.529  0.00  0.00    -0.030 C 
ATOM     10  C   UNL A   1     -21.156  -0.067  28.649  0.00  0.00    +0.030 C 
ENDBRANCH   7   8
ENDBRANCH   2   7
TORSDOF 2
ENDMDL
ENDMDL
