REMARK  Name = No_1655-gen_results/8p0m/2024-11-27-11-27-31/
REMARK  2 active torsions:
REMARK  status: ('A' for Active; 'I' for Inactive)
REMARK    1  A    between atoms: C_2  and  C_3
REMARK    2  A    between atoms: C_3  and  C_4
REMARK                            x       y       z     vdW  Elec       q    Type
REMARK                         _______ _______ _______ _____ _____    ______ ____
ROOT
ATOM      1  C   UNL A   1     -28.016  -0.814  28.878  0.00  0.00    -0.004 A 
ATOM      2  C   UNL A   1     -27.064  -0.119  28.608  0.00  0.00    -0.018 A 
ATOM      3  C   UNL A   1     -29.346  -0.342  28.760  0.00  0.00    -0.000 A 
ATOM      4  C   UNL A   1     -29.539   0.739  27.926  0.00  0.00    -0.000 A 
ATOM      5  C   UNL A   1     -28.442   1.444  27.441  0.00  0.00    -0.000 A 
ATOM      6  C   UNL A   1     -27.138   1.023  27.783  0.00  0.00    -0.004 A 
ENDROOT
BRANCH   2   7
ATOM      7  C   UNL A   1     -25.792  -0.430  29.076  0.00  0.00    +0.052 C 
BRANCH   7   8
ATOM      8  C   UNL A   1     -24.546   0.349  28.823  0.00  0.00    -0.026 C 
ATOM      9  C   UNL A   1     -23.241   0.022  29.332  0.00  0.00    -0.030 C 
ATOM     10  C   UNL A   1     -23.128  -1.262  29.889  0.00  0.00    +0.030 C 
ENDBRANCH   7   8
ENDBRANCH   2   7
TORSDOF 2
