MODEL 1656
MODEL 1
REMARK VINA RESULT:    -8.219      0.000      0.000
REMARK INTER + INTRA:         -12.281
REMARK INTER:                 -11.102
REMARK INTRA:                  -1.179
REMARK UNBOUND:                -1.179
REMARK  Name = No_1656-gen_results/8p0m/2024-11-27-11-27-31/
REMARK  6 active torsions:
REMARK  status: ('A' for Active; 'I' for Inactive)
REMARK    1  A    between atoms: C_4  and  C_8
REMARK    2  A    between atoms: C_8  and  C_9
REMARK    3  A    between atoms: C_9  and  C_10
REMARK    4  A    between atoms: C_10  and  C_11
REMARK    5  A    between atoms: C_12  and  C_13
REMARK    6  A    between atoms: C_13  and  C_14
REMARK                            x       y       z     vdW  Elec       q    Type
REMARK                         _______ _______ _______ _____ _____    ______ ____
ROOT
ATOM      1  C   UNL A   1     -22.970  -0.068  29.076  0.00  0.00    +0.065 C 
ATOM      2  C   UNL A   1     -21.527  -0.128  29.209  0.00  0.00    +0.014 C 
ENDROOT
BRANCH   1   3
ATOM      3  C   UNL A   1     -23.654  -0.575  30.187  0.00  0.00    +0.016 C 
ATOM      4  C   UNL A   1     -23.139  -0.331  31.552  0.00  0.00    +0.001 C 
BRANCH   3   5
ATOM      5  C   UNL A   1     -24.955  -1.200  30.077  0.00  0.00    +0.030 C 
BRANCH   5   9
ATOM      6  C   UNL A   1     -25.958  -4.858  29.481  0.00  0.00    +0.059 A 
ATOM      7  C   UNL A   1     -25.072  -5.166  29.001  0.00  0.00    +0.142 A 
ATOM      8  C   UNL A   1     -26.002  -3.464  29.952  0.00  0.00    +0.138 A 
ATOM      9  C   UNL A   1     -24.946  -2.560  29.638  0.00  0.00    +0.005 A 
ATOM     10  C   UNL A   1     -23.877  -4.427  28.510  0.00  0.00    +0.029 A 
ATOM     11  C   UNL A   1     -23.877  -3.132  28.936  0.00  0.00    +0.000 A 
ATOM     12  F   UNL A   1     -25.028  -6.525  28.523  0.00  0.00    -0.204 F 
ATOM     13  F   UNL A   1     -26.988  -2.943  30.662  0.00  0.00    -0.204 F 
ENDBRANCH   5   9
ENDBRANCH   3   5
ENDBRANCH   1   3
BRANCH   1  14
ATOM     14  C   UNL A   1     -23.581   0.509  27.976  0.00  0.00    -0.089 C 
ATOM     15  C   UNL A   1     -22.869   1.302  27.216  0.00  0.00    -0.056 C 
BRANCH  15  16
ATOM     16  C   UNL A   1     -23.549   2.040  26.211  0.00  0.00    +0.205 C 
ATOM     17  C   UNL A   1     -22.579   2.449  25.051  0.00  0.00    +0.054 C 
ATOM     18  F   UNL A   1     -23.810   3.340  26.768  0.00  0.00    -0.222 F 
BRANCH  16  19
ATOM     19  C   UNL A   1     -24.670   1.597  25.738  0.00  0.00    +0.018 A 
ATOM     20  C   UNL A   1     -25.728   2.345  25.874  0.00  0.00    -0.001 A 
ATOM     21  C   UNL A   1     -27.048   1.953  25.550  0.00  0.00    -0.000 A 
ATOM     22  C   UNL A   1     -27.157   0.748  24.897  0.00  0.00    -0.000 A 
ATOM     23  C   UNL A   1     -26.071  -0.023  24.631  0.00  0.00    -0.000 A 
ATOM     24  C   UNL A   1     -24.824   0.406  25.071  0.00  0.00    -0.001 A 
ENDBRANCH  16  19
ENDBRANCH  15  16
ENDBRANCH   1  14
TORSDOF 6
ENDMDL
ENDMDL
