MODEL 1657
MODEL 1
REMARK VINA RESULT:    -9.353      0.000      0.000
REMARK INTER + INTRA:         -12.542
REMARK INTER:                 -12.087
REMARK INTRA:                  -0.455
REMARK UNBOUND:                -0.455
REMARK  Name = No_1657-gen_results/8p0m/2024-11-27-11-27-31/
REMARK  5 active torsions:
REMARK  status: ('A' for Active; 'I' for Inactive)
REMARK    1  A    between atoms: C_3  and  C_4
REMARK    2  A    between atoms: C_10  and  C_13
REMARK    3  A    between atoms: N_14  and  C_16
REMARK    4  A    between atoms: C_16  and  C_17
REMARK    5  A    between atoms: C_18  and  C_25
REMARK                            x       y       z     vdW  Elec       q    Type
REMARK                         _______ _______ _______ _____ _____    ______ ____
ROOT
ATOM      1  C   UNL A   1     -26.599   1.243  26.172  0.00  0.00    +0.249 C 
ATOM      2  N   UNL A   1     -25.592   0.417  25.987  0.00  0.00    -0.270 N 
ATOM      3  C   UNL A   1     -25.119   0.042  25.159  0.00  0.00    +0.116 C 
ATOM      4  O   UNL A   1     -26.659   2.156  27.062  0.00  0.00    -0.270 OA
ENDROOT
BRANCH   1   8
ATOM      5  C   UNL A   1     -27.974   2.348  24.305  0.00  0.00    +0.004 A 
ATOM      6  C   UNL A   1     -28.898   2.316  23.526  0.00  0.00    +0.000 A 
ATOM      7  C   UNL A   1     -29.917   1.366  23.576  0.00  0.00    +0.000 A 
ATOM      8  C   UNL A   1     -27.753   1.248  25.247  0.00  0.00    +0.054 A 
ATOM      9  C   UNL A   1     -28.741   0.306  25.477  0.00  0.00    +0.004 A 
ATOM     10  C   UNL A   1     -29.850   0.305  24.599  0.00  0.00    +0.000 A 
BRANCH   7  11
ATOM     11  C   UNL A   1     -31.070   1.246  22.663  0.00  0.00    +0.003 A 
ATOM     12  C   UNL A   1     -31.198   2.279  21.685  0.00  0.00    +0.042 A 
ATOM     13  C   UNL A   1     -32.286   2.252  20.813  0.00  0.00    +0.196 A 
ATOM     14  C   UNL A   1     -33.300   1.286  21.042  0.00  0.00    +0.042 A 
ATOM     15  C   UNL A   1     -33.189   0.311  21.987  0.00  0.00    +0.003 A 
ATOM     16  C   UNL A   1     -32.065   0.313  22.867  0.00  0.00    +0.000 A 
ATOM     17  O   UNL A   1     -32.454   3.183  19.892  0.00  0.00    -0.287 OA
ENDBRANCH   7  11
ENDBRANCH   1   8
BRANCH   2  18
ATOM     18  C   UNL A   1     -25.403  -0.448  27.261  0.00  0.00    +0.120 C 
BRANCH  18  19
ATOM     19  C   UNL A   1     -24.030  -0.249  27.759  0.00  0.00    -0.002 A 
ATOM     20  C   UNL A   1     -23.728  -1.124  28.781  0.00  0.00    -0.002 A 
ATOM     21  C   UNL A   1     -22.516  -0.932  29.338  0.00  0.00    -0.000 A 
ATOM     22  C   UNL A   1     -21.893  -0.043  29.118  0.00  0.00    -0.000 A 
ATOM     23  C   UNL A   1     -22.089   0.990  28.119  0.00  0.00    -0.000 A 
ATOM     24  C   UNL A   1     -23.291   0.903  27.470  0.00  0.00    -0.003 A 
BRANCH  20  25
ATOM     25  C   UNL A   1     -24.574  -2.282  29.061  0.00  0.00    -0.000 A 
ATOM     26  C   UNL A   1     -24.119  -3.527  28.654  0.00  0.00    -0.000 A 
ATOM     27  C   UNL A   1     -25.799  -2.176  29.720  0.00  0.00    -0.000 A 
ATOM     28  C   UNL A   1     -24.836  -4.712  28.840  0.00  0.00    -0.000 A 
ATOM     29  C   UNL A   1     -26.556  -3.368  29.953  0.00  0.00    -0.000 A 
ATOM     30  C   UNL A   1     -26.067  -4.619  29.548  0.00  0.00    -0.000 A 
ENDBRANCH  20  25
ENDBRANCH  18  19
ENDBRANCH   2  18
TORSDOF 5
ENDMDL
ENDMDL
