MODEL 1658
MODEL 1
REMARK VINA RESULT:    -7.968      0.000      0.000
REMARK INTER + INTRA:         -11.414
REMARK INTER:                 -10.298
REMARK INTRA:                  -1.117
REMARK UNBOUND:                -1.117
REMARK  Name = No_1658-gen_results/8p0m/2024-11-27-11-27-31/
REMARK  5 active torsions:
REMARK  status: ('A' for Active; 'I' for Inactive)
REMARK    1  A    between atoms: C_3  and  C_8
REMARK    2  A    between atoms: C_9  and  O_14
REMARK    3  A    between atoms: O_14  and  C_15
REMARK    4  A    between atoms: C_15  and  C_16
REMARK    5  A    between atoms: C_19  and  C_22
REMARK                            x       y       z     vdW  Elec       q    Type
REMARK                         _______ _______ _______ _____ _____    ______ ____
ROOT
ATOM      1  O   UNL A   1     -26.389  -1.594  29.803  0.00  0.00    -0.466 OA
ENDROOT
BRANCH   1   3
ATOM      2  C   UNL A   1     -24.467  -2.693  29.126  0.00  0.00    +0.034 A 
ATOM      3  C   UNL A   1     -25.741  -2.680  29.521  0.00  0.00    +0.139 A 
ATOM      4  C   UNL A   1     -26.466  -3.884  29.656  0.00  0.00    +0.037 A 
ATOM      5  C   UNL A   1     -25.794  -5.104  29.406  0.00  0.00    +0.003 A 
ATOM      6  C   UNL A   1     -24.523  -5.121  28.880  0.00  0.00    +0.000 A 
ATOM      7  C   UNL A   1     -23.854  -3.971  28.755  0.00  0.00    +0.003 A 
BRANCH   2  10
ATOM      8  C   UNL A   1     -23.883   0.457  27.502  0.00  0.00    +0.030 A 
ATOM      9  C   UNL A   1     -24.281  -0.608  27.913  0.00  0.00    +0.002 A 
ATOM     10  C   UNL A   1     -23.610  -1.363  28.874  0.00  0.00    +0.003 A 
ATOM     11  C   UNL A   1     -22.648  -1.148  29.264  0.00  0.00    +0.002 A 
ATOM     12  C   UNL A   1     -22.523   0.853  27.951  0.00  0.00    +0.140 A 
ATOM     13  C   UNL A   1     -21.926   0.071  28.880  0.00  0.00    +0.030 A 
ATOM     14  F   UNL A   1     -21.967   1.959  27.584  0.00  0.00    -0.204 F 
ENDBRANCH   2  10
ENDBRANCH   1   3
BRANCH   1  15
ATOM     15  C   UNL A   1     -26.506  -1.067  31.000  0.00  0.00    +0.290 C 
BRANCH  15  16
ATOM     16  C   UNL A   1     -26.127   0.285  30.936  0.00  0.00    +0.276 C 
ATOM     17  O   UNL A   1     -26.698   1.068  30.339  0.00  0.00    -0.270 OA
ATOM     18  N   UNL A   1     -24.974   0.625  31.628  0.00  0.00    -0.222 N 
ATOM     19  C   UNL A   1     -24.412   1.977  31.563  0.00  0.00    +0.255 C 
ATOM     20  C   UNL A   1     -24.223  -0.293  32.488  0.00  0.00    +0.123 C 
ATOM     21  O   UNL A   1     -23.722   2.246  30.831  0.00  0.00    -0.270 OA
BRANCH  19  22
ATOM     22  C   UNL A   1     -25.020   2.908  32.569  0.00  0.00    +0.054 A 
ATOM     23  C   UNL A   1     -24.597   4.027  32.487  0.00  0.00    +0.004 A 
ATOM     24  C   UNL A   1     -25.988   2.404  33.484  0.00  0.00    +0.004 A 
ATOM     25  C   UNL A   1     -26.463   3.386  34.433  0.00  0.00    +0.000 A 
ATOM     26  C   UNL A   1     -25.102   5.048  33.499  0.00  0.00    +0.000 A 
ATOM     27  C   UNL A   1     -26.046   4.650  34.430  0.00  0.00    +0.000 A 
ENDBRANCH  19  22
ENDBRANCH  15  16
ENDBRANCH   1  15
TORSDOF 5
ENDMDL
ENDMDL
