REMARK  Name = No_1658-gen_results/8p0m/2024-11-27-11-27-31/
REMARK  5 active torsions:
REMARK  status: ('A' for Active; 'I' for Inactive)
REMARK    1  A    between atoms: C_3  and  C_8
REMARK    2  A    between atoms: C_9  and  O_14
REMARK    3  A    between atoms: O_14  and  C_15
REMARK    4  A    between atoms: C_15  and  C_16
REMARK    5  A    between atoms: C_19  and  C_22
REMARK                            x       y       z     vdW  Elec       q    Type
REMARK                         _______ _______ _______ _____ _____    ______ ____
ROOT
ATOM      1  O   UNL A   1     -25.610   2.418  29.890  0.00  0.00    -0.466 OA
ENDROOT
BRANCH   1   3
ATOM      2  C   UNL A   1     -24.819   0.771  28.468  0.00  0.00    +0.034 A 
ATOM      3  C   UNL A   1     -24.810   2.013  28.955  0.00  0.00    +0.139 A 
ATOM      4  C   UNL A   1     -23.901   2.974  28.461  0.00  0.00    +0.037 A 
ATOM      5  C   UNL A   1     -23.035   2.600  27.407  0.00  0.00    +0.003 A 
ATOM      6  C   UNL A   1     -22.951   1.293  26.986  0.00  0.00    +0.000 A 
ATOM      7  C   UNL A   1     -23.816   0.396  27.468  0.00  0.00    +0.003 A 
BRANCH   2  10
ATOM      8  C   UNL A   1     -28.016  -0.814  28.878  0.00  0.00    +0.030 A 
ATOM      9  C   UNL A   1     -27.064  -0.119  28.608  0.00  0.00    +0.002 A 
ATOM     10  C   UNL A   1     -25.765  -0.390  29.036  0.00  0.00    +0.003 A 
ATOM     11  C   UNL A   1     -25.489  -1.154  29.717  0.00  0.00    +0.002 A 
ATOM     12  C   UNL A   1     -27.761  -1.903  29.857  0.00  0.00    +0.140 A 
ATOM     13  C   UNL A   1     -26.478  -2.106  30.236  0.00  0.00    +0.030 A 
ATOM     14  F   UNL A   1     -28.686  -2.716  30.245  0.00  0.00    -0.204 F 
ENDBRANCH   2  10
ENDBRANCH   1   3
BRANCH   1  15
ATOM     15  C   UNL A   1     -26.187   3.597  29.939  0.00  0.00    +0.290 C 
BRANCH  15  16
ATOM     16  C   UNL A   1     -27.487   3.442  30.449  0.00  0.00    +0.276 C 
ATOM     17  O   UNL A   1     -27.739   2.764  31.328  0.00  0.00    -0.270 OA
ATOM     18  N   UNL A   1     -28.484   4.148  29.793  0.00  0.00    -0.222 N 
ATOM     19  C   UNL A   1     -29.896   3.999  30.157  0.00  0.00    +0.255 C 
ATOM     20  C   UNL A   1     -28.246   5.106  28.710  0.00  0.00    +0.123 C 
ATOM     21  O   UNL A   1     -30.499   3.275  29.715  0.00  0.00    -0.270 OA
BRANCH  19  22
ATOM     22  C   UNL A   1     -30.305   4.905  31.280  0.00  0.00    +0.054 A 
ATOM     23  C   UNL A   1     -31.368   4.614  31.753  0.00  0.00    +0.004 A 
ATOM     24  C   UNL A   1     -29.443   5.973  31.658  0.00  0.00    +0.004 A 
ATOM     25  C   UNL A   1     -29.970   6.803  32.719  0.00  0.00    +0.000 A 
ATOM     26  C   UNL A   1     -31.913   5.502  32.864  0.00  0.00    +0.000 A 
ATOM     27  C   UNL A   1     -31.144   6.568  33.300  0.00  0.00    +0.000 A 
ENDBRANCH  19  22
ENDBRANCH  15  16
ENDBRANCH   1  15
TORSDOF 5
