REMARK  Name = No_1659-gen_results/8p0m/2024-11-27-11-27-31/
REMARK  2 active torsions:
REMARK  status: ('A' for Active; 'I' for Inactive)
REMARK    1  A    between atoms: C_3  and  C_11
REMARK    2  A    between atoms: C_5  and  C_7
REMARK                            x       y       z     vdW  Elec       q    Type
REMARK                         _______ _______ _______ _____ _____    ______ ____
ROOT
ATOM      1  C   UNL A   1     -28.016  -0.814  28.878  0.00  0.00    +0.000 A 
ATOM      2  C   UNL A   1     -27.064  -0.119  28.608  0.00  0.00    +0.003 A 
ATOM      3  C   UNL A   1     -26.972   0.714  27.506  0.00  0.00    +0.042 A 
ATOM      4  C   UNL A   1     -28.105   0.774  26.642  0.00  0.00    +0.007 A 
ATOM      5  C   UNL A   1     -29.204   0.118  27.048  0.00  0.00    +0.071 A 
ATOM      6  C   UNL A   1     -29.213  -0.609  28.128  0.00  0.00    +0.004 A 
ENDROOT
BRANCH   5   7
ATOM      7  C   UNL A   1     -30.371   0.233  26.138  0.00  0.00    +0.419 C 
ATOM      8  F   UNL A   1     -31.194  -0.543  26.330  0.00  0.00    -0.166 F 
ATOM      9  F   UNL A   1     -30.843   1.490  26.206  0.00  0.00    -0.166 F 
ATOM     10  F   UNL A   1     -29.831  -0.134  24.930  0.00  0.00    -0.166 F 
ENDBRANCH   5   7
BRANCH   3  11
ATOM     11  C   UNL A   1     -25.660   1.419  27.132  0.00  0.00    +0.234 C 
ATOM     12  O   UNL A   1     -25.381   2.356  27.868  0.00  0.00    -0.283 OA
ENDBRANCH   3  11
TORSDOF 2
