MODEL 1659
MODEL 1
REMARK VINA RESULT:    -5.696      0.000      0.000
REMARK INTER + INTRA:          -6.607
REMARK INTER:                  -6.362
REMARK INTRA:                  -0.244
REMARK UNBOUND:                -0.244
REMARK  Name = No_1659-gen_results/8p0m/2024-11-27-11-27-31/
REMARK  2 active torsions:
REMARK  status: ('A' for Active; 'I' for Inactive)
REMARK    1  A    between atoms: C_3  and  C_11
REMARK    2  A    between atoms: C_5  and  C_7
REMARK                            x       y       z     vdW  Elec       q    Type
REMARK                         _______ _______ _______ _____ _____    ______ ____
ROOT
ATOM      1  C   UNL A   1     -24.682  -5.189  28.965  0.00  0.00    +0.000 A 
ATOM      2  C   UNL A   1     -25.825  -5.079  29.347  0.00  0.00    +0.003 A 
ATOM      3  C   UNL A   1     -26.418  -3.897  29.755  0.00  0.00    +0.042 A 
ATOM      4  C   UNL A   1     -25.623  -2.715  29.690  0.00  0.00    +0.007 A 
ATOM      5  C   UNL A   1     -24.415  -2.836  29.116  0.00  0.00    +0.071 A 
ATOM      6  C   UNL A   1     -23.954  -3.987  28.718  0.00  0.00    +0.004 A 
ENDROOT
BRANCH   5   7
ATOM      7  C   UNL A   1     -23.633  -1.577  29.037  0.00  0.00    +0.419 C 
ATOM      8  F   UNL A   1     -22.501  -1.734  28.935  0.00  0.00    -0.166 F 
ATOM      9  F   UNL A   1     -24.126  -0.830  28.034  0.00  0.00    -0.166 F 
ATOM     10  F   UNL A   1     -23.793  -1.060  30.299  0.00  0.00    -0.166 F 
ENDBRANCH   5   7
BRANCH   3  11
ATOM     11  C   UNL A   1     -27.811  -3.872  30.402  0.00  0.00    +0.234 C 
ATOM     12  O   UNL A   1     -28.609  -4.635  29.874  0.00  0.00    -0.283 OA
ENDBRANCH   3  11
TORSDOF 2
ENDMDL
ENDMDL
