MODEL 165
MODEL 1
REMARK VINA RESULT:    -6.465      0.000      0.000
REMARK INTER + INTRA:         -12.060
REMARK INTER:                  -9.866
REMARK INTRA:                  -2.194
REMARK UNBOUND:                -2.194
REMARK  Name = No_165-gen_results/8p0m/2024-11-27-11-27-31/
REMARK  9 active torsions:
REMARK  status: ('A' for Active; 'I' for Inactive)
REMARK    1  A    between atoms: C_1  and  C_2
REMARK    2  A    between atoms: C_3  and  C_12
REMARK    3  A    between atoms: C_5  and  C_6
REMARK    4  A    between atoms: C_7  and  C_21
REMARK    5  A    between atoms: C_16  and  C_18
REMARK    6  A    between atoms: C_18  and  O_20
REMARK    7  A    between atoms: O_20  and  C_24
REMARK    8  A    between atoms: C_24  and  C_25
REMARK    9  A    between atoms: C_24  and  N_29
REMARK                            x       y       z     vdW  Elec       q    Type
REMARK                         _______ _______ _______ _____ _____    ______ ____
ROOT
ATOM      1  C   UNL A   1     -24.702   0.642  27.772  0.00  0.00    -0.000 A 
ATOM      2  C   UNL A   1     -23.795   1.003  26.816  0.00  0.00    -0.000 A 
ATOM      3  C   UNL A   1     -24.046   1.565  25.916  0.00  0.00    +0.000 A 
ATOM      4  C   UNL A   1     -25.346   2.128  25.574  0.00  0.00    +0.006 A 
ATOM      5  C   UNL A   1     -26.336   1.798  26.505  0.00  0.00    +0.076 A 
ATOM      6  C   UNL A   1     -26.073   0.982  27.575  0.00  0.00    +0.006 A 
ENDROOT
BRANCH   1   8
ATOM      7  C   UNL A   1     -23.894  -0.068  29.984  0.00  0.00    +0.001 A 
ATOM      8  C   UNL A   1     -24.394  -0.388  28.736  0.00  0.00    -0.002 A 
ATOM      9  C   UNL A   1     -24.686  -1.727  28.260  0.00  0.00    +0.006 A 
ATOM     10  C   UNL A   1     -24.439  -2.823  29.117  0.00  0.00    +0.080 A 
ATOM     11  C   UNL A   1     -23.779  -1.304  30.872  0.00  0.00    +0.077 A 
ATOM     12  C   UNL A   1     -24.005  -2.602  30.496  0.00  0.00    +0.013 A 
BRANCH  10  13
ATOM     13  C   UNL A   1     -24.697  -4.179  28.807  0.00  0.00    +0.388 C 
ATOM     14  O   UNL A   1     -23.877  -4.845  28.194  0.00  0.00    -0.241 OA
ATOM     15  O   UNL A   1     -25.709  -4.859  29.330  0.00  0.00    -0.241 OA
ENDBRANCH  10  13
BRANCH  11  16
ATOM     16  C   UNL A   1     -23.373  -1.101  32.283  0.00  0.00    +0.388 C 
ATOM     17  O   UNL A   1     -22.315  -1.156  32.626  0.00  0.00    -0.241 OA
ATOM     18  O   UNL A   1     -24.349  -0.823  33.093  0.00  0.00    -0.241 OA
ENDBRANCH  11  16
BRANCH   7  19
ATOM     19  C   UNL A   1     -23.726   1.066  30.367  0.00  0.00    +0.121 C 
ATOM     20 CL   UNL A   1     -24.883   1.835  30.956  0.00  0.00    -0.108 Cl
ENDBRANCH   7  19
ENDBRANCH   1   8
BRANCH   5  21
ATOM     21  C   UNL A   1     -27.709   2.250  26.222  0.00  0.00    +0.343 C 
ATOM     22  O   UNL A   1     -28.315   2.985  26.906  0.00  0.00    -0.245 OA
BRANCH  21  23
ATOM     23  O   UNL A   1     -28.170   1.936  25.025  0.00  0.00    -0.424 OA
BRANCH  23  24
ATOM     24  C   UNL A   1     -28.868   0.774  24.889  0.00  0.00    +0.327 C 
BRANCH  24  25
ATOM     25  C   UNL A   1     -28.282   0.002  23.925  0.00  0.00    +0.450 C 
ATOM     26  F   UNL A   1     -28.738  -0.827  23.279  0.00  0.00    -0.165 F 
ATOM     27  F   UNL A   1     -27.044  -0.607  24.434  0.00  0.00    -0.165 F 
ATOM     28  F   UNL A   1     -27.540   0.854  23.001  0.00  0.00    -0.165 F 
ENDBRANCH  24  25
BRANCH  24  29
ATOM     29  N   UNL A   1     -30.249   1.153  24.632  0.00  0.00    -0.230 NA
ATOM     30  C   UNL A   1     -30.456   2.114  23.736  0.00  0.00    +0.093 C 
ATOM     31  C   UNL A   1     -31.368   0.720  25.339  0.00  0.00    +0.093 C 
ENDBRANCH  24  29
ENDBRANCH  23  24
ENDBRANCH  21  23
ENDBRANCH   5  21
TORSDOF 9
ENDMDL
ENDMDL
