REMARK  Name = outputs/IAG933/test6/raw/output_166_IAG933_linker_design_.xyz
REMARK  11 active torsions:
REMARK  status: ('A' for Active; 'I' for Inactive)
REMARK    1  A    between atoms: C_1  and  C_2
REMARK    2  A    between atoms: C_1  and  C_8
REMARK    3  A    between atoms: C_1  and  C_39
REMARK    4  A    between atoms: C_13  and  C_33
REMARK    5  A    between atoms: C_14  and  C_15
REMARK    6  A    between atoms: C_21  and  O_22
REMARK    7  A    between atoms: O_22  and  C_23
REMARK    8  A    between atoms: C_23  and  C_24
REMARK    9  A    between atoms: C_28  and  C_33
REMARK   10  A    between atoms: C_33  and  C_42
REMARK   11  A    between atoms: C_34  and  C_40
REMARK                            x       y       z     vdW  Elec       q    Type
REMARK                         _______ _______ _______ _____ _____    ______ ____
ROOT
ATOM      1  C   UNL A   1     -24.708   1.294  27.386  0.00  0.00    +0.094 C 
ENDROOT
BRANCH   1   9
ATOM      2  C   UNL A   1     -28.033   0.878  29.232  0.00  0.00    +0.032 A 
ATOM      3  C   UNL A   1     -27.132  -0.324  29.227  0.00  0.00    +0.190 A 
ATOM      4  C   UNL A   1     -29.503   0.749  29.011  0.00  0.00    +0.036 C 
ATOM      5  C   UNL A   1     -27.331   2.083  29.423  0.00  0.00    +0.077 A 
ATOM      6  N   UNL A   1     -26.027   2.137  29.105  0.00  0.00    -0.252 NA
ATOM      7  O   UNL A   1     -27.766  -1.468  29.087  0.00  0.00    -0.287 OA
ATOM      8  C   UNL A   1     -25.793  -0.186  29.291  0.00  0.00    +0.036 A 
ATOM      9  C   UNL A   1     -25.334   1.014  28.686  0.00  0.00    +0.066 A 
BRANCH   5  11
ATOM     10  N   UNL A   1     -27.164   3.776  31.265  0.00  0.00    -0.124 NA
ATOM     11  C   UNL A   1     -27.985   3.375  30.031  0.00  0.00    +0.154 C 
ENDBRANCH   5  11
BRANCH   8  12
ATOM     12  C   UNL A   1     -24.855  -1.012  30.143  0.00  0.00    +0.065 C 
BRANCH  12  13
ATOM     13  C   UNL A   1     -24.973  -2.505  29.788  0.00  0.00    -0.017 C 
ATOM     14  C   UNL A   1     -23.906  -3.173  29.146  0.00  0.00    -0.004 C 
ATOM     15  C   UNL A   1     -23.989  -4.549  28.853  0.00  0.00    -0.000 C 
ATOM     16  C   UNL A   1     -25.137  -5.280  29.205  0.00  0.00    -0.000 C 
ATOM     17  C   UNL A   1     -26.232  -4.611  29.784  0.00  0.00    -0.000 C 
ATOM     18  C   UNL A   1     -26.155  -3.232  30.065  0.00  0.00    -0.004 C 
ENDBRANCH  12  13
BRANCH  12  19
ATOM     19  C   UNL A   1     -25.387  -0.679  31.571  0.00  0.00    +0.081 C 
ATOM     20  C   UNL A   1     -25.189   0.773  32.028  0.00  0.00    +0.019 C 
ATOM     21  C   UNL A   1     -25.336   0.684  33.544  0.00  0.00    +0.020 C 
ATOM     22  C   UNL A   1     -24.829  -0.715  33.905  0.00  0.00    +0.089 C 
ATOM     23  N   UNL A   1     -24.758  -1.481  32.646  0.00  0.00    -0.219 NA
ENDBRANCH  12  19
ENDBRANCH   8  12
ENDBRANCH   1   9
BRANCH   1  24
ATOM     24  C   UNL A   1     -25.688   1.614  26.461  0.00  0.00    +0.025 C 
ATOM     25  C   UNL A   1     -26.250   2.920  26.395  0.00  0.00    +0.073 C 
ATOM     26  C   UNL A   1     -27.438   3.091  25.645  0.00  0.00    +0.106 C 
ATOM     27  N   UNL A   1     -28.075   2.089  25.003  0.00  0.00    -0.208 NA
ATOM     28  C   UNL A   1     -27.543   0.849  25.079  0.00  0.00    +0.253 C 
ATOM     29  C   UNL A   1     -26.354   0.576  25.777  0.00  0.00    +0.190 C 
ATOM     30  F   UNL A   1     -25.860  -0.681  25.795  0.00  0.00    -0.200 F 
BRANCH  25  31
ATOM     31  C   UNL A   1     -25.642   4.093  27.123  0.00  0.00    +0.266 C 
ATOM     32  N   UNL A   1     -25.614   5.252  26.449  0.00  0.00    -0.200 NA
ATOM     33  C   UNL A   1     -25.026   6.479  26.963  0.00  0.00    +0.139 C 
ATOM     34  O   UNL A   1     -25.143   3.966  28.243  0.00  0.00    -0.268 OA
ENDBRANCH  25  31
BRANCH  28  35
ATOM     35  O   UNL A   1     -28.193  -0.208  24.477  0.00  0.00    -0.456 OA
BRANCH  35  36
ATOM     36  C   UNL A   1     -29.460   0.005  23.866  0.00  0.00    +0.243 C 
BRANCH  36  37
ATOM     37  C   UNL A   1     -30.065  -1.377  23.573  0.00  0.00    +0.229 C 
ATOM     38  O   UNL A   1     -30.729  -1.878  24.721  0.00  0.00    -0.216 OA
ENDBRANCH  36  37
ENDBRANCH  35  36
ENDBRANCH  28  35
ENDBRANCH   1  24
BRANCH   1  39
ATOM     39  C   UNL A   1     -23.327   1.343  27.338  0.00  0.00    +0.075 C 
ATOM     40  C   UNL A   1     -22.391   1.302  28.332  0.00  0.00    +0.143 C 
ATOM     41  C   UNL A   1     -22.673   1.724  26.187  0.00  0.00    +0.311 C 
ATOM     42  O   UNL A   1     -21.475   2.109  26.415  0.00  0.00    -0.324 OA
ATOM     43  F   UNL A   1     -23.223   1.736  24.996  0.00  0.00    -0.161 F 
ATOM     44  N   UNL A   1     -21.277   1.712  27.813  0.00  0.00    -0.073 NA
ENDBRANCH   1  39
TORSDOF 11
