REMARK  Name = outputs/IAG933/test6/raw/output_1660_IAG933_linker_design_.xyz
REMARK  12 active torsions:
REMARK  status: ('A' for Active; 'I' for Inactive)
REMARK    1  A    between atoms: C_1  and  C_2
REMARK    2  A    between atoms: C_1  and  C_8
REMARK    3  A    between atoms: C_1  and  N_46
REMARK    4  A    between atoms: C_13  and  N_44
REMARK    5  A    between atoms: C_14  and  C_15
REMARK    6  A    between atoms: C_21  and  O_22
REMARK    7  A    between atoms: O_22  and  C_23
REMARK    8  A    between atoms: C_23  and  C_24
REMARK    9  A    between atoms: C_28  and  C_42
REMARK   10  A    between atoms: C_34  and  N_40
REMARK   11  A    between atoms: C_35  and  O_43
REMARK   12  A    between atoms: C_39  and  N_40
REMARK                            x       y       z     vdW  Elec       q    Type
REMARK                         _______ _______ _______ _____ _____    ______ ____
ROOT
ATOM      1  C   UNL A   1     -23.691   0.820  27.347  0.00  0.00    +0.140 C 
ATOM      2  O   UNL A   1     -26.999  -0.202  28.374  0.00  0.00    -0.165 OA
ATOM      3  C   UNL A   1     -25.925   0.681  28.741  0.00  0.00    +0.325 C 
ATOM      4  O   UNL A   1     -22.502  -0.084  29.103  0.00  0.00    -0.273 OA
ATOM      5  C   UNL A   1     -23.507   0.179  28.539  0.00  0.00    +0.244 C 
ATOM      6  N   UNL A   1     -25.086   1.215  27.628  0.00  0.00    -0.206 NA
ATOM      7  N   UNL A   1     -24.802   0.002  29.186  0.00  0.00    -0.225 N 
ENDROOT
BRANCH   6   8
ATOM      8  C   UNL A   1     -25.688   1.614  26.461  0.00  0.00    +0.133 C 
ATOM      9  C   UNL A   1     -26.250   2.920  26.395  0.00  0.00    +0.070 C 
ATOM     10  C   UNL A   1     -27.438   3.091  25.645  0.00  0.00    +0.103 C 
ATOM     11  N   UNL A   1     -28.075   2.089  25.003  0.00  0.00    -0.212 NA
ATOM     12  C   UNL A   1     -27.543   0.849  25.079  0.00  0.00    +0.235 C 
ATOM     13  C   UNL A   1     -26.354   0.576  25.777  0.00  0.00    +0.255 C 
ATOM     14  F   UNL A   1     -25.860  -0.681  25.795  0.00  0.00    -0.225 F 
BRANCH   9  15
ATOM     15  C   UNL A   1     -25.642   4.093  27.123  0.00  0.00    +0.264 C 
ATOM     16  N   UNL A   1     -25.614   5.252  26.449  0.00  0.00    -0.200 NA
ATOM     17  C   UNL A   1     -25.026   6.479  26.963  0.00  0.00    +0.139 C 
ATOM     18  O   UNL A   1     -25.143   3.966  28.243  0.00  0.00    -0.269 OA
ENDBRANCH   9  15
BRANCH  12  19
ATOM     19  O   UNL A   1     -28.193  -0.208  24.477  0.00  0.00    -0.459 OA
BRANCH  19  20
ATOM     20  C   UNL A   1     -29.460   0.005  23.866  0.00  0.00    +0.242 C 
BRANCH  20  21
ATOM     21  C   UNL A   1     -30.065  -1.377  23.573  0.00  0.00    +0.229 C 
ATOM     22  O   UNL A   1     -30.729  -1.878  24.721  0.00  0.00    -0.216 OA
ENDBRANCH  20  21
ENDBRANCH  19  20
ENDBRANCH  12  19
ENDBRANCH   6   8
BRANCH   1  24
ATOM     23  C   UNL A   1     -21.149   1.550  27.299  0.00  0.00    +0.002 C 
ATOM     24  C   UNL A   1     -22.598   1.826  26.787  0.00  0.00    +0.025 C 
ENDBRANCH   1  24
BRANCH   7  25
ATOM     25  C   UNL A   1     -24.855  -1.012  30.143  0.00  0.00    +0.119 C 
BRANCH  25  26
ATOM     26  C   UNL A   1     -24.973  -2.505  29.788  0.00  0.00    -0.003 C 
ATOM     27  C   UNL A   1     -23.906  -3.173  29.146  0.00  0.00    -0.003 C 
ATOM     28  C   UNL A   1     -23.989  -4.549  28.853  0.00  0.00    -0.000 C 
ATOM     29  C   UNL A   1     -25.137  -5.280  29.205  0.00  0.00    -0.000 C 
ATOM     30  C   UNL A   1     -26.232  -4.611  29.784  0.00  0.00    -0.000 C 
ATOM     31  C   UNL A   1     -26.155  -3.232  30.065  0.00  0.00    -0.003 C 
ENDBRANCH  25  26
BRANCH  25  32
ATOM     32  C   UNL A   1     -25.387  -0.679  31.571  0.00  0.00    +0.095 C 
ATOM     33  C   UNL A   1     -25.189   0.773  32.028  0.00  0.00    +0.021 C 
ATOM     34  C   UNL A   1     -25.336   0.684  33.544  0.00  0.00    +0.020 C 
ATOM     35  C   UNL A   1     -24.829  -0.715  33.905  0.00  0.00    +0.089 C 
ATOM     36  N   UNL A   1     -24.758  -1.481  32.646  0.00  0.00    -0.217 NA
ENDBRANCH  25  32
ENDBRANCH   7  25
BRANCH   3  37
ATOM     37  N   UNL A   1     -26.668   1.873  29.368  0.00  0.00    -0.182 NA
BRANCH  37  43
ATOM     38  C   UNL A   1     -28.454   4.372  28.704  0.00  0.00    +0.036 C 
ATOM     39  C   UNL A   1     -27.988   1.692  31.378  0.00  0.00    +0.016 C 
ATOM     40  C   UNL A   1     -28.554   2.368  32.442  0.00  0.00    +0.004 C 
ATOM     41  C   UNL A   1     -28.926   4.359  31.148  0.00  0.00    +0.136 C 
ATOM     42  C   UNL A   1     -28.984   3.679  32.367  0.00  0.00    +0.037 C 
ATOM     43  C   UNL A   1     -27.742   2.432  30.232  0.00  0.00    +0.070 C 
ATOM     44  C   UNL A   1     -28.355   3.692  30.035  0.00  0.00    +0.027 C 
BRANCH  41  46
ATOM     45  C   UNL A   1     -30.886   5.560  30.765  0.00  0.00    +0.253 C 
ATOM     46  O   UNL A   1     -29.451   5.569  31.017  0.00  0.00    -0.472 OA
ENDBRANCH  41  46
ENDBRANCH  37  43
ENDBRANCH   3  37
TORSDOF 12
