REMARK  Name = outputs/IAG933/test6/raw/output_1661_IAG933_linker_design_.xyz
REMARK  14 active torsions:
REMARK  status: ('A' for Active; 'I' for Inactive)
REMARK    1  A    between atoms: C_1  and  C_2
REMARK    2  A    between atoms: C_1  and  C_8
REMARK    3  A    between atoms: C_9  and  C_37
REMARK    4  A    between atoms: C_13  and  N_40
REMARK    5  A    between atoms: C_14  and  C_15
REMARK    6  A    between atoms: C_21  and  O_22
REMARK    7  A    between atoms: O_22  and  C_23
REMARK    8  A    between atoms: C_23  and  C_24
REMARK    9  A    between atoms: C_28  and  C_33
REMARK   10  A    between atoms: C_28  and  N_40
REMARK   11  A    between atoms: C_33  and  S_39
REMARK   12  A    between atoms: C_35  and  C_38
REMARK   13  A    between atoms: C_37  and  C_38
REMARK   14  A    between atoms: C_37  and  S_39
REMARK                            x       y       z     vdW  Elec       q    Type
REMARK                         _______ _______ _______ _____ _____    ______ ____
ROOT
ATOM      1  C   UNL A   1     -24.334   1.731  31.130  0.00  0.00    +0.050 C 
ENDROOT
BRANCH   1   3
ATOM      2  C   UNL A   1     -25.387  -0.679  31.571  0.00  0.00    +0.078 C 
ATOM      3  C   UNL A   1     -25.189   0.773  32.028  0.00  0.00    +0.028 C 
ATOM      4  C   UNL A   1     -25.336   0.684  33.544  0.00  0.00    +0.021 C 
ATOM      5  C   UNL A   1     -24.829  -0.715  33.905  0.00  0.00    +0.089 C 
ATOM      6  N   UNL A   1     -24.758  -1.481  32.646  0.00  0.00    -0.219 NA
BRANCH   2   7
ATOM      7  C   UNL A   1     -24.855  -1.012  30.143  0.00  0.00    +0.044 C 
BRANCH   7   8
ATOM      8  C   UNL A   1     -24.973  -2.505  29.788  0.00  0.00    -0.021 C 
ATOM      9  C   UNL A   1     -23.906  -3.173  29.146  0.00  0.00    -0.004 C 
ATOM     10  C   UNL A   1     -23.989  -4.549  28.853  0.00  0.00    -0.000 C 
ATOM     11  C   UNL A   1     -25.137  -5.280  29.205  0.00  0.00    -0.000 C 
ATOM     12  C   UNL A   1     -26.232  -4.611  29.784  0.00  0.00    -0.000 C 
ATOM     13  C   UNL A   1     -26.155  -3.232  30.065  0.00  0.00    -0.004 C 
ENDBRANCH   7   8
ENDBRANCH   2   7
ENDBRANCH   1   3
BRANCH   1  14
ATOM     14  C   UNL A   1     -24.379   3.245  31.462  0.00  0.00    +0.019 C 
BRANCH  14  19
ATOM     15  C   UNL A   1     -26.927   3.103  31.749  0.00  0.00    -0.022 C 
ATOM     16  C   UNL A   1     -25.560   4.781  32.746  0.00  0.00    -0.022 C 
ATOM     17  C   UNL A   1     -27.566   6.039  32.303  0.00  0.00    -0.022 C 
ATOM     18  C   UNL A   1     -27.895   7.400  31.841  0.00  0.00    +0.031 C 
ATOM     19  C   UNL A   1     -25.639   3.707  32.040  0.00  0.00    +0.045 C 
ATOM     20  C   UNL A   1     -28.195   3.714  31.589  0.00  0.00    -0.005 C 
ATOM     21  C   UNL A   1     -26.339   5.884  32.993  0.00  0.00    -0.009 C 
ATOM     22  C   UNL A   1     -28.454   5.038  31.891  0.00  0.00    -0.005 C 
ENDBRANCH  14  19
ENDBRANCH   1  14
BRANCH   1  23
ATOM     23  S   UNL A   1     -23.036   1.339  30.009  0.00  0.00    -0.140 S 
BRANCH  23  24
ATOM     24  C   UNL A   1     -22.365   1.526  28.345  0.00  0.00    +0.075 C 
BRANCH  24  25
ATOM     25  C   UNL A   1     -23.279   1.215  27.118  0.00  0.00    +0.084 C 
ATOM     26  C   UNL A   1     -22.893   2.032  25.887  0.00  0.00    +0.020 C 
BRANCH  25  27
ATOM     27  N   UNL A   1     -24.710   1.342  27.438  0.00  0.00    -0.212 NA
BRANCH  27  28
ATOM     28  C   UNL A   1     -25.688   1.614  26.461  0.00  0.00    +0.142 C 
ATOM     29  C   UNL A   1     -26.250   2.920  26.395  0.00  0.00    +0.071 C 
ATOM     30  C   UNL A   1     -27.438   3.091  25.645  0.00  0.00    +0.103 C 
ATOM     31  N   UNL A   1     -28.075   2.089  25.003  0.00  0.00    -0.212 NA
ATOM     32  C   UNL A   1     -27.543   0.849  25.079  0.00  0.00    +0.236 C 
ATOM     33  C   UNL A   1     -26.354   0.576  25.777  0.00  0.00    +0.256 C 
ATOM     34  F   UNL A   1     -25.860  -0.681  25.795  0.00  0.00    -0.225 F 
BRANCH  29  35
ATOM     35  C   UNL A   1     -25.642   4.093  27.123  0.00  0.00    +0.264 C 
ATOM     36  N   UNL A   1     -25.614   5.252  26.449  0.00  0.00    -0.200 NA
ATOM     37  C   UNL A   1     -25.026   6.479  26.963  0.00  0.00    +0.139 C 
ATOM     38  O   UNL A   1     -25.143   3.966  28.243  0.00  0.00    -0.269 OA
ENDBRANCH  29  35
BRANCH  32  39
ATOM     39  O   UNL A   1     -28.193  -0.208  24.477  0.00  0.00    -0.459 OA
BRANCH  39  40
ATOM     40  C   UNL A   1     -29.460   0.005  23.866  0.00  0.00    +0.242 C 
BRANCH  40  41
ATOM     41  C   UNL A   1     -30.065  -1.377  23.573  0.00  0.00    +0.229 C 
ATOM     42  O   UNL A   1     -30.729  -1.878  24.721  0.00  0.00    -0.216 OA
ENDBRANCH  40  41
ENDBRANCH  39  40
ENDBRANCH  32  39
ENDBRANCH  27  28
ENDBRANCH  25  27
ENDBRANCH  24  25
ENDBRANCH  23  24
ENDBRANCH   1  23
TORSDOF 14
