MODEL 1661
MODEL 1
REMARK VINA RESULT:    -6.298      0.000      0.000
REMARK INTER + INTRA:          -6.837
REMARK INTER:                  -6.666
REMARK INTRA:                  -0.170
REMARK UNBOUND:                -0.170
REMARK  Name = No_1661-gen_results/8p0m/2024-11-27-11-27-31/
REMARK  1 active torsions:
REMARK  status: ('A' for Active; 'I' for Inactive)
REMARK    1  A    between atoms: C_2  and  C_5
REMARK                            x       y       z     vdW  Elec       q    Type
REMARK                         _______ _______ _______ _____ _____    ______ ____
ROOT
ATOM      1  C   UNL A   1     -23.073  -1.982  28.875  0.00  0.00    +0.001 A 
ATOM      2  C   UNL A   1     -23.270  -1.040  29.304  0.00  0.00    +0.044 A 
ATOM      3  C   UNL A   1     -24.138  -3.033  29.098  0.00  0.00    -0.000 A 
ATOM      4  C   UNL A   1     -24.047  -4.427  28.745  0.00  0.00    -0.000 A 
ATOM      5  C   UNL A   1     -25.209  -5.262  29.072  0.00  0.00    -0.000 A 
ATOM      6  C   UNL A   1     -26.335  -4.703  29.651  0.00  0.00    -0.000 A 
ATOM      7  C   UNL A   1     -26.431  -3.398  29.967  0.00  0.00    -0.000 A 
ATOM      8  C   UNL A   1     -25.408  -2.571  29.697  0.00  0.00    -0.000 A 
ATOM      9  C   UNL A   1     -24.561  -0.500  29.907  0.00  0.00    +0.001 A 
ATOM     10  C   UNL A   1     -25.516  -1.222  30.090  0.00  0.00    -0.000 A 
ENDROOT
BRANCH   2  11
ATOM     11  C   UNL A   1     -22.266   0.102  29.149  0.00  0.00    +0.341 C 
ATOM     12  F   UNL A   1     -22.396   0.937  28.505  0.00  0.00    -0.193 F 
ATOM     13  F   UNL A   1     -21.117  -0.603  28.833  0.00  0.00    -0.193 F 
ENDBRANCH   2  11
TORSDOF 1
ENDMDL
ENDMDL
