MODEL 1662
MODEL 1
REMARK VINA RESULT:    -8.371      0.000      0.000
REMARK INTER + INTRA:         -10.744
REMARK INTER:                 -10.328
REMARK INTRA:                  -0.416
REMARK UNBOUND:                -0.416
REMARK  Name = No_1662-gen_results/8p0m/2024-11-27-11-27-31/
REMARK  4 active torsions:
REMARK  status: ('A' for Active; 'I' for Inactive)
REMARK    1  A    between atoms: C_2  and  C_3
REMARK    2  A    between atoms: N_5  and  C_6
REMARK    3  A    between atoms: C_8  and  C_10
REMARK    4  A    between atoms: C_17  and  C_19
REMARK                            x       y       z     vdW  Elec       q    Type
REMARK                         _______ _______ _______ _____ _____    ______ ____
ROOT
ATOM      1  C   UNL A   1     -24.609   1.007  26.331  0.00  0.00    +0.074 A 
ATOM      2  C   UNL A   1     -23.849   1.820  25.950  0.00  0.00    +0.017 A 
ATOM      3  C   UNL A   1     -22.590   2.153  26.538  0.00  0.00    +0.002 A 
ATOM      4  C   UNL A   1     -22.233   1.350  27.646  0.00  0.00    +0.005 A 
ATOM      5  C   UNL A   1     -23.133   0.395  28.088  0.00  0.00    +0.055 A 
ATOM      6  C   UNL A   1     -24.325   0.211  27.460  0.00  0.00    +0.021 A 
ENDROOT
BRANCH   5   7
ATOM      7  C   UNL A   1     -22.801  -0.449  29.252  0.00  0.00    +0.249 C 
ATOM      8  N   UNL A   1     -23.167  -0.423  30.320  0.00  0.00    -0.276 N 
ATOM      9  O   UNL A   1     -21.741  -1.209  29.038  0.00  0.00    -0.270 OA
ATOM     10  C   UNL A   1     -22.788  -1.231  31.467  0.00  0.00    +0.094 C 
ATOM     11  C   UNL A   1     -23.459  -1.011  32.574  0.00  0.00    +0.022 C 
ATOM     12  C   UNL A   1     -24.400  -0.172  32.601  0.00  0.00    +0.004 C 
ATOM     13  C   UNL A   1     -24.905   0.652  31.601  0.00  0.00    +0.022 C 
ATOM     14  C   UNL A   1     -24.327   0.528  30.483  0.00  0.00    +0.094 C 
ENDBRANCH   5   7
BRANCH   1  17
ATOM     15  O   UNL A   1     -26.896   2.324  27.119  0.00  0.00    -0.268 OA
ATOM     16  C   UNL A   1     -27.037   1.736  26.041  0.00  0.00    +0.269 C 
ATOM     17  N   UNL A   1     -25.788   0.959  25.631  0.00  0.00    -0.175 NA
BRANCH  16  18
ATOM     18  C   UNL A   1     -27.855   1.511  25.281  0.00  0.00    +0.055 A 
ATOM     19  C   UNL A   1     -28.276   2.346  24.261  0.00  0.00    +0.005 A 
ATOM     20  C   UNL A   1     -28.349   0.261  24.822  0.00  0.00    +0.008 A 
ATOM     21  C   UNL A   1     -29.412  -0.041  23.919  0.00  0.00    +0.072 A 
ATOM     22  C   UNL A   1     -29.411   2.259  23.377  0.00  0.00    +0.000 A 
ATOM     23  C   UNL A   1     -29.979   1.059  23.212  0.00  0.00    +0.004 A 
BRANCH  21  24
ATOM     24  C   UNL A   1     -29.960  -1.403  23.684  0.00  0.00    +0.419 C 
ATOM     25  F   UNL A   1     -30.712  -1.438  22.764  0.00  0.00    -0.166 F 
ATOM     26  F   UNL A   1     -30.152  -2.088  24.441  0.00  0.00    -0.166 F 
ATOM     27  F   UNL A   1     -28.792  -2.030  22.939  0.00  0.00    -0.166 F 
ENDBRANCH  21  24
ENDBRANCH  16  18
ENDBRANCH   1  17
TORSDOF 4
ENDMDL
ENDMDL
