MODEL 1663
MODEL 1
REMARK VINA RESULT:    -7.279      0.000      0.000
REMARK INTER + INTRA:          -8.832
REMARK INTER:                  -8.130
REMARK INTRA:                  -0.703
REMARK UNBOUND:                -0.703
REMARK  Name = No_1663-gen_results/8p0m/2024-11-27-11-27-31/
REMARK  2 active torsions:
REMARK  status: ('A' for Active; 'I' for Inactive)
REMARK    1  A    between atoms: C_4  and  C_11
REMARK    2  A    between atoms: C_7  and  N_17
REMARK                            x       y       z     vdW  Elec       q    Type
REMARK                         _______ _______ _______ _____ _____    ______ ____
ROOT
ATOM      1  C   UNL A   1     -24.587   0.539  26.140  0.00  0.00    +0.022 A 
ATOM      2  C   UNL A   1     -24.653  -0.384  26.919  0.00  0.00    +0.002 A 
ATOM      3  C   UNL A   1     -24.098  -0.356  28.197  0.00  0.00    +0.000 A 
ATOM      4  C   UNL A   1     -24.121  -1.435  29.204  0.00  0.00    +0.000 A 
ATOM      5  C   UNL A   1     -23.501  -1.386  30.503  0.00  0.00    +0.000 A 
ATOM      6  C   UNL A   1     -23.020  -0.126  30.875  0.00  0.00    +0.000 A 
ATOM      7  C   UNL A   1     -23.723   1.707  26.525  0.00  0.00    +0.124 A 
ATOM      8  C   UNL A   1     -23.213   1.859  27.794  0.00  0.00    +0.022 A 
ATOM      9  C   UNL A   1     -23.332   0.816  28.696  0.00  0.00    +0.002 A 
ATOM     10  C   UNL A   1     -22.841   0.922  29.997  0.00  0.00    +0.000 A 
ENDROOT
BRANCH   4  11
ATOM     11  C   UNL A   1     -24.797  -2.736  28.892  0.00  0.00    +0.000 A 
ATOM     12  C   UNL A   1     -26.012  -2.884  29.277  0.00  0.00    +0.000 A 
ATOM     13  C   UNL A   1     -26.365  -4.042  29.845  0.00  0.00    +0.000 A 
ATOM     14  C   UNL A   1     -25.650  -5.220  29.451  0.00  0.00    +0.000 A 
ATOM     15  C   UNL A   1     -24.057  -3.822  28.407  0.00  0.00    +0.000 A 
ATOM     16  C   UNL A   1     -24.427  -5.067  28.826  0.00  0.00    +0.000 A 
ENDBRANCH   4  11
BRANCH   7  17
ATOM     17  N   UNL A   1     -23.625   2.740  25.566  0.00  0.00    -0.029 NA
ATOM     18  O   UNL A   1     -24.095   3.808  25.783  0.00  0.00    -0.143 OA
ENDBRANCH   7  17
TORSDOF 2
ENDMDL
ENDMDL
