MODEL 1664
MODEL 1
REMARK VINA RESULT:    -5.697      0.000      0.000
REMARK INTER + INTRA:          -5.697
REMARK INTER:                  -5.697
REMARK INTRA:                   0.000
REMARK UNBOUND:                 0.000
REMARK  Name = No_1664-gen_results/8p0m/2024-11-27-11-27-31/
REMARK  0 active torsions:
REMARK  status: ('A' for Active; 'I' for Inactive)
REMARK                            x       y       z     vdW  Elec       q    Type
REMARK                         _______ _______ _______ _____ _____    ______ ____
ROOT
ATOM      1  C   UNL A   1     -23.819  -2.296  29.387  0.00  0.00    +0.011 A 
ATOM      2  C   UNL A   1     -24.793  -2.395  28.998  0.00  0.00    +0.058 A 
ATOM      3  C   UNL A   1     -23.056  -1.073  28.928  0.00  0.00    +0.001 A 
ATOM      4  C   UNL A   1     -21.670  -0.783  29.193  0.00  0.00    +0.002 A 
ATOM      5  C   UNL A   1     -25.653  -1.460  28.260  0.00  0.00    +0.011 A 
ATOM      6  C   UNL A   1     -25.035  -0.305  27.830  0.00  0.00    +0.001 A 
ATOM      7  C   UNL A   1     -23.731  -0.050  28.169  0.00  0.00    +0.002 A 
ATOM      8  C   UNL A   1     -20.988   0.186  28.452  0.00  0.00    +0.030 A 
ATOM      9  C   UNL A   1     -21.719   1.167  27.750  0.00  0.00    +0.140 A 
ATOM     10  C   UNL A   1     -23.019   1.023  27.540  0.00  0.00    +0.030 A 
ATOM     11  F   UNL A   1     -21.024   2.157  27.194  0.00  0.00    -0.204 F 
ATOM     12 CL   UNL A   1     -25.755  -3.835  29.579  0.00  0.00    -0.082 Cl
ENDROOT
TORSDOF 0
ENDMDL
ENDMDL
