REMARK  Name = No_1664-gen_results/8p0m/2024-11-27-11-27-31/
REMARK  0 active torsions:
REMARK  status: ('A' for Active; 'I' for Inactive)
REMARK                            x       y       z     vdW  Elec       q    Type
REMARK                         _______ _______ _______ _____ _____    ______ ____
ROOT
ATOM      1  C   UNL A   1     -28.016  -0.814  28.878  0.00  0.00    +0.011 A 
ATOM      2  C   UNL A   1     -28.469  -0.785  29.829  0.00  0.00    +0.058 A 
ATOM      3  C   UNL A   1     -26.504  -0.778  28.877  0.00  0.00    +0.001 A 
ATOM      4  C   UNL A   1     -25.654  -0.660  27.719  0.00  0.00    +0.002 A 
ATOM      5  C   UNL A   1     -27.918  -0.937  31.182  0.00  0.00    +0.011 A 
ATOM      6  C   UNL A   1     -26.542  -0.940  31.261  0.00  0.00    +0.001 A 
ATOM      7  C   UNL A   1     -25.783  -0.893  30.120  0.00  0.00    +0.002 A 
ATOM      8  C   UNL A   1     -24.310  -0.301  27.853  0.00  0.00    +0.030 A 
ATOM      9  C   UNL A   1     -23.667  -0.460  29.099  0.00  0.00    +0.140 A 
ATOM     10  C   UNL A   1     -24.370  -0.664  30.203  0.00  0.00    +0.030 A 
ATOM     11  F   UNL A   1     -22.352  -0.256  29.132  0.00  0.00    -0.204 F 
ATOM     12 CL   UNL A   1     -30.293  -0.882  29.859  0.00  0.00    -0.082 Cl
ENDROOT
TORSDOF 0
