MODEL 1665
MODEL 1
REMARK VINA RESULT:    -7.384      0.000      0.000
REMARK INTER + INTRA:          -8.896
REMARK INTER:                  -8.247
REMARK INTRA:                  -0.648
REMARK UNBOUND:                -0.648
REMARK  Name = No_1665-gen_results/8p0m/2024-11-27-11-27-31/
REMARK  2 active torsions:
REMARK  status: ('A' for Active; 'I' for Inactive)
REMARK    1  A    between atoms: C_1  and  C_13
REMARK    2  A    between atoms: C_5  and  C_7
REMARK                            x       y       z     vdW  Elec       q    Type
REMARK                         _______ _______ _______ _____ _____    ______ ____
ROOT
ATOM      1  C   UNL A   1     -23.446   0.694  27.603  0.00  0.00    +0.071 A 
ATOM      2  C   UNL A   1     -22.318   0.844  28.012  0.00  0.00    +0.004 A 
ATOM      3  C   UNL A   1     -21.718   0.002  28.928  0.00  0.00    -0.000 A 
ATOM      4  C   UNL A   1     -22.459  -1.125  29.383  0.00  0.00    -0.000 A 
ATOM      5  C   UNL A   1     -23.646  -1.343  28.771  0.00  0.00    -0.000 A 
ATOM      6  C   UNL A   1     -24.125  -0.504  27.873  0.00  0.00    +0.004 A 
ENDROOT
BRANCH   5   7
ATOM      7  C   UNL A   1     -24.387  -2.534  29.236  0.00  0.00    -0.000 A 
ATOM      8  C   UNL A   1     -25.616  -2.448  29.669  0.00  0.00    -0.000 A 
ATOM      9  C   UNL A   1     -26.340  -3.517  29.807  0.00  0.00    -0.000 A 
ATOM     10  C   UNL A   1     -25.901  -4.823  29.550  0.00  0.00    +0.000 A 
ATOM     11  C   UNL A   1     -23.940  -3.797  28.773  0.00  0.00    -0.000 A 
ATOM     12  C   UNL A   1     -24.670  -4.917  28.998  0.00  0.00    -0.000 A 
ENDBRANCH   5   7
BRANCH   1  13
ATOM     13  C   UNL A   1     -24.067   1.593  26.534  0.00  0.00    +0.419 C 
ATOM     14  F   UNL A   1     -24.938   2.199  26.773  0.00  0.00    -0.166 F 
ATOM     15  F   UNL A   1     -22.992   2.398  26.073  0.00  0.00    -0.166 F 
ATOM     16  F   UNL A   1     -24.269   0.811  25.378  0.00  0.00    -0.166 F 
ENDBRANCH   1  13
TORSDOF 2
ENDMDL
ENDMDL
