MODEL 1667
MODEL 1
REMARK VINA RESULT:    -4.951      0.000      0.000
REMARK INTER + INTRA:          -4.951
REMARK INTER:                  -4.951
REMARK INTRA:                   0.000
REMARK UNBOUND:                 0.000
REMARK  Name = No_1667-gen_results/8p0m/2024-11-27-11-27-31/
REMARK  0 active torsions:
REMARK  status: ('A' for Active; 'I' for Inactive)
REMARK                            x       y       z     vdW  Elec       q    Type
REMARK                         _______ _______ _______ _____ _____    ______ ____
ROOT
ATOM      1  C   UNL A   1      -8.867 -10.850  17.993  0.00  0.00    +0.042 A 
ATOM      2  C   UNL A   1      -8.006 -10.648  18.818  0.00  0.00    +0.003 A 
ATOM      3  C   UNL A   1      -8.235  -9.812  19.905  0.00  0.00    +0.000 A 
ATOM      4  C   UNL A   1      -9.490  -9.123  20.059  0.00  0.00    +0.003 A 
ATOM      5  C   UNL A   1     -10.421  -9.395  19.047  0.00  0.00    +0.042 A 
ATOM      6  C   UNL A   1     -10.148 -10.181  18.030  0.00  0.00    +0.196 A 
ATOM      7  O   UNL A   1     -11.095 -10.361  17.069  0.00  0.00    -0.287 OA
ENDROOT
TORSDOF 0
ENDMDL
ENDMDL
