REMARK  Name = outputs/IAG933/test6/raw/output_1667_IAG933_linker_design_.xyz
REMARK  10 active torsions:
REMARK  status: ('A' for Active; 'I' for Inactive)
REMARK    1  A    between atoms: C_1  and  C_2
REMARK    2  A    between atoms: C_1  and  C_8
REMARK    3  A    between atoms: C_1  and  C_28
REMARK    4  A    between atoms: C_21  and  O_22
REMARK    5  A    between atoms: O_22  and  C_23
REMARK    6  A    between atoms: C_23  and  C_24
REMARK    7  A    between atoms: C_32  and  C_37
REMARK    8  A    between atoms: C_33  and  C_38
REMARK    9  A    between atoms: C_38  and  N_41
REMARK   10  A    between atoms: C_40  and  N_41
REMARK                            x       y       z     vdW  Elec       q    Type
REMARK                         _______ _______ _______ _____ _____    ______ ____
ROOT
ATOM      1  C   UNL A   1     -25.688   1.614  26.461  0.00  0.00    +0.041 C 
ATOM      2  C   UNL A   1     -26.250   2.920  26.395  0.00  0.00    +0.075 C 
ATOM      3  C   UNL A   1     -25.642   4.093  27.123  0.00  0.00    +0.226 C 
ATOM      4  N   UNL A   1     -25.614   5.252  26.449  0.00  0.00    -0.235 NA
ATOM      5  C   UNL A   1     -25.026   6.479  26.963  0.00  0.00    +0.155 C 
ATOM      6  O   UNL A   1     -25.143   3.966  28.243  0.00  0.00    -0.413 OA
ATOM      7  C   UNL A   1     -27.438   3.091  25.645  0.00  0.00    +0.107 C 
ATOM      8  N   UNL A   1     -28.075   2.089  25.003  0.00  0.00    -0.208 NA
ATOM      9  C   UNL A   1     -27.543   0.849  25.079  0.00  0.00    +0.253 C 
ATOM     10  C   UNL A   1     -26.354   0.576  25.777  0.00  0.00    +0.193 C 
ATOM     11  F   UNL A   1     -25.860  -0.681  25.795  0.00  0.00    -0.199 F 
ATOM     12  C   UNL A   1     -24.095  -0.009  29.372  0.00  0.00    +0.087 C 
ATOM     13  N   UNL A   1     -22.924  -0.247  29.607  0.00  0.00    -0.210 NA
ATOM     14  C   UNL A   1     -24.429   1.448  27.389  0.00  0.00    +0.043 C 
ATOM     15  C   UNL A   1     -22.834   1.544  27.180  0.00  0.00    +0.074 C 
ATOM     16  C   UNL A   1     -24.702   1.282  28.817  0.00  0.00    +0.155 C 
ATOM     17  F   UNL A   1     -20.493   1.495  27.838  0.00  0.00    -0.203 F 
ATOM     18  C   UNL A   1     -21.843   0.220  29.125  0.00  0.00    +0.115 C 
ATOM     19  O   UNL A   1     -25.465   1.986  29.659  0.00  0.00    -0.429 OA
ATOM     20  C   UNL A   1     -25.738   3.267  29.388  0.00  0.00    +0.434 C 
ATOM     21  C   UNL A   1     -21.592   1.075  28.040  0.00  0.00    +0.160 C 
ENDROOT
BRANCH  15  22
ATOM     22  C   UNL A   1     -22.733   2.071  26.052  0.00  0.00    +0.236 C 
ATOM     23  O   UNL A   1     -23.360   2.779  25.244  0.00  0.00    -0.283 OA
ENDBRANCH  15  22
BRANCH  12  24
ATOM     24  C   UNL A   1     -24.855  -1.012  30.143  0.00  0.00    +0.079 C 
BRANCH  24  25
ATOM     25  C   UNL A   1     -24.973  -2.505  29.788  0.00  0.00    -0.016 C 
ATOM     26  C   UNL A   1     -23.906  -3.173  29.146  0.00  0.00    -0.004 C 
ATOM     27  C   UNL A   1     -23.989  -4.549  28.853  0.00  0.00    -0.000 C 
ATOM     28  C   UNL A   1     -25.137  -5.280  29.205  0.00  0.00    -0.000 C 
ATOM     29  C   UNL A   1     -26.232  -4.611  29.784  0.00  0.00    -0.000 C 
ATOM     30  C   UNL A   1     -26.155  -3.232  30.065  0.00  0.00    -0.004 C 
ENDBRANCH  24  25
BRANCH  24  31
ATOM     31  C   UNL A   1     -25.387  -0.679  31.571  0.00  0.00    +0.082 C 
ATOM     32  C   UNL A   1     -25.189   0.773  32.028  0.00  0.00    +0.020 C 
ATOM     33  C   UNL A   1     -25.336   0.684  33.544  0.00  0.00    +0.020 C 
ATOM     34  C   UNL A   1     -24.829  -0.715  33.905  0.00  0.00    +0.089 C 
ATOM     35  N   UNL A   1     -24.758  -1.481  32.646  0.00  0.00    -0.219 NA
ENDBRANCH  24  31
ENDBRANCH  12  24
BRANCH   9  36
ATOM     36  O   UNL A   1     -28.193  -0.208  24.477  0.00  0.00    -0.456 OA
BRANCH  36  37
ATOM     37  C   UNL A   1     -29.460   0.005  23.866  0.00  0.00    +0.243 C 
BRANCH  37  38
ATOM     38  C   UNL A   1     -30.065  -1.377  23.573  0.00  0.00    +0.229 C 
ATOM     39  O   UNL A   1     -30.729  -1.878  24.721  0.00  0.00    -0.216 OA
ENDBRANCH  37  38
ENDBRANCH  36  37
ENDBRANCH   9  36
BRANCH  20  40
ATOM     40  N   UNL A   1     -26.896   3.769  30.090  0.00  0.00    -0.131 NA
BRANCH  40  41
ATOM     41  C   UNL A   1     -27.029   4.032  31.538  0.00  0.00    +0.160 C 
BRANCH  41  43
ATOM     42  C   UNL A   1     -28.084   6.204  31.066  0.00  0.00    +0.074 C 
ATOM     43  C   UNL A   1     -26.996   5.411  31.721  0.00  0.00    +0.169 C 
ATOM     44  O   UNL A   1     -25.996   6.024  32.144  0.00  0.00    -0.294 OA
ENDBRANCH  41  43
ENDBRANCH  40  41
ENDBRANCH  20  40
TORSDOF 10
