MODEL 1668
MODEL 1
REMARK VINA RESULT:    -7.290      0.000      0.000
REMARK INTER + INTRA:         -13.505
REMARK INTER:                 -10.273
REMARK INTRA:                  -3.232
REMARK UNBOUND:                -3.232
REMARK  Name = No_1668-gen_results/8p0m/2024-11-27-11-27-31/
REMARK  7 active torsions:
REMARK  status: ('A' for Active; 'I' for Inactive)
REMARK    1  A    between atoms: C_3  and  C_7
REMARK    2  A    between atoms: C_6  and  C_24
REMARK    3  A    between atoms: C_8  and  C_15
REMARK    4  A    between atoms: C_9  and  C_10
REMARK    5  A    between atoms: C_20  and  C_23
REMARK    6  A    between atoms: C_23  and  C_27
REMARK    7  A    between atoms: C_27  and  C_28
REMARK                            x       y       z     vdW  Elec       q    Type
REMARK                         _______ _______ _______ _____ _____    ______ ____
ROOT
ATOM      1  C   UNL A   1     -28.083   0.800  26.349  0.00  0.00    +0.040 C 
ATOM      2  C   UNL A   1     -29.011   0.510  25.752  0.00  0.00    +0.125 C 
ATOM      3  C   UNL A   1     -26.757   0.764  25.659  0.00  0.00    +0.044 C 
ATOM      4  C   UNL A   1     -26.933   0.520  24.297  0.00  0.00    +0.093 C 
ATOM      5  C   UNL A   1     -29.055   0.137  24.368  0.00  0.00    +0.100 C 
ATOM      6  N   UNL A   1     -27.949   0.125  23.707  0.00  0.00    -0.217 NA
ENDROOT
BRANCH   3   7
ATOM      7  C   UNL A   1     -25.544   1.038  26.235  0.00  0.00    -0.021 A 
ATOM      8  C   UNL A   1     -24.990   2.277  26.265  0.00  0.00    -0.005 A 
ATOM      9  C   UNL A   1     -23.665   2.549  26.794  0.00  0.00    -0.005 A 
ATOM     10  C   UNL A   1     -22.833   1.469  27.040  0.00  0.00    -0.026 A 
ATOM     11  C   UNL A   1     -21.598   1.711  27.564  0.00  0.00    +0.031 C 
ATOM     12  C   UNL A   1     -25.042   0.517  27.442  0.00  0.00    -0.009 A 
ATOM     13  C   UNL A   1     -23.546   0.637  27.656  0.00  0.00    -0.026 A 
BRANCH  13  14
ATOM     14  C   UNL A   1     -22.944  -0.482  28.477  0.00  0.00    +0.030 C 
BRANCH  14  15
ATOM     15  C   UNL A   1     -23.669  -0.706  29.734  0.00  0.00    +0.023 C 
ATOM     16  C   UNL A   1     -22.583  -0.806  30.845  0.00  0.00    +0.005 C 
ATOM     17  C   UNL A   1     -24.291   0.589  30.374  0.00  0.00    +0.005 C 
BRANCH  15  18
ATOM     18  C   UNL A   1     -24.481  -1.677  29.828  0.00  0.00    -0.022 A 
ATOM     19  C   UNL A   1     -25.425  -2.067  30.151  0.00  0.00    -0.004 A 
ATOM     20  C   UNL A   1     -26.126  -3.389  29.969  0.00  0.00    -0.000 A 
ATOM     21  C   UNL A   1     -25.365  -4.315  29.236  0.00  0.00    -0.000 A 
ATOM     22  C   UNL A   1     -23.817  -2.945  28.969  0.00  0.00    -0.004 A 
ATOM     23  C   UNL A   1     -24.342  -4.050  28.716  0.00  0.00    -0.000 A 
ENDBRANCH  15  18
ENDBRANCH  14  15
ENDBRANCH  13  14
ENDBRANCH   3   7
BRANCH   1  26
ATOM     24  C   UNL A   1     -28.010   2.697  28.040  0.00  0.00    -0.004 A 
ATOM     25  C   UNL A   1     -28.050   2.959  29.060  0.00  0.00    -0.000 A 
ATOM     26  C   UNL A   1     -28.030   1.248  27.808  0.00  0.00    -0.021 A 
ATOM     27  C   UNL A   1     -27.920   0.362  28.799  0.00  0.00    +0.002 A 
ATOM     28  C   UNL A   1     -27.923   2.201  30.280  0.00  0.00    +0.007 A 
ATOM     29  C   UNL A   1     -27.917   0.858  30.042  0.00  0.00    +0.080 A 
BRANCH  29  30
ATOM     30  C   UNL A   1     -28.071   0.051  31.237  0.00  0.00    +0.388 C 
ATOM     31  O   UNL A   1     -27.583   0.232  32.262  0.00  0.00    -0.241 OA
ATOM     32  O   UNL A   1     -29.022  -0.955  31.105  0.00  0.00    -0.241 OA
ENDBRANCH  29  30
ENDBRANCH   1  26
BRANCH   2  33
ATOM     33  C   UNL A   1     -30.284   0.402  26.344  0.00  0.00    +0.366 C 
ATOM     34  O   UNL A   1     -30.666  -0.694  26.701  0.00  0.00    -0.246 OA
ATOM     35  O   UNL A   1     -31.074   1.456  26.316  0.00  0.00    -0.246 OA
ENDBRANCH   2  33
TORSDOF 7
ENDMDL
ENDMDL
