MODEL 1669
MODEL 1
REMARK VINA RESULT:    -4.283      0.000      0.000
REMARK INTER + INTRA:          -5.351
REMARK INTER:                  -5.034
REMARK INTRA:                  -0.317
REMARK UNBOUND:                -0.317
REMARK  Name = No_1669-gen_results/8p0m/2024-11-27-11-27-31/
REMARK  3 active torsions:
REMARK  status: ('A' for Active; 'I' for Inactive)
REMARK    1  A    between atoms: C_1  and  C_3
REMARK    2  A    between atoms: C_3  and  C_4
REMARK    3  A    between atoms: C_5  and  C_6
REMARK                            x       y       z     vdW  Elec       q    Type
REMARK                         _______ _______ _______ _____ _____    ______ ____
ROOT
ATOM      1  C   UNL A   1     -23.857  -1.778  30.350  0.00  0.00    -0.013 C 
ATOM      2  C   UNL A   1     -22.753  -0.722  30.384  0.00  0.00    -0.004 C 
ENDROOT
BRANCH   2   3
ATOM      3  C   UNL A   1     -22.281  -0.257  29.195  0.00  0.00    -0.005 C 
ATOM      4  C   UNL A   1     -22.647   0.993  28.764  0.00  0.00    -0.026 C 
ATOM      5  C   UNL A   1     -22.128   1.437  27.437  0.00  0.00    +0.031 C 
ENDBRANCH   2   3
BRANCH   1   6
ATOM      6  C   UNL A   1     -24.235  -2.403  29.313  0.00  0.00    +0.087 C 
ATOM      7  C   UNL A   1     -25.346  -1.699  28.600  0.00  0.00    +0.019 C 
BRANCH   6   8
ATOM      8  C   UNL A   1     -23.932  -3.642  28.695  0.00  0.00    -0.074 C 
ATOM      9  C   UNL A   1     -24.219  -4.654  28.625  0.00  0.00    -0.014 C 
ENDBRANCH   6   8
ENDBRANCH   1   6
TORSDOF 3
ENDMDL
ENDMDL
