REMARK  Name = outputs/IAG933/test6/raw/output_1669_IAG933_linker_design_.xyz
REMARK  8 active torsions:
REMARK  status: ('A' for Active; 'I' for Inactive)
REMARK    1  A    between atoms: C_1  and  C_2
REMARK    2  A    between atoms: C_1  and  C_8
REMARK    3  A    between atoms: C_1  and  C_37
REMARK    4  A    between atoms: C_13  and  C_34
REMARK    5  A    between atoms: C_14  and  C_15
REMARK    6  A    between atoms: C_21  and  O_22
REMARK    7  A    between atoms: O_22  and  C_23
REMARK    8  A    between atoms: C_23  and  C_24
REMARK                            x       y       z     vdW  Elec       q    Type
REMARK                         _______ _______ _______ _____ _____    ______ ____
ROOT
ATOM      1  C   UNL A   1     -23.025  -0.026  29.007  0.00  0.00    +0.167 C 
ATOM      2  C   UNL A   1     -24.993   0.768  28.521  0.00  0.00    +0.168 C 
ATOM      3  F   UNL A   1     -23.347   0.483  24.438  0.00  0.00    -0.159 F 
ATOM      4  O   UNL A   1     -21.299   1.429  25.678  0.00  0.00    -0.392 OA
ATOM      5  C   UNL A   1     -23.389   1.570  26.501  0.00  0.00    +0.105 C 
ATOM      6  O   UNL A   1     -22.629   1.298  28.984  0.00  0.00    -0.448 OA
ATOM      7  C   UNL A   1     -24.682   1.303  27.158  0.00  0.00    +0.086 C 
ATOM      8  C   UNL A   1     -22.643   1.480  25.105  0.00  0.00    +0.431 C 
ATOM      9  O   UNL A   1     -20.266   2.355  27.507  0.00  0.00    -0.241 OA
ATOM     10  C   UNL A   1     -24.427  -0.340  29.297  0.00  0.00    +0.097 C 
ATOM     11  F   UNL A   1     -22.313   2.076  23.862  0.00  0.00    -0.159 F 
ATOM     12  O   UNL A   1     -26.235   1.168  29.021  0.00  0.00    -0.222 OA
ATOM     13  C   UNL A   1     -21.335   1.630  26.937  0.00  0.00    +0.380 C 
ATOM     14  O   UNL A   1     -20.572  -0.237  28.547  0.00  0.00    -0.280 OA
ATOM     15  C   UNL A   1     -21.821  -0.875  28.819  0.00  0.00    +0.267 C 
ATOM     16  C   UNL A   1     -22.443   1.520  27.740  0.00  0.00    +0.221 C 
ENDROOT
BRANCH   7  17
ATOM     17  C   UNL A   1     -25.688   1.614  26.461  0.00  0.00    +0.022 C 
ATOM     18  C   UNL A   1     -26.250   2.920  26.395  0.00  0.00    +0.073 C 
ATOM     19  C   UNL A   1     -27.438   3.091  25.645  0.00  0.00    +0.106 C 
ATOM     20  N   UNL A   1     -28.075   2.089  25.003  0.00  0.00    -0.208 NA
ATOM     21  C   UNL A   1     -27.543   0.849  25.079  0.00  0.00    +0.253 C 
ATOM     22  C   UNL A   1     -26.354   0.576  25.777  0.00  0.00    +0.190 C 
ATOM     23  F   UNL A   1     -25.860  -0.681  25.795  0.00  0.00    -0.200 F 
BRANCH  18  24
ATOM     24  C   UNL A   1     -25.642   4.093  27.123  0.00  0.00    +0.266 C 
ATOM     25  N   UNL A   1     -25.614   5.252  26.449  0.00  0.00    -0.200 NA
ATOM     26  C   UNL A   1     -25.026   6.479  26.963  0.00  0.00    +0.139 C 
ATOM     27  O   UNL A   1     -25.143   3.966  28.243  0.00  0.00    -0.268 OA
ENDBRANCH  18  24
BRANCH  21  28
ATOM     28  O   UNL A   1     -28.193  -0.208  24.477  0.00  0.00    -0.456 OA
BRANCH  28  29
ATOM     29  C   UNL A   1     -29.460   0.005  23.866  0.00  0.00    +0.243 C 
BRANCH  29  30
ATOM     30  C   UNL A   1     -30.065  -1.377  23.573  0.00  0.00    +0.229 C 
ATOM     31  O   UNL A   1     -30.729  -1.878  24.721  0.00  0.00    -0.216 OA
ENDBRANCH  29  30
ENDBRANCH  28  29
ENDBRANCH  21  28
ENDBRANCH   7  17
BRANCH  10  32
ATOM     32  C   UNL A   1     -24.855  -1.012  30.143  0.00  0.00    +0.048 C 
BRANCH  32  33
ATOM     33  C   UNL A   1     -24.973  -2.505  29.788  0.00  0.00    -0.021 C 
ATOM     34  C   UNL A   1     -23.906  -3.173  29.146  0.00  0.00    -0.004 C 
ATOM     35  C   UNL A   1     -23.989  -4.549  28.853  0.00  0.00    -0.000 C 
ATOM     36  C   UNL A   1     -25.137  -5.280  29.205  0.00  0.00    -0.000 C 
ATOM     37  C   UNL A   1     -26.232  -4.611  29.784  0.00  0.00    -0.000 C 
ATOM     38  C   UNL A   1     -26.155  -3.232  30.065  0.00  0.00    -0.004 C 
ENDBRANCH  32  33
BRANCH  32  39
ATOM     39  C   UNL A   1     -25.387  -0.679  31.571  0.00  0.00    +0.077 C 
ATOM     40  C   UNL A   1     -25.189   0.773  32.028  0.00  0.00    +0.019 C 
ATOM     41  C   UNL A   1     -25.336   0.684  33.544  0.00  0.00    +0.020 C 
ATOM     42  C   UNL A   1     -24.829  -0.715  33.905  0.00  0.00    +0.089 C 
ATOM     43  N   UNL A   1     -24.758  -1.481  32.646  0.00  0.00    -0.219 NA
ENDBRANCH  32  39
ENDBRANCH  10  32
TORSDOF 8
