REMARK  Name = outputs/IAG933/test6/raw/output_1671_IAG933_linker_design_.xyz
REMARK  15 active torsions:
REMARK  status: ('A' for Active; 'I' for Inactive)
REMARK    1  A    between atoms: C_1  and  C_2
REMARK    2  A    between atoms: C_1  and  C_8
REMARK    3  A    between atoms: C_1  and  N_40
REMARK    4  A    between atoms: C_13  and  N_38
REMARK    5  A    between atoms: C_14  and  C_15
REMARK    6  A    between atoms: C_21  and  O_22
REMARK    7  A    between atoms: O_22  and  C_23
REMARK    8  A    between atoms: C_23  and  C_24
REMARK    9  A    between atoms: C_30  and  N_38
REMARK   10  A    between atoms: C_30  and  N_40
REMARK   11  A    between atoms: C_30  and  C_42
REMARK   12  A    between atoms: C_33  and  C_42
REMARK   13  A    between atoms: C_34  and  C_43
REMARK   14  A    between atoms: N_40  and  C_44
REMARK   15  A    between atoms: C_43  and  C_44
REMARK                            x       y       z     vdW  Elec       q    Type
REMARK                         _______ _______ _______ _____ _____    ______ ____
ROOT
ATOM      1  C   UNL A   1     -24.435   0.486  28.330  0.00  0.00    +0.198 C 
ENDROOT
BRANCH   1   3
ATOM      2  O   UNL A   1     -22.438  -0.467  29.288  0.00  0.00    -0.286 OA
ATOM      3  C   UNL A   1     -22.993   0.284  28.486  0.00  0.00    +0.234 C 
BRANCH   3   5
ATOM      4 CL   UNL A   1     -22.426   1.819  26.241  0.00  0.00    -0.057 Cl
ATOM      5  C   UNL A   1     -21.887   1.091  27.726  0.00  0.00    +0.197 C 
ATOM      6  N   UNL A   1     -20.880   1.633  28.206  0.00  0.00    -0.132 NA
ENDBRANCH   3   5
ENDBRANCH   1   3
BRANCH   1   7
ATOM      7  N   UNL A   1     -24.849   1.347  27.431  0.00  0.00    -0.190 NA
BRANCH   7   8
ATOM      8  C   UNL A   1     -25.688   1.614  26.461  0.00  0.00    +0.144 C 
ATOM      9  C   UNL A   1     -26.250   2.920  26.395  0.00  0.00    +0.071 C 
ATOM     10  C   UNL A   1     -27.438   3.091  25.645  0.00  0.00    +0.103 C 
ATOM     11  N   UNL A   1     -28.075   2.089  25.003  0.00  0.00    -0.212 NA
ATOM     12  C   UNL A   1     -27.543   0.849  25.079  0.00  0.00    +0.236 C 
ATOM     13  C   UNL A   1     -26.354   0.576  25.777  0.00  0.00    +0.256 C 
ATOM     14  F   UNL A   1     -25.860  -0.681  25.795  0.00  0.00    -0.225 F 
BRANCH   9  15
ATOM     15  C   UNL A   1     -25.642   4.093  27.123  0.00  0.00    +0.264 C 
ATOM     16  N   UNL A   1     -25.614   5.252  26.449  0.00  0.00    -0.200 NA
ATOM     17  C   UNL A   1     -25.026   6.479  26.963  0.00  0.00    +0.139 C 
ATOM     18  O   UNL A   1     -25.143   3.966  28.243  0.00  0.00    -0.269 OA
ENDBRANCH   9  15
BRANCH  12  19
ATOM     19  O   UNL A   1     -28.193  -0.208  24.477  0.00  0.00    -0.459 OA
BRANCH  19  20
ATOM     20  C   UNL A   1     -29.460   0.005  23.866  0.00  0.00    +0.242 C 
BRANCH  20  21
ATOM     21  C   UNL A   1     -30.065  -1.377  23.573  0.00  0.00    +0.229 C 
ATOM     22  O   UNL A   1     -30.729  -1.878  24.721  0.00  0.00    -0.216 OA
ENDBRANCH  20  21
ENDBRANCH  19  20
ENDBRANCH  12  19
ENDBRANCH   7   8
ENDBRANCH   1   7
BRANCH   1  23
ATOM     23  N   UNL A   1     -25.233  -0.175  29.092  0.00  0.00    -0.250 NA
BRANCH  23  24
ATOM     24  C   UNL A   1     -24.855  -1.012  30.143  0.00  0.00    +0.098 C 
BRANCH  24  25
ATOM     25  C   UNL A   1     -24.973  -2.505  29.788  0.00  0.00    -0.006 C 
ATOM     26  C   UNL A   1     -23.906  -3.173  29.146  0.00  0.00    -0.003 C 
ATOM     27  C   UNL A   1     -23.989  -4.549  28.853  0.00  0.00    -0.000 C 
ATOM     28  C   UNL A   1     -25.137  -5.280  29.205  0.00  0.00    -0.000 C 
ATOM     29  C   UNL A   1     -26.232  -4.611  29.784  0.00  0.00    -0.000 C 
ATOM     30  C   UNL A   1     -26.155  -3.232  30.065  0.00  0.00    -0.003 C 
ENDBRANCH  24  25
BRANCH  24  31
ATOM     31  C   UNL A   1     -25.387  -0.679  31.571  0.00  0.00    +0.092 C 
ATOM     32  C   UNL A   1     -25.189   0.773  32.028  0.00  0.00    +0.021 C 
ATOM     33  C   UNL A   1     -25.336   0.684  33.544  0.00  0.00    +0.020 C 
ATOM     34  C   UNL A   1     -24.829  -0.715  33.905  0.00  0.00    +0.089 C 
ATOM     35  N   UNL A   1     -24.758  -1.481  32.646  0.00  0.00    -0.218 NA
ENDBRANCH  24  31
ENDBRANCH  23  24
BRANCH  23  36
ATOM     36  C   UNL A   1     -26.594  -0.333  28.640  0.00  0.00    +0.077 C 
BRANCH  36  37
ATOM     37  C   UNL A   1     -27.687   0.590  29.171  0.00  0.00    +0.051 C 
BRANCH  37  41
ATOM     38  C   UNL A   1     -30.006   0.872  27.524  0.00  0.00    +0.172 C 
ATOM     39  C   UNL A   1     -29.713   0.157  30.597  0.00  0.00    +0.235 C 
ATOM     40  C   UNL A   1     -31.150   1.468  28.365  0.00  0.00    +0.046 C 
ATOM     41  C   UNL A   1     -28.909  -0.282  29.370  0.00  0.00    +0.161 C 
ATOM     42  C   UNL A   1     -31.042   1.983  29.853  0.00  0.00    +0.170 C 
ATOM     43  O   UNL A   1     -29.866   1.599  30.612  0.00  0.00    -0.470 OA
ATOM     44  O   UNL A   1     -29.688  -0.337  28.172  0.00  0.00    -0.347 OA
ENDBRANCH  37  41
ENDBRANCH  36  37
ENDBRANCH  23  36
ENDBRANCH   1  23
TORSDOF 15
