MODEL 1672
MODEL 1
REMARK VINA RESULT:    -7.009      0.000      0.000
REMARK INTER + INTRA:          -8.223
REMARK INTER:                  -7.828
REMARK INTRA:                  -0.394
REMARK UNBOUND:                -0.394
REMARK  Name = No_1672-gen_results/8p0m/2024-11-27-11-27-31/
REMARK  2 active torsions:
REMARK  status: ('A' for Active; 'I' for Inactive)
REMARK    1  A    between atoms: C_2  and  C_7
REMARK    2  A    between atoms: C_11  and  C_18
REMARK                            x       y       z     vdW  Elec       q    Type
REMARK                         _______ _______ _______ _____ _____    ______ ____
ROOT
ATOM      1  C   UNL A   1     -24.851   2.547  28.340  0.00  0.00    +0.018 A 
ATOM      2  C   UNL A   1     -24.300   2.073  27.577  0.00  0.00    +0.080 A 
ATOM      3  C   UNL A   1     -24.579   2.108  29.718  0.00  0.00    +0.054 A 
ATOM      4  C   UNL A   1     -23.799   1.189  29.940  0.00  0.00    -0.014 A 
ATOM      5  C   UNL A   1     -23.241   1.048  27.609  0.00  0.00    +0.002 A 
ATOM      6  C   UNL A   1     -23.029   0.591  28.873  0.00  0.00    -0.021 A 
ATOM      7  C   UNL A   1     -23.489   0.647  31.343  0.00  0.00    +0.040 C 
ATOM      8  C   UNL A   1     -24.262  -0.538  31.692  0.00  0.00    +0.104 C 
ATOM      9  C   UNL A   1     -24.616  -1.402  31.007  0.00  0.00    -0.017 A 
ATOM     10  C   UNL A   1     -25.620  -2.077  30.738  0.00  0.00    -0.004 A 
ATOM     11  C   UNL A   1     -25.871  -2.862  29.496  0.00  0.00    -0.000 A 
ATOM     12  C   UNL A   1     -24.769  -2.943  28.634  0.00  0.00    -0.000 A 
ATOM     13  C   UNL A   1     -23.554  -2.466  28.937  0.00  0.00    -0.004 A 
ATOM     14  C   UNL A   1     -23.425  -1.679  29.975  0.00  0.00    -0.021 A 
ATOM     15  C   UNL A   1     -22.438  -0.603  29.938  0.00  0.00    +0.052 C 
ATOM     16 CL   UNL A   1     -25.567   2.845  30.985  0.00  0.00    -0.083 Cl
ENDROOT
BRANCH   8  17
ATOM     17  C   UNL A   1     -24.827  -0.444  33.096  0.00  0.00    +0.245 C 
ATOM     18  O   UNL A   1     -25.823   0.265  33.321  0.00  0.00    -0.273 OA
ATOM     19  N   UNL A   1     -24.246  -1.100  34.106  0.00  0.00    -0.203 NA
ATOM     20  C   UNL A   1     -24.705  -1.046  35.488  0.00  0.00    +0.139 C 
ENDBRANCH   8  17
BRANCH   2  21
ATOM     21  C   UNL A   1     -24.488   2.555  26.055  0.00  0.00    +0.388 C 
ATOM     22  O   UNL A   1     -25.427   2.841  25.645  0.00  0.00    -0.241 OA
ATOM     23  O   UNL A   1     -23.342   2.668  25.282  0.00  0.00    -0.241 OA
ENDBRANCH   2  21
TORSDOF 2
ENDMDL
ENDMDL
