REMARK  Name = outputs/IAG933/test6/raw/output_1673_IAG933_linker_design_.xyz
REMARK  10 active torsions:
REMARK  status: ('A' for Active; 'I' for Inactive)
REMARK    1  A    between atoms: C_1  and  C_2
REMARK    2  A    between atoms: C_1  and  C_8
REMARK    3  A    between atoms: C_9  and  C_28
REMARK    4  A    between atoms: C_21  and  O_22
REMARK    5  A    between atoms: O_22  and  C_23
REMARK    6  A    between atoms: C_23  and  C_24
REMARK    7  A    between atoms: C_29  and  C_36
REMARK    8  A    between atoms: C_29  and  N_38
REMARK    9  A    between atoms: C_33  and  N_42
REMARK   10  A    between atoms: C_36  and  C_37
REMARK                            x       y       z     vdW  Elec       q    Type
REMARK                         _______ _______ _______ _____ _____    ______ ____
ROOT
ATOM      1  C   UNL A   1     -25.688   1.614  26.461  0.00  0.00    +0.124 C 
ATOM      2  C   UNL A   1     -26.250   2.920  26.395  0.00  0.00    +0.082 C 
ATOM      3  C   UNL A   1     -25.642   4.093  27.123  0.00  0.00    +0.222 C 
ATOM      4  N   UNL A   1     -25.614   5.252  26.449  0.00  0.00    -0.236 NA
ATOM      5  C   UNL A   1     -25.026   6.479  26.963  0.00  0.00    +0.155 C 
ATOM      6  O   UNL A   1     -25.143   3.966  28.243  0.00  0.00    -0.460 OA
ATOM      7  C   UNL A   1     -27.438   3.091  25.645  0.00  0.00    +0.107 C 
ATOM      8  N   UNL A   1     -28.075   2.089  25.003  0.00  0.00    -0.208 NA
ATOM      9  C   UNL A   1     -27.543   0.849  25.079  0.00  0.00    +0.254 C 
ATOM     10  C   UNL A   1     -26.354   0.576  25.777  0.00  0.00    +0.200 C 
ATOM     11  F   UNL A   1     -25.860  -0.681  25.795  0.00  0.00    -0.199 F 
ATOM     12  C   UNL A   1     -25.179   1.996  31.193  0.00  0.00    +0.229 C 
ATOM     13  N   UNL A   1     -24.793   1.455  28.765  0.00  0.00    +0.155 NA
ATOM     14  C   UNL A   1     -25.347   4.170  29.727  0.00  0.00    +0.211 C 
ATOM     15  C   UNL A   1     -25.029   3.322  31.161  0.00  0.00    +0.091 C 
ATOM     16  O   UNL A   1     -25.590   1.433  29.703  0.00  0.00    -0.284 OA
ATOM     17  C   UNL A   1     -22.910   1.959  25.574  0.00  0.00    +0.254 C 
ATOM     18  N   UNL A   1     -23.274   1.425  26.927  0.00  0.00    -0.183 N 
ATOM     19  C   UNL A   1     -24.560   1.431  27.413  0.00  0.00    +0.372 C 
ENDROOT
BRANCH  12  21
ATOM     20  C   UNL A   1     -25.387  -0.679  31.571  0.00  0.00    +0.081 C 
ATOM     21  C   UNL A   1     -25.189   0.773  32.028  0.00  0.00    +0.063 C 
ATOM     22  C   UNL A   1     -25.336   0.684  33.544  0.00  0.00    +0.024 C 
ATOM     23  C   UNL A   1     -24.829  -0.715  33.905  0.00  0.00    +0.089 C 
ATOM     24  N   UNL A   1     -24.758  -1.481  32.646  0.00  0.00    -0.219 NA
BRANCH  20  25
ATOM     25  C   UNL A   1     -24.855  -1.012  30.143  0.00  0.00    +0.044 C 
BRANCH  25  26
ATOM     26  C   UNL A   1     -24.973  -2.505  29.788  0.00  0.00    -0.021 C 
ATOM     27  C   UNL A   1     -23.906  -3.173  29.146  0.00  0.00    -0.004 C 
ATOM     28  C   UNL A   1     -23.989  -4.549  28.853  0.00  0.00    -0.000 C 
ATOM     29  C   UNL A   1     -25.137  -5.280  29.205  0.00  0.00    -0.000 C 
ATOM     30  C   UNL A   1     -26.232  -4.611  29.784  0.00  0.00    -0.000 C 
ATOM     31  C   UNL A   1     -26.155  -3.232  30.065  0.00  0.00    -0.004 C 
ENDBRANCH  25  26
ENDBRANCH  20  25
ENDBRANCH  12  21
BRANCH  18  32
ATOM     32  C   UNL A   1     -22.203   0.974  27.827  0.00  0.00    +0.203 C 
ATOM     33  C   UNL A   1     -20.853   1.682  27.677  0.00  0.00    +0.055 C 
ENDBRANCH  18  32
BRANCH   9  34
ATOM     34  O   UNL A   1     -28.193  -0.208  24.477  0.00  0.00    -0.456 OA
BRANCH  34  35
ATOM     35  C   UNL A   1     -29.460   0.005  23.866  0.00  0.00    +0.243 C 
BRANCH  35  36
ATOM     36  C   UNL A   1     -30.065  -1.377  23.573  0.00  0.00    +0.229 C 
ATOM     37  O   UNL A   1     -30.729  -1.878  24.721  0.00  0.00    -0.216 OA
ENDBRANCH  35  36
ENDBRANCH  34  35
ENDBRANCH   9  34
BRANCH  15  38
ATOM     38  C   UNL A   1     -24.384   3.930  32.425  0.00  0.00    +0.029 C 
BRANCH  38  39
ATOM     39  C   UNL A   1     -24.911   4.864  33.419  0.00  0.00    +0.097 C 
ATOM     40  C   UNL A   1     -24.285   6.292  33.228  0.00  0.00    +0.024 C 
BRANCH  39  43
ATOM     41  C   UNL A   1     -26.896   4.354  34.490  0.00  0.00    +0.359 C 
ATOM     42  O   UNL A   1     -27.340   3.218  34.200  0.00  0.00    -0.247 OA
ATOM     43  N   UNL A   1     -26.381   5.094  33.291  0.00  0.00    -0.188 NA
ATOM     44  N   UNL A   1     -26.501   4.625  35.690  0.00  0.00    -0.068 NA
ENDBRANCH  39  43
ENDBRANCH  38  39
ENDBRANCH  15  38
TORSDOF 10
