MODEL 1673
MODEL 1
REMARK VINA RESULT:    -8.342      0.000      0.000
REMARK INTER + INTRA:         -13.978
REMARK INTER:                 -12.243
REMARK INTRA:                  -1.735
REMARK UNBOUND:                -1.735
REMARK  Name = No_1673-gen_results/8p0m/2024-11-27-11-27-31/
REMARK  8 active torsions:
REMARK  status: ('A' for Active; 'I' for Inactive)
REMARK    1  A    between atoms: C_1  and  C_6
REMARK    2  A    between atoms: C_5  and  C_16
REMARK    3  A    between atoms: N_8  and  C_10
REMARK    4  A    between atoms: N_8  and  C_22
REMARK    5  A    between atoms: C_14  and  C_19
REMARK    6  A    between atoms: C_22  and  C_23
REMARK    7  A    between atoms: C_27  and  C_29
REMARK    8  A    between atoms: C_29  and  C_30
REMARK                            x       y       z     vdW  Elec       q    Type
REMARK                         _______ _______ _______ _____ _____    ______ ____
ROOT
ATOM      1  C   UNL A   1     -25.617   1.565  25.796  0.00  0.00    +0.253 C 
ATOM      2  N   UNL A   1     -24.855   2.178  26.310  0.00  0.00    -0.251 N 
ATOM      3  O   UNL A   1     -25.073   0.465  25.143  0.00  0.00    -0.270 OA
ENDROOT
BRANCH   1   4
ATOM      4  C   UNL A   1     -27.053   1.561  25.859  0.00  0.00    +0.054 A 
ATOM      5  C   UNL A   1     -27.625   0.804  26.609  0.00  0.00    +0.004 A 
ATOM      6  C   UNL A   1     -28.999   0.670  26.711  0.00  0.00    +0.000 A 
ATOM      7  C   UNL A   1     -29.795   1.469  25.838  0.00  0.00    +0.007 A 
ATOM      8  C   UNL A   1     -29.125   2.188  24.915  0.00  0.00    +0.080 A 
ATOM      9  C   UNL A   1     -27.801   2.208  24.909  0.00  0.00    +0.011 A 
BRANCH   8  10
ATOM     10  C   UNL A   1     -29.979   2.913  23.921  0.00  0.00    +0.388 C 
ATOM     11  O   UNL A   1     -30.184   2.602  22.840  0.00  0.00    -0.241 OA
ATOM     12  O   UNL A   1     -30.458   4.114  24.330  0.00  0.00    -0.241 OA
ENDBRANCH   8  10
ENDBRANCH   1   4
BRANCH   2  13
ATOM     13  C   UNL A   1     -25.176   3.437  27.007  0.00  0.00    +0.055 A 
ATOM     14  C   UNL A   1     -25.733   3.245  28.210  0.00  0.00    +0.015 A 
ATOM     15  C   UNL A   1     -26.033   4.421  29.024  0.00  0.00    +0.002 A 
ATOM     16  C   UNL A   1     -25.804   5.654  28.429  0.00  0.00    +0.007 A 
ATOM     17  C   UNL A   1     -25.279   5.788  27.205  0.00  0.00    +0.081 A 
ATOM     18  C   UNL A   1     -24.963   4.649  26.466  0.00  0.00    +0.021 A 
BRANCH  17  19
ATOM     19  C   UNL A   1     -25.028   7.113  26.651  0.00  0.00    +0.388 C 
ATOM     20  O   UNL A   1     -25.907   8.018  26.699  0.00  0.00    -0.241 OA
ATOM     21  O   UNL A   1     -24.037   7.296  25.896  0.00  0.00    -0.241 OA
ENDBRANCH  17  19
ENDBRANCH   2  13
BRANCH   2  22
ATOM     22  C   UNL A   1     -23.364   1.973  26.496  0.00  0.00    +0.125 C 
BRANCH  22  23
ATOM     23  C   UNL A   1     -22.955   1.053  27.438  0.00  0.00    -0.002 A 
ATOM     24  C   UNL A   1     -21.534   1.049  27.623  0.00  0.00    -0.003 A 
ATOM     25  C   UNL A   1     -21.058   0.145  28.569  0.00  0.00    -0.001 A 
ATOM     26  C   UNL A   1     -21.901  -0.671  29.341  0.00  0.00    -0.004 A 
ATOM     27  C   UNL A   1     -23.260  -0.497  29.209  0.00  0.00    -0.018 A 
ATOM     28  C   UNL A   1     -23.752   0.350  28.340  0.00  0.00    -0.006 A 
BRANCH  27  29
ATOM     29  C   UNL A   1     -24.168  -1.361  30.080  0.00  0.00    +0.053 C 
BRANCH  29  30
ATOM     30  C   UNL A   1     -24.616  -2.545  29.712  0.00  0.00    -0.018 A 
ATOM     31  C   UNL A   1     -25.869  -2.985  30.070  0.00  0.00    -0.004 A 
ATOM     32  C   UNL A   1     -26.293  -4.328  29.726  0.00  0.00    -0.000 A 
ATOM     33  C   UNL A   1     -25.391  -5.076  28.982  0.00  0.00    -0.000 A 
ATOM     34  C   UNL A   1     -24.168  -4.681  28.604  0.00  0.00    -0.000 A 
ATOM     35  C   UNL A   1     -23.729  -3.421  28.971  0.00  0.00    -0.004 A 
ENDBRANCH  29  30
ENDBRANCH  27  29
ENDBRANCH  22  23
ENDBRANCH   2  22
TORSDOF 8
ENDMDL
ENDMDL
