MODEL 1674
MODEL 1
REMARK VINA RESULT:    -7.128      0.000      0.000
REMARK INTER + INTRA:          -8.564
REMARK INTER:                  -7.961
REMARK INTRA:                  -0.603
REMARK UNBOUND:                -0.603
REMARK  Name = No_1674-gen_results/8p0m/2024-11-27-11-27-31/
REMARK  2 active torsions:
REMARK  status: ('A' for Active; 'I' for Inactive)
REMARK    1  A    between atoms: C_2  and  C_3
REMARK    2  A    between atoms: C_5  and  C_6
REMARK                            x       y       z     vdW  Elec       q    Type
REMARK                         _______ _______ _______ _____ _____    ______ ____
ROOT
ATOM      1  C   UNL A   1     -24.405  -0.606  27.741  0.00  0.00    +0.002 A 
ATOM      2  C   UNL A   1     -24.203  -1.235  28.754  0.00  0.00    +0.010 A 
ATOM      3  C   UNL A   1     -23.598   0.588  27.524  0.00  0.00    +0.044 A 
ATOM      4  C   UNL A   1     -23.556  -0.557  29.968  0.00  0.00    +0.058 A 
ATOM      5  C   UNL A   1     -22.951   0.700  29.774  0.00  0.00    +0.011 A 
ATOM      6  C   UNL A   1     -23.019   1.333  28.570  0.00  0.00    +0.002 A 
ATOM      7 CL   UNL A   1     -23.400  -1.391  31.410  0.00  0.00    -0.082 Cl
ENDROOT
BRANCH   2   8
ATOM      8  C   UNL A   1     -24.703  -2.502  28.980  0.00  0.00    +0.001 A 
ATOM      9  C   UNL A   1     -25.802  -2.680  29.497  0.00  0.00    +0.000 A 
ATOM     10  C   UNL A   1     -26.348  -4.039  29.774  0.00  0.00    +0.000 A 
ATOM     11  C   UNL A   1     -25.567  -5.151  29.429  0.00  0.00    +0.000 A 
ATOM     12  C   UNL A   1     -23.962  -3.722  28.605  0.00  0.00    +0.000 A 
ATOM     13  C   UNL A   1     -24.379  -4.984  28.821  0.00  0.00    +0.000 A 
ENDBRANCH   2   8
BRANCH   3  14
ATOM     14  C   UNL A   1     -23.747   1.414  26.325  0.00  0.00    +0.341 C 
ATOM     15  F   UNL A   1     -23.165   2.358  26.342  0.00  0.00    -0.193 F 
ATOM     16  F   UNL A   1     -24.267   0.956  25.286  0.00  0.00    -0.193 F 
ENDBRANCH   3  14
TORSDOF 2
ENDMDL
ENDMDL
