REMARK  Name = outputs/IAG933/test6/raw/output_1675_IAG933_linker_design_.xyz
REMARK  13 active torsions:
REMARK  status: ('A' for Active; 'I' for Inactive)
REMARK    1  A    between atoms: C_1  and  C_2
REMARK    2  A    between atoms: C_1  and  C_8
REMARK    3  A    between atoms: C_9  and  C_37
REMARK    4  A    between atoms: C_13  and  C_28
REMARK    5  A    between atoms: C_14  and  C_15
REMARK    6  A    between atoms: C_21  and  O_22
REMARK    7  A    between atoms: O_22  and  C_23
REMARK    8  A    between atoms: C_23  and  C_24
REMARK    9  A    between atoms: C_28  and  N_32
REMARK   10  A    between atoms: C_35  and  C_46
REMARK   11  A    between atoms: C_37  and  C_38
REMARK   12  A    between atoms: C_37  and  N_41
REMARK   13  A    between atoms: C_38  and  C_47
REMARK                            x       y       z     vdW  Elec       q    Type
REMARK                         _______ _______ _______ _____ _____    ______ ____
ROOT
ATOM      1  C   UNL A   1     -24.640   1.884  31.217  0.00  0.00    +0.060 C 
ENDROOT
BRANCH   1   8
ATOM      2  O   UNL A   1     -27.751   5.864  31.785  0.00  0.00    -0.357 OA
ATOM      3  C   UNL A   1     -24.931   3.762  32.374  0.00  0.00    +0.077 C 
ATOM      4  C   UNL A   1     -26.664   5.276  31.692  0.00  0.00    +0.120 C 
ATOM      5  C   UNL A   1     -25.773   4.868  32.715  0.00  0.00    +0.074 C 
ATOM      6  C   UNL A   1     -26.278   7.773  32.208  0.00  0.00    +0.034 C 
ATOM      7  O   UNL A   1     -27.373   5.420  34.462  0.00  0.00    -0.223 OA
ATOM      8  N   UNL A   1     -25.355   3.052  31.316  0.00  0.00    -0.274 NA
ATOM      9  C   UNL A   1     -25.860   7.303  33.611  0.00  0.00    +0.036 C 
ATOM     10  C   UNL A   1     -26.442   3.249  30.562  0.00  0.00    +0.075 C 
ATOM     11  C   UNL A   1     -26.381   4.578  30.654  0.00  0.00    +0.047 C 
ATOM     12  C   UNL A   1     -27.614   7.137  31.957  0.00  0.00    +0.133 C 
ATOM     13  C   UNL A   1     -26.064   5.792  33.895  0.00  0.00    +0.156 C 
BRANCH  12  15
ATOM     14  C   UNL A   1     -27.927   6.524  29.971  0.00  0.00    +0.109 C 
ATOM     15  C   UNL A   1     -28.314   7.814  30.795  0.00  0.00    +0.117 C 
ATOM     16  N   UNL A   1     -27.457   7.762  29.526  0.00  0.00    -0.214 NA
ENDBRANCH  12  15
ENDBRANCH   1   8
BRANCH   1  18
ATOM     17  C   UNL A   1     -25.387  -0.679  31.571  0.00  0.00    +0.078 C 
ATOM     18  C   UNL A   1     -25.189   0.773  32.028  0.00  0.00    +0.033 C 
ATOM     19  C   UNL A   1     -25.336   0.684  33.544  0.00  0.00    +0.021 C 
ATOM     20  C   UNL A   1     -24.829  -0.715  33.905  0.00  0.00    +0.089 C 
ATOM     21  N   UNL A   1     -24.758  -1.481  32.646  0.00  0.00    -0.219 NA
BRANCH  17  22
ATOM     22  C   UNL A   1     -24.855  -1.012  30.143  0.00  0.00    +0.044 C 
BRANCH  22  23
ATOM     23  C   UNL A   1     -24.973  -2.505  29.788  0.00  0.00    -0.021 C 
ATOM     24  C   UNL A   1     -23.906  -3.173  29.146  0.00  0.00    -0.004 C 
ATOM     25  C   UNL A   1     -23.989  -4.549  28.853  0.00  0.00    -0.000 C 
ATOM     26  C   UNL A   1     -25.137  -5.280  29.205  0.00  0.00    -0.000 C 
ATOM     27  C   UNL A   1     -26.232  -4.611  29.784  0.00  0.00    -0.000 C 
ATOM     28  C   UNL A   1     -26.155  -3.232  30.065  0.00  0.00    -0.004 C 
ENDBRANCH  22  23
ENDBRANCH  17  22
ENDBRANCH   1  18
BRANCH   1  29
ATOM     29  C   UNL A   1     -23.340   1.885  30.418  0.00  0.00    +0.032 C 
BRANCH  29  32
ATOM     30  N   UNL A   1     -23.934   2.010  27.973  0.00  0.00    -0.274 NA
ATOM     31  C   UNL A   1     -22.955   2.349  26.825  0.00  0.00    +0.072 C 
ATOM     32  C   UNL A   1     -23.194   1.260  29.022  0.00  0.00    +0.059 C 
ATOM     33  C   UNL A   1     -21.770   0.919  28.486  0.00  0.00    +0.017 C 
ATOM     34  C   UNL A   1     -21.623   1.752  27.247  0.00  0.00    +0.019 C 
BRANCH  30  35
ATOM     35  C   UNL A   1     -24.811   1.147  27.448  0.00  0.00    +0.080 C 
BRANCH  35  36
ATOM     36  C   UNL A   1     -25.688   1.614  26.461  0.00  0.00    +0.086 C 
ATOM     37  C   UNL A   1     -26.250   2.920  26.395  0.00  0.00    +0.056 C 
ATOM     38  C   UNL A   1     -27.438   3.091  25.645  0.00  0.00    +0.102 C 
ATOM     39  N   UNL A   1     -28.075   2.089  25.003  0.00  0.00    -0.212 NA
ATOM     40  C   UNL A   1     -27.543   0.849  25.079  0.00  0.00    +0.234 C 
ATOM     41  C   UNL A   1     -26.354   0.576  25.777  0.00  0.00    +0.241 C 
ATOM     42  F   UNL A   1     -25.860  -0.681  25.795  0.00  0.00    -0.227 F 
BRANCH  37  43
ATOM     43  C   UNL A   1     -25.642   4.093  27.123  0.00  0.00    +0.263 C 
ATOM     44  N   UNL A   1     -25.614   5.252  26.449  0.00  0.00    -0.200 NA
ATOM     45  C   UNL A   1     -25.026   6.479  26.963  0.00  0.00    +0.139 C 
ATOM     46  O   UNL A   1     -25.143   3.966  28.243  0.00  0.00    -0.269 OA
ENDBRANCH  37  43
BRANCH  40  47
ATOM     47  O   UNL A   1     -28.193  -0.208  24.477  0.00  0.00    -0.459 OA
BRANCH  47  48
ATOM     48  C   UNL A   1     -29.460   0.005  23.866  0.00  0.00    +0.242 C 
BRANCH  48  49
ATOM     49  C   UNL A   1     -30.065  -1.377  23.573  0.00  0.00    +0.229 C 
ATOM     50  O   UNL A   1     -30.729  -1.878  24.721  0.00  0.00    -0.216 OA
ENDBRANCH  48  49
ENDBRANCH  47  48
ENDBRANCH  40  47
ENDBRANCH  35  36
ENDBRANCH  30  35
ENDBRANCH  29  32
ENDBRANCH   1  29
TORSDOF 13
