MODEL 1675
MODEL 1
REMARK VINA RESULT:    -8.915      0.000      0.000
REMARK INTER + INTRA:          -9.940
REMARK INTER:                  -9.437
REMARK INTRA:                  -0.503
REMARK UNBOUND:                -0.503
REMARK  Name = No_1675-gen_results/8p0m/2024-11-27-11-27-31/
REMARK  1 active torsions:
REMARK  status: ('A' for Active; 'I' for Inactive)
REMARK    1  A    between atoms: C_3  and  C_7
REMARK                            x       y       z     vdW  Elec       q    Type
REMARK                         _______ _______ _______ _____ _____    ______ ____
ROOT
ATOM      1  C   UNL A   1     -25.368  -1.009  29.708  0.00  0.00    +0.041 C 
ATOM      2  C   UNL A   1     -25.055  -0.198  28.607  0.00  0.00    -0.004 A 
ATOM      3  C   UNL A   1     -24.768  -0.516  30.947  0.00  0.00    +0.027 C 
ATOM      4  C   UNL A   1     -25.434  -0.470  27.289  0.00  0.00    -0.003 A 
ATOM      5  C   UNL A   1     -24.906   0.063  26.117  0.00  0.00    -0.000 A 
ATOM      6  C   UNL A   1     -23.917   1.106  26.328  0.00  0.00    +0.001 A 
ATOM      7  C   UNL A   1     -23.468   1.408  27.641  0.00  0.00    +0.016 A 
ATOM      8  C   UNL A   1     -23.948   0.710  28.692  0.00  0.00    +0.062 A 
ATOM      9  C   UNL A   1     -25.537  -0.792  32.087  0.00  0.00    +0.002 C 
ATOM     10  C   UNL A   1     -24.334   0.891  30.819  0.00  0.00    +0.113 C 
ATOM     11  N   UNL A   1     -23.666   1.259  29.897  0.00  0.00    -0.238 NA
ATOM     12  C   UNL A   1     -23.351  -1.281  31.195  0.00  0.00    +0.002 C 
ATOM     13  C   UNL A   1     -25.113  -0.411  33.417  0.00  0.00    +0.000 C 
ATOM     14  C   UNL A   1     -22.815  -1.184  32.617  0.00  0.00    +0.000 C 
ATOM     15  C   UNL A   1     -23.806  -1.295  33.658  0.00  0.00    +0.000 C 
ATOM     16  C   UNL A   1     -26.933  -0.504  29.827  0.00  0.00    +0.009 C 
ENDROOT
BRANCH   1  19
ATOM     17  C   UNL A   1     -24.135  -3.106  28.898  0.00  0.00    -0.004 A 
ATOM     18  C   UNL A   1     -24.155  -4.153  28.779  0.00  0.00    -0.000 A 
ATOM     19  C   UNL A   1     -25.272  -2.485  29.462  0.00  0.00    -0.019 A 
ATOM     20  C   UNL A   1     -26.387  -3.207  29.838  0.00  0.00    -0.004 A 
ATOM     21  C   UNL A   1     -26.326  -4.579  29.653  0.00  0.00    -0.000 A 
ATOM     22  C   UNL A   1     -25.182  -5.145  29.133  0.00  0.00    -0.000 A 
ENDBRANCH   1  19
TORSDOF 1
ENDMDL
ENDMDL
