MODEL 1676
MODEL 1
REMARK VINA RESULT:    -4.952      0.000      0.000
REMARK INTER + INTRA:          -5.661
REMARK INTER:                  -5.531
REMARK INTRA:                  -0.130
REMARK UNBOUND:                -0.130
REMARK  Name = No_1676-gen_results/8p0m/2024-11-27-11-27-31/
REMARK  2 active torsions:
REMARK  status: ('A' for Active; 'I' for Inactive)
REMARK    1  A    between atoms: C_5  and  N_7
REMARK    2  A    between atoms: N_7  and  C_8
REMARK                            x       y       z     vdW  Elec       q    Type
REMARK                         _______ _______ _______ _____ _____    ______ ____
ROOT
ATOM      1  C   UNL A   1     -25.102  -5.245  29.166  0.00  0.00    +0.001 A 
ATOM      2  C   UNL A   1     -26.123  -4.772  29.610  0.00  0.00    +0.000 A 
ATOM      3  C   UNL A   1     -26.260  -3.444  29.964  0.00  0.00    +0.001 A 
ATOM      4  C   UNL A   1     -25.147  -2.581  29.757  0.00  0.00    +0.016 A 
ATOM      5  C   UNL A   1     -24.091  -3.117  29.102  0.00  0.00    +0.065 A 
ATOM      6  C   UNL A   1     -24.064  -4.392  28.764  0.00  0.00    +0.016 A 
ENDROOT
BRANCH   5   7
ATOM      7  N   UNL A   1     -23.024  -2.256  28.873  0.00  0.00    -0.238 NA
BRANCH   7   8
ATOM      8  C   UNL A   1     -23.082  -0.973  29.130  0.00  0.00    +0.112 C 
ATOM      9  C   UNL A   1     -21.826  -0.300  29.064  0.00  0.00    +0.025 C 
ENDBRANCH   7   8
ENDBRANCH   5   7
TORSDOF 2
ENDMDL
ENDMDL
