MODEL 1677
MODEL 1
REMARK VINA RESULT:    -4.914      0.000      0.000
REMARK INTER + INTRA:          -5.266
REMARK INTER:                  -5.201
REMARK INTRA:                  -0.065
REMARK UNBOUND:                -0.065
REMARK  Name = No_1677-gen_results/8p0m/2024-11-27-11-27-31/
REMARK  1 active torsions:
REMARK  status: ('A' for Active; 'I' for Inactive)
REMARK    1  A    between atoms: C_2  and  C_7
REMARK                            x       y       z     vdW  Elec       q    Type
REMARK                         _______ _______ _______ _____ _____    ______ ____
ROOT
ATOM      1  C   UNL A   1     -23.896  -3.832  28.804  0.00  0.00    +0.006 A 
ATOM      2  C   UNL A   1     -24.248  -2.896  29.134  0.00  0.00    +0.068 A 
ATOM      3  C   UNL A   1     -24.774  -4.989  29.042  0.00  0.00    +0.000 A 
ATOM      4  C   UNL A   1     -26.087  -4.806  29.565  0.00  0.00    +0.000 A 
ATOM      5  C   UNL A   1     -25.568  -2.433  29.643  0.00  0.00    +0.006 A 
ATOM      6  C   UNL A   1     -26.407  -3.480  29.887  0.00  0.00    +0.000 A 
ENDROOT
BRANCH   2   7
ATOM      7  C   UNL A   1     -23.467  -1.507  28.893  0.00  0.00    +0.333 C 
ATOM      8  O   UNL A   1     -22.330  -1.565  28.981  0.00  0.00    -0.254 OA
ATOM      9  F   UNL A   1     -24.075  -0.422  28.527  0.00  0.00    -0.159 F 
ENDBRANCH   2   7
TORSDOF 1
ENDMDL
ENDMDL
