MODEL 1678
MODEL 1
REMARK VINA RESULT:    -4.283      0.000      0.000
REMARK INTER + INTRA:          -4.283
REMARK INTER:                  -4.283
REMARK INTRA:                   0.000
REMARK UNBOUND:                 0.000
REMARK  Name = No_1678-gen_results/8p0m/2024-11-27-11-27-31/
REMARK  0 active torsions:
REMARK  status: ('A' for Active; 'I' for Inactive)
REMARK                            x       y       z     vdW  Elec       q    Type
REMARK                         _______ _______ _______ _____ _____    ______ ____
ROOT
ATOM      1  C   UNL A   1     -26.082  -4.794  29.660  0.00  0.00    +0.000 A 
ATOM      2  C   UNL A   1     -26.189  -3.590  29.703  0.00  0.00    +0.000 A 
ATOM      3  C   UNL A   1     -25.197  -2.719  29.297  0.00  0.00    +0.000 A 
ATOM      4  C   UNL A   1     -24.001  -3.274  28.762  0.00  0.00    +0.000 A 
ATOM      5  C   UNL A   1     -23.997  -4.615  28.576  0.00  0.00    +0.000 A 
ATOM      6  C   UNL A   1     -25.011  -5.368  28.959  0.00  0.00    +0.000 A 
ENDROOT
TORSDOF 0
ENDMDL
ENDMDL
