MODEL 1679
MODEL 1
REMARK VINA RESULT:    -7.379      0.000      0.000
REMARK INTER + INTRA:          -8.730
REMARK INTER:                  -8.242
REMARK INTRA:                  -0.488
REMARK UNBOUND:                -0.488
REMARK  Name = No_1679-gen_results/8p0m/2024-11-27-11-27-31/
REMARK  2 active torsions:
REMARK  status: ('A' for Active; 'I' for Inactive)
REMARK    1  A    between atoms: C_1  and  C_2
REMARK    2  A    between atoms: C_14  and  C_15
REMARK                            x       y       z     vdW  Elec       q    Type
REMARK                         _______ _______ _______ _____ _____    ______ ____
ROOT
ATOM      1  C   UNL A   1     -11.107 -20.585  16.747  0.00  0.00    +0.043 A 
ATOM      2  C   UNL A   1     -11.992 -19.520  16.611  0.00  0.00    +0.001 A 
ATOM      3  C   UNL A   1     -13.053 -19.128  17.582  0.00  0.00    +0.004 A 
ATOM      4  C   UNL A   1     -13.269 -20.027  18.667  0.00  0.00    +0.052 A 
ATOM      5  C   UNL A   1     -12.400 -21.133  18.754  0.00  0.00    -0.008 A 
ATOM      6  C   UNL A   1     -11.425 -21.405  17.874  0.00  0.00    -0.003 A 
ATOM      7  C   UNL A   1     -14.310 -19.680  19.583  0.00  0.00    +0.265 C 
ATOM      8  N   UNL A   1     -14.544 -20.365  20.608  0.00  0.00    -0.201 NA
ATOM      9  O   UNL A   1     -15.157 -18.727  19.336  0.00  0.00    -0.268 OA
ATOM     10  C   UNL A   1     -13.611 -21.435  21.007  0.00  0.00    +0.129 C 
ATOM     11  C   UNL A   1     -12.700 -21.887  20.044  0.00  0.00    +0.121 C 
ENDROOT
BRANCH  11  12
ATOM     12  C   UNL A   1     -11.848 -23.038  20.394  0.00  0.00    +0.231 C 
ATOM     13  N   UNL A   1     -10.605 -22.933  20.931  0.00  0.00    -0.279 N 
ATOM     14  C   UNL A   1      -9.731 -23.947  20.856  0.00  0.00    +0.093 C 
ATOM     15  O   UNL A   1     -12.161 -24.133  19.720  0.00  0.00    -0.275 OA
ATOM     16  C   UNL A   1     -10.243 -21.794  21.725  0.00  0.00    +0.093 C 
ATOM     17  C   UNL A   1      -9.319 -21.812  22.509  0.00  0.00    +0.022 C 
ATOM     18  C   UNL A   1      -8.314 -22.896  22.448  0.00  0.00    +0.004 C 
ATOM     19  C   UNL A   1      -8.623 -23.996  21.731  0.00  0.00    +0.022 C 
ENDBRANCH  11  12
BRANCH   1  20
ATOM     20  C   UNL A   1     -10.273 -20.816  15.903  0.00  0.00    +0.341 C 
ATOM     21  F   UNL A   1      -9.612 -19.925  15.344  0.00  0.00    -0.193 F 
ATOM     22  F   UNL A   1     -10.062 -21.964  15.340  0.00  0.00    -0.193 F 
ENDBRANCH   1  20
TORSDOF 2
ENDMDL
ENDMDL
