MODEL 167
MODEL 1
REMARK VINA RESULT:    -7.337      0.000      0.000
REMARK INTER + INTRA:         -10.752
REMARK INTER:                  -9.481
REMARK INTRA:                  -1.271
REMARK UNBOUND:                -1.271
REMARK  Name = No_167-gen_results/8p0m/2024-11-27-11-27-31/
REMARK  5 active torsions:
REMARK  status: ('A' for Active; 'I' for Inactive)
REMARK    1  A    between atoms: C_2  and  C_3
REMARK    2  A    between atoms: N_4  and  C_11
REMARK    3  A    between atoms: C_5  and  C_18
REMARK    4  A    between atoms: C_19  and  C_20
REMARK    5  A    between atoms: C_23  and  O_26
REMARK                            x       y       z     vdW  Elec       q    Type
REMARK                         _______ _______ _______ _____ _____    ______ ____
ROOT
ATOM      1  C   UNL A   1     -10.561   2.130  35.753  0.00  0.00    +0.054 A 
ATOM      2  C   UNL A   1     -10.168   1.298  34.672  0.00  0.00    +0.004 A 
ATOM      3  C   UNL A   1     -11.923   2.629  35.668  0.00  0.00    +0.004 A 
ATOM      4  C   UNL A   1     -11.010   1.117  33.552  0.00  0.00    +0.000 A 
ATOM      5  C   UNL A   1     -12.846   2.256  34.652  0.00  0.00    +0.000 A 
ATOM      6  C   UNL A   1     -12.321   1.486  33.575  0.00  0.00    +0.000 A 
ENDROOT
BRANCH   1   8
ATOM      7  O   UNL A   1      -9.044   3.361  36.791  0.00  0.00    -0.270 OA
ATOM      8  C   UNL A   1      -9.737   2.440  36.816  0.00  0.00    +0.253 C 
ATOM      9  N   UNL A   1      -9.931   1.599  38.012  0.00  0.00    -0.253 N 
ATOM     10  C   UNL A   1      -9.121   1.931  39.185  0.00  0.00    +0.120 C 
BRANCH   9  11
ATOM     11  C   UNL A   1     -10.826   0.535  38.080  0.00  0.00    +0.057 A 
ATOM     12  C   UNL A   1     -10.651  -0.444  37.601  0.00  0.00    +0.015 A 
ATOM     13  C   UNL A   1     -10.807  -1.481  37.521  0.00  0.00    +0.005 A 
ATOM     14  C   UNL A   1     -11.618  -2.235  38.551  0.00  0.00    +0.042 A 
ATOM     15  C   UNL A   1     -12.069  -1.316  39.497  0.00  0.00    +0.197 A 
ATOM     16  C   UNL A   1     -11.679   0.066  39.380  0.00  0.00    +0.057 A 
ATOM     17  O   UNL A   1     -12.749  -1.661  40.560  0.00  0.00    -0.286 OA
ENDBRANCH   9  11
ENDBRANCH   1   8
BRANCH   2  18
ATOM     18  C   UNL A   1      -8.777   0.888  34.556  0.00  0.00    +0.000 C 
ATOM     19  C   UNL A   1      -8.361  -0.259  34.919  0.00  0.00    +0.000 C 
BRANCH  19  20
ATOM     20  C   UNL A   1      -7.009  -0.474  34.880  0.00  0.00    +0.000 A 
ATOM     21  C   UNL A   1      -6.017   0.393  34.948  0.00  0.00    +0.003 A 
ATOM     22  C   UNL A   1      -4.707   0.118  34.865  0.00  0.00    +0.037 A 
ATOM     23  C   UNL A   1      -4.360  -1.228  34.547  0.00  0.00    +0.139 A 
ATOM     24  C   UNL A   1      -5.291  -2.175  34.363  0.00  0.00    +0.037 A 
ATOM     25  C   UNL A   1      -6.632  -1.877  34.520  0.00  0.00    +0.003 A 
BRANCH  23  26
ATOM     26  O   UNL A   1      -3.031  -1.572  34.398  0.00  0.00    -0.471 OA
ATOM     27  C   UNL A   1      -2.573  -2.283  33.390  0.00  0.00    +0.253 C 
ENDBRANCH  23  26
ENDBRANCH  19  20
ENDBRANCH   2  18
TORSDOF 5
ENDMDL
ENDMDL
