MODEL 1680
MODEL 1
REMARK VINA RESULT:    -6.474      0.000      0.000
REMARK INTER + INTRA:          -7.167
REMARK INTER:                  -6.852
REMARK INTRA:                  -0.315
REMARK UNBOUND:                -0.315
REMARK  Name = No_1680-gen_results/8p0m/2024-11-27-11-27-31/
REMARK  1 active torsions:
REMARK  status: ('A' for Active; 'I' for Inactive)
REMARK    1  A    between atoms: C_3  and  C_7
REMARK                            x       y       z     vdW  Elec       q    Type
REMARK                         _______ _______ _______ _____ _____    ______ ____
ROOT
ATOM      1  C   UNL A   1     -26.497  -3.542  29.904  0.00  0.00    +0.000 A 
ATOM      2  C   UNL A   1     -25.818  -2.567  29.680  0.00  0.00    +0.000 A 
ATOM      3  C   UNL A   1     -24.580  -2.620  29.041  0.00  0.00    +0.000 A 
ATOM      4  C   UNL A   1     -24.031  -3.910  28.671  0.00  0.00    +0.000 A 
ATOM      5  C   UNL A   1     -24.838  -5.008  28.966  0.00  0.00    +0.000 A 
ATOM      6  C   UNL A   1     -25.994  -4.868  29.583  0.00  0.00    +0.000 A 
ENDROOT
BRANCH   3   7
ATOM      7  C   UNL A   1     -23.692  -1.464  28.724  0.00  0.00    +0.000 A 
ATOM      8  C   UNL A   1     -22.533  -1.308  29.291  0.00  0.00    +0.000 A 
ATOM      9  C   UNL A   1     -21.725  -0.149  29.034  0.00  0.00    +0.000 A 
ATOM     10  C   UNL A   1     -22.152   0.904  28.301  0.00  0.00    +0.000 A 
ATOM     11  C   UNL A   1     -24.208  -0.346  27.919  0.00  0.00    +0.000 A 
ATOM     12  C   UNL A   1     -23.404   0.815  27.727  0.00  0.00    +0.000 A 
ENDBRANCH   3   7
TORSDOF 1
ENDMDL
ENDMDL
