REMARK  Name = outputs/IAG933/test6/raw/output_1680_IAG933_linker_design_.xyz
REMARK  11 active torsions:
REMARK  status: ('A' for Active; 'I' for Inactive)
REMARK    1  A    between atoms: C_1  and  C_2
REMARK    2  A    between atoms: C_1  and  C_8
REMARK    3  A    between atoms: C_1  and  C_31
REMARK    4  A    between atoms: C_13  and  C_33
REMARK    5  A    between atoms: C_14  and  C_15
REMARK    6  A    between atoms: C_21  and  O_22
REMARK    7  A    between atoms: O_22  and  C_23
REMARK    8  A    between atoms: C_23  and  C_24
REMARK    9  A    between atoms: C_29  and  O_40
REMARK   10  A    between atoms: C_30  and  C_31
REMARK   11  A    between atoms: C_31  and  C_37
REMARK                            x       y       z     vdW  Elec       q    Type
REMARK                         _______ _______ _______ _____ _____    ______ ____
ROOT
ATOM      1  C   UNL A   1     -23.217   1.623  27.029  0.00  0.00    +0.153 C 
ATOM      2  C   UNL A   1     -24.447   0.638  28.467  0.00  0.00    -0.016 C 
ATOM      3  C   UNL A   1     -24.521   1.278  27.244  0.00  0.00    +0.032 C 
ATOM      4  F   UNL A   1     -21.030   1.514  28.088  0.00  0.00    -0.224 F 
ATOM      5  C   UNL A   1     -23.065   0.636  29.062  0.00  0.00    +0.012 C 
ATOM      6  C   UNL A   1     -22.365   1.365  28.170  0.00  0.00    +0.238 C 
ENDROOT
BRANCH   3   7
ATOM      7  C   UNL A   1     -25.688   1.614  26.461  0.00  0.00    +0.041 C 
ATOM      8  C   UNL A   1     -26.250   2.920  26.395  0.00  0.00    +0.077 C 
ATOM      9  C   UNL A   1     -27.438   3.091  25.645  0.00  0.00    +0.107 C 
ATOM     10  N   UNL A   1     -28.075   2.089  25.003  0.00  0.00    -0.208 NA
ATOM     11  C   UNL A   1     -27.543   0.849  25.079  0.00  0.00    +0.253 C 
ATOM     12  C   UNL A   1     -26.354   0.576  25.777  0.00  0.00    +0.193 C 
ATOM     13  F   UNL A   1     -25.860  -0.681  25.795  0.00  0.00    -0.199 F 
BRANCH   8  14
ATOM     14  C   UNL A   1     -25.642   4.093  27.123  0.00  0.00    +0.266 C 
ATOM     15  N   UNL A   1     -25.614   5.252  26.449  0.00  0.00    -0.200 NA
ATOM     16  C   UNL A   1     -25.026   6.479  26.963  0.00  0.00    +0.139 C 
ATOM     17  O   UNL A   1     -25.143   3.966  28.243  0.00  0.00    -0.268 OA
ENDBRANCH   8  14
BRANCH  11  18
ATOM     18  O   UNL A   1     -28.193  -0.208  24.477  0.00  0.00    -0.456 OA
BRANCH  18  19
ATOM     19  C   UNL A   1     -29.460   0.005  23.866  0.00  0.00    +0.243 C 
BRANCH  19  20
ATOM     20  C   UNL A   1     -30.065  -1.377  23.573  0.00  0.00    +0.229 C 
ATOM     21  O   UNL A   1     -30.729  -1.878  24.721  0.00  0.00    -0.216 OA
ENDBRANCH  19  20
ENDBRANCH  18  19
ENDBRANCH  11  18
ENDBRANCH   3   7
BRANCH   1  23
ATOM     22  C   UNL A   1     -22.980   2.942  25.110  0.00  0.00    +0.252 C 
ATOM     23  O   UNL A   1     -22.504   1.993  25.971  0.00  0.00    -0.473 OA
ENDBRANCH   1  23
BRANCH   2  24
ATOM     24  C   UNL A   1     -25.388  -0.167  28.965  0.00  0.00    +0.053 C 
BRANCH  24  30
ATOM     25  O   UNL A   1     -27.963  -1.860  28.913  0.00  0.00    -0.287 OA
ATOM     26  C   UNL A   1     -29.378   1.374  28.599  0.00  0.00    +0.003 C 
ATOM     27  C   UNL A   1     -27.971  -0.539  28.702  0.00  0.00    +0.192 C 
ATOM     28  C   UNL A   1     -27.154   1.546  29.501  0.00  0.00    -0.001 C 
ATOM     29  C   UNL A   1     -29.108   0.063  28.267  0.00  0.00    +0.042 C 
ATOM     30  C   UNL A   1     -26.877   0.274  29.057  0.00  0.00    +0.021 C 
ATOM     31  C   UNL A   1     -28.418   2.099  29.269  0.00  0.00    -0.000 C 
ENDBRANCH  24  30
BRANCH  24  32
ATOM     32  C   UNL A   1     -24.855  -1.012  30.143  0.00  0.00    +0.046 C 
BRANCH  32  33
ATOM     33  C   UNL A   1     -24.973  -2.505  29.788  0.00  0.00    -0.021 C 
ATOM     34  C   UNL A   1     -23.906  -3.173  29.146  0.00  0.00    -0.004 C 
ATOM     35  C   UNL A   1     -23.989  -4.549  28.853  0.00  0.00    -0.000 C 
ATOM     36  C   UNL A   1     -25.137  -5.280  29.205  0.00  0.00    -0.000 C 
ATOM     37  C   UNL A   1     -26.232  -4.611  29.784  0.00  0.00    -0.000 C 
ATOM     38  C   UNL A   1     -26.155  -3.232  30.065  0.00  0.00    -0.004 C 
ENDBRANCH  32  33
BRANCH  32  39
ATOM     39  C   UNL A   1     -25.387  -0.679  31.571  0.00  0.00    +0.077 C 
ATOM     40  C   UNL A   1     -25.189   0.773  32.028  0.00  0.00    +0.019 C 
ATOM     41  C   UNL A   1     -25.336   0.684  33.544  0.00  0.00    +0.020 C 
ATOM     42  C   UNL A   1     -24.829  -0.715  33.905  0.00  0.00    +0.089 C 
ATOM     43  N   UNL A   1     -24.758  -1.481  32.646  0.00  0.00    -0.219 NA
ENDBRANCH  32  39
ENDBRANCH  24  32
ENDBRANCH   2  24
TORSDOF 11
