MODEL 1681
MODEL 1
REMARK VINA RESULT:    -6.533      0.000      0.000
REMARK INTER + INTRA:          -7.222
REMARK INTER:                  -6.915
REMARK INTRA:                  -0.307
REMARK UNBOUND:                -0.307
REMARK  Name = No_1681-gen_results/8p0m/2024-11-27-11-27-31/
REMARK  1 active torsions:
REMARK  status: ('A' for Active; 'I' for Inactive)
REMARK    1  A    between atoms: C_3  and  C_4
REMARK                            x       y       z     vdW  Elec       q    Type
REMARK                         _______ _______ _______ _____ _____    ______ ____
ROOT
ATOM      1  C   UNL A   1     -21.997  -0.197  28.865  0.00  0.00    +0.011 A 
ATOM      2  C   UNL A   1     -22.622  -1.148  29.274  0.00  0.00    +0.001 A 
ATOM      3  C   UNL A   1     -23.880  -1.453  28.764  0.00  0.00    +0.000 A 
ATOM      4  C   UNL A   1     -22.633   0.768  27.954  0.00  0.00    +0.058 A 
ATOM      5  C   UNL A   1     -23.828   0.522  27.345  0.00  0.00    +0.011 A 
ATOM      6  C   UNL A   1     -24.519  -0.636  27.739  0.00  0.00    +0.001 A 
ATOM      7 CL   UNL A   1     -21.793   2.198  27.445  0.00  0.00    -0.082 Cl
ENDROOT
BRANCH   3   8
ATOM      8  C   UNL A   1     -24.750  -2.587  29.190  0.00  0.00    +0.000 A 
ATOM      9  C   UNL A   1     -26.094  -2.463  29.688  0.00  0.00    +0.000 A 
ATOM     10  C   UNL A   1     -26.776  -3.600  30.017  0.00  0.00    +0.000 A 
ATOM     11  C   UNL A   1     -26.433  -4.880  29.709  0.00  0.00    +0.000 A 
ATOM     12  C   UNL A   1     -24.347  -3.943  28.906  0.00  0.00    +0.000 A 
ATOM     13  C   UNL A   1     -25.173  -5.031  29.174  0.00  0.00    +0.000 A 
ENDBRANCH   3   8
TORSDOF 1
ENDMDL
ENDMDL
