REMARK  Name = No_1682-gen_results/8p0m/2024-11-27-11-27-31/
REMARK  1 active torsions:
REMARK  status: ('A' for Active; 'I' for Inactive)
REMARK    1  A    between atoms: C_14  and  C_15
REMARK                            x       y       z     vdW  Elec       q    Type
REMARK                         _______ _______ _______ _____ _____    ______ ____
ROOT
ATOM      1  C   UNL A   1     -28.016  -0.814  28.878  0.00  0.00    +0.000 A 
ATOM      2  C   UNL A   1     -28.469  -0.785  29.829  0.00  0.00    +0.000 A 
ATOM      3  C   UNL A   1     -27.136   0.236  28.535  0.00  0.00    +0.000 A 
ATOM      4  C   UNL A   1     -26.335   0.290  27.284  0.00  0.00    +0.000 A 
ATOM      5  C   UNL A   1     -28.369   0.196  30.924  0.00  0.00    +0.000 A 
ATOM      6  C   UNL A   1     -27.516   1.266  30.654  0.00  0.00    +0.000 A 
ATOM      7  C   UNL A   1     -26.841   1.294  29.476  0.00  0.00    +0.006 A 
ATOM      8  C   UNL A   1     -25.361   0.775  26.967  0.00  0.00    +0.000 A 
ATOM      9  C   UNL A   1     -24.656   0.745  25.726  0.00  0.00    +0.000 A 
ATOM     10  C   UNL A   1     -23.467   1.408  25.476  0.00  0.00    +0.000 A 
ATOM     11  C   UNL A   1     -22.938   2.210  26.493  0.00  0.00    +0.000 A 
ATOM     12  C   UNL A   1     -24.589   1.636  27.904  0.00  0.00    +0.006 A 
ATOM     13  C   UNL A   1     -23.407   2.263  27.683  0.00  0.00    +0.000 A 
ATOM     14  C   UNL A   1     -25.711   2.167  29.239  0.00  0.00    +0.080 A 
ENDROOT
BRANCH  14  15
ATOM     15  C   UNL A   1     -25.181   3.278  29.991  0.00  0.00    +0.388 C 
ATOM     16  O   UNL A   1     -25.550   4.393  29.508  0.00  0.00    -0.241 OA
ATOM     17  O   UNL A   1     -24.688   3.023  31.107  0.00  0.00    -0.241 OA
ENDBRANCH  14  15
TORSDOF 1
