MODEL 1682
MODEL 1
REMARK VINA RESULT:    -6.561      0.000      0.000
REMARK INTER + INTRA:          -7.120
REMARK INTER:                  -6.945
REMARK INTRA:                  -0.175
REMARK UNBOUND:                -0.175
REMARK  Name = No_1682-gen_results/8p0m/2024-11-27-11-27-31/
REMARK  1 active torsions:
REMARK  status: ('A' for Active; 'I' for Inactive)
REMARK    1  A    between atoms: C_14  and  C_15
REMARK                            x       y       z     vdW  Elec       q    Type
REMARK                         _______ _______ _______ _____ _____    ______ ____
ROOT
ATOM      1  C   UNL A   1     -22.780   0.330  28.185  0.00  0.00    +0.000 A 
ATOM      2  C   UNL A   1     -22.986   1.357  28.298  0.00  0.00    +0.000 A 
ATOM      3  C   UNL A   1     -23.551  -0.583  28.938  0.00  0.00    +0.000 A 
ATOM      4  C   UNL A   1     -23.464  -2.062  28.815  0.00  0.00    +0.000 A 
ATOM      5  C   UNL A   1     -23.963   2.066  29.142  0.00  0.00    +0.000 A 
ATOM      6  C   UNL A   1     -24.761   1.225  29.919  0.00  0.00    +0.000 A 
ATOM      7  C   UNL A   1     -24.611  -0.120  29.806  0.00  0.00    +0.006 A 
ATOM      8  C   UNL A   1     -24.166  -2.932  29.001  0.00  0.00    +0.000 A 
ATOM      9  C   UNL A   1     -23.987  -4.338  28.827  0.00  0.00    +0.000 A 
ATOM     10  C   UNL A   1     -24.943  -5.298  29.113  0.00  0.00    +0.000 A 
ATOM     11  C   UNL A   1     -26.156  -4.870  29.663  0.00  0.00    +0.000 A 
ATOM     12  C   UNL A   1     -25.537  -2.714  29.537  0.00  0.00    +0.006 A 
ATOM     13  C   UNL A   1     -26.494  -3.642  29.790  0.00  0.00    +0.000 A 
ATOM     14  C   UNL A   1     -25.587  -1.064  30.309  0.00  0.00    +0.080 A 
ENDROOT
BRANCH  14  15
ATOM     15  C   UNL A   1     -26.734  -0.894  31.167  0.00  0.00    +0.388 C 
ATOM     16  O   UNL A   1     -26.408  -0.887  32.394  0.00  0.00    -0.241 OA
ATOM     17  O   UNL A   1     -27.795  -0.523  30.627  0.00  0.00    -0.241 OA
ENDBRANCH  14  15
TORSDOF 1
ENDMDL
ENDMDL
