MODEL 1683
MODEL 1
REMARK VINA RESULT:    -6.072      0.000      0.000
REMARK INTER + INTRA:          -7.102
REMARK INTER:                  -6.782
REMARK INTRA:                  -0.320
REMARK UNBOUND:                -0.320
REMARK  Name = No_1683-gen_results/8p0m/2024-11-27-11-27-31/
REMARK  2 active torsions:
REMARK  status: ('A' for Active; 'I' for Inactive)
REMARK    1  A    between atoms: C_3  and  C_7
REMARK    2  A    between atoms: C_6  and  C_10
REMARK                            x       y       z     vdW  Elec       q    Type
REMARK                         _______ _______ _______ _____ _____    ______ ____
ROOT
ATOM      1  C   UNL A   1     -25.782  -3.016  29.941  0.00  0.00    +0.001 A 
ATOM      2  C   UNL A   1     -25.755  -1.997  30.208  0.00  0.00    -0.000 A 
ATOM      3  C   UNL A   1     -24.601  -3.459  29.200  0.00  0.00    +0.043 A 
ATOM      4  C   UNL A   1     -23.561  -2.611  28.910  0.00  0.00    +0.005 A 
ATOM      5  C   UNL A   1     -24.812  -0.891  30.045  0.00  0.00    +0.004 A 
ATOM      6  C   UNL A   1     -23.665  -1.310  29.329  0.00  0.00    +0.071 A 
ENDROOT
BRANCH   6   7
ATOM      7  C   UNL A   1     -22.599  -0.319  29.000  0.00  0.00    +0.419 C 
ATOM      8  F   UNL A   1     -22.723   0.355  27.971  0.00  0.00    -0.166 F 
ATOM      9  F   UNL A   1     -21.389  -0.967  28.940  0.00  0.00    -0.166 F 
ATOM     10  F   UNL A   1     -22.502   0.557  30.050  0.00  0.00    -0.166 F 
ENDBRANCH   6   7
BRANCH   3  11
ATOM     11  C   UNL A   1     -24.436  -4.884  28.778  0.00  0.00    +0.341 C 
ATOM     12  F   UNL A   1     -23.655  -5.041  28.005  0.00  0.00    -0.193 F 
ATOM     13  F   UNL A   1     -24.898  -5.808  29.474  0.00  0.00    -0.193 F 
ENDBRANCH   3  11
TORSDOF 2
ENDMDL
ENDMDL
