MODEL 1684
MODEL 1
REMARK VINA RESULT:    -5.491      0.000      0.000
REMARK INTER + INTRA:          -5.942
REMARK INTER:                  -5.812
REMARK INTRA:                  -0.129
REMARK UNBOUND:                -0.129
REMARK  Name = No_1684-gen_results/8p0m/2024-11-27-11-27-31/
REMARK  1 active torsions:
REMARK  status: ('A' for Active; 'I' for Inactive)
REMARK    1  A    between atoms: C_1  and  C_8
REMARK                            x       y       z     vdW  Elec       q    Type
REMARK                         _______ _______ _______ _____ _____    ______ ____
ROOT
ATOM      1  C   UNL A   1     -11.135 -22.363  21.157  0.00  0.00    +0.078 C 
ATOM      2  C   UNL A   1     -11.609 -21.712  20.255  0.00  0.00    -0.029 C 
ATOM      3  C   UNL A   1     -12.753 -20.939  20.345  0.00  0.00    +0.090 C 
ATOM      4  C   UNL A   1     -13.385 -20.218  19.267  0.00  0.00    +0.188 C 
ATOM      5  C   UNL A   1     -12.801 -20.281  17.978  0.00  0.00    +0.233 C 
ATOM      6  C   UNL A   1     -11.622 -21.054  17.818  0.00  0.00    +0.124 C 
ATOM      7  C   UNL A   1     -11.119 -21.722  18.891  0.00  0.00    +0.042 C 
ATOM      8  F   UNL A   1     -13.306 -19.608  16.996  0.00  0.00    -0.228 F 
ATOM      9 CL   UNL A   1     -10.958 -21.143  16.216  0.00  0.00    -0.111 Cl
ATOM     10  O   UNL A   1     -14.474 -19.503  19.460  0.00  0.00    -0.293 OA
ENDROOT
BRANCH   1  11
ATOM     11  C   UNL A   1     -10.535 -21.534  22.246  0.00  0.00    +0.387 C 
ATOM     12  O   UNL A   1      -9.374 -21.105  21.980  0.00  0.00    -0.241 OA
ATOM     13  O   UNL A   1     -11.046 -21.378  23.294  0.00  0.00    -0.241 OA
ENDBRANCH   1  11
TORSDOF 1
ENDMDL
ENDMDL
