REMARK  Name = outputs/IAG933/test6/raw/output_1685_IAG933_linker_design_.xyz
REMARK  15 active torsions:
REMARK  status: ('A' for Active; 'I' for Inactive)
REMARK    1  A    between atoms: C_1  and  C_2
REMARK    2  A    between atoms: C_1  and  C_8
REMARK    3  A    between atoms: C_1  and  C_33
REMARK    4  A    between atoms: C_13  and  C_46
REMARK    5  A    between atoms: C_14  and  C_15
REMARK    6  A    between atoms: C_21  and  O_22
REMARK    7  A    between atoms: O_22  and  C_23
REMARK    8  A    between atoms: C_23  and  C_24
REMARK    9  A    between atoms: C_30  and  C_39
REMARK   10  A    between atoms: C_32  and  C_33
REMARK   11  A    between atoms: C_33  and  N_41
REMARK   12  A    between atoms: C_38  and  N_41
REMARK   13  A    between atoms: C_39  and  C_45
REMARK   14  A    between atoms: O_43  and  C_44
REMARK   15  A    between atoms: O_43  and  C_45
REMARK                            x       y       z     vdW  Elec       q    Type
REMARK                         _______ _______ _______ _____ _____    ______ ____
ROOT
ATOM      1  C   UNL A   1     -22.018   2.058  26.690  0.00  0.00    +0.033 C 
ATOM      2  C   UNL A   1     -21.752   1.287  27.839  0.00  0.00    +0.180 C 
ATOM      3  C   UNL A   1     -23.344   2.109  26.192  0.00  0.00    +0.004 C 
ATOM      4  F   UNL A   1     -20.509   1.163  28.250  0.00  0.00    -0.201 F 
ATOM      5  C   UNL A   1     -24.113   0.774  27.991  0.00  0.00    +0.107 C 
ATOM      6  O   UNL A   1     -22.482   0.141  29.721  0.00  0.00    -0.283 OA
ATOM      7  C   UNL A   1     -22.800   0.681  28.537  0.00  0.00    +0.237 C 
ATOM      8  C   UNL A   1     -24.374   1.414  26.892  0.00  0.00    +0.021 C 
ENDROOT
BRANCH   8   9
ATOM      9  C   UNL A   1     -25.688   1.614  26.461  0.00  0.00    +0.039 C 
ATOM     10  C   UNL A   1     -26.250   2.920  26.395  0.00  0.00    +0.077 C 
ATOM     11  C   UNL A   1     -27.438   3.091  25.645  0.00  0.00    +0.107 C 
ATOM     12  N   UNL A   1     -28.075   2.089  25.003  0.00  0.00    -0.208 NA
ATOM     13  C   UNL A   1     -27.543   0.849  25.079  0.00  0.00    +0.253 C 
ATOM     14  C   UNL A   1     -26.354   0.576  25.777  0.00  0.00    +0.193 C 
ATOM     15  F   UNL A   1     -25.860  -0.681  25.795  0.00  0.00    -0.199 F 
BRANCH  10  16
ATOM     16  C   UNL A   1     -25.642   4.093  27.123  0.00  0.00    +0.266 C 
ATOM     17  N   UNL A   1     -25.614   5.252  26.449  0.00  0.00    -0.200 NA
ATOM     18  C   UNL A   1     -25.026   6.479  26.963  0.00  0.00    +0.139 C 
ATOM     19  O   UNL A   1     -25.143   3.966  28.243  0.00  0.00    -0.268 OA
ENDBRANCH  10  16
BRANCH  13  20
ATOM     20  O   UNL A   1     -28.193  -0.208  24.477  0.00  0.00    -0.456 OA
BRANCH  20  21
ATOM     21  C   UNL A   1     -29.460   0.005  23.866  0.00  0.00    +0.243 C 
BRANCH  21  22
ATOM     22  C   UNL A   1     -30.065  -1.377  23.573  0.00  0.00    +0.229 C 
ATOM     23  O   UNL A   1     -30.729  -1.878  24.721  0.00  0.00    -0.216 OA
ENDBRANCH  21  22
ENDBRANCH  20  21
ENDBRANCH  13  20
ENDBRANCH   8   9
BRANCH   5  24
ATOM     24  N   UNL A   1     -25.148   0.394  28.325  0.00  0.00    -0.231 NA
BRANCH  24  25
ATOM     25  C   UNL A   1     -25.937  -0.495  29.080  0.00  0.00    +0.119 C 
BRANCH  25  27
ATOM     26  C   UNL A   1     -28.412  -0.232  28.593  0.00  0.00    +0.003 C 
ATOM     27  C   UNL A   1     -27.329   0.150  29.405  0.00  0.00    -0.007 C 
BRANCH  26  30
ATOM     28  C   UNL A   1     -30.084   1.410  29.239  0.00  0.00    +0.040 C 
ATOM     29  O   UNL A   1     -30.225  -0.342  27.398  0.00  0.00    -0.219 OA
ATOM     30  C   UNL A   1     -29.848  -0.029  28.709  0.00  0.00    +0.172 C 
BRANCH  30  31
ATOM     31  C   UNL A   1     -30.506  -1.161  29.615  0.00  0.00    +0.178 C 
BRANCH  31  32
ATOM     32  O   UNL A   1     -29.896  -2.494  29.837  0.00  0.00    -0.332 OA
BRANCH  32  34
ATOM     33  N   UNL A   1     -31.405  -4.316  29.249  0.00  0.00    -0.096 NA
ATOM     34  C   UNL A   1     -30.636  -3.619  30.261  0.00  0.00    +0.253 C 
ENDBRANCH  32  34
ENDBRANCH  31  32
ENDBRANCH  30  31
ENDBRANCH  26  30
ENDBRANCH  25  27
BRANCH  25  35
ATOM     35  C   UNL A   1     -24.855  -1.012  30.143  0.00  0.00    +0.062 C 
BRANCH  35  36
ATOM     36  C   UNL A   1     -24.973  -2.505  29.788  0.00  0.00    -0.019 C 
ATOM     37  C   UNL A   1     -23.906  -3.173  29.146  0.00  0.00    -0.004 C 
ATOM     38  C   UNL A   1     -23.989  -4.549  28.853  0.00  0.00    -0.000 C 
ATOM     39  C   UNL A   1     -25.137  -5.280  29.205  0.00  0.00    -0.000 C 
ATOM     40  C   UNL A   1     -26.232  -4.611  29.784  0.00  0.00    -0.000 C 
ATOM     41  C   UNL A   1     -26.155  -3.232  30.065  0.00  0.00    -0.004 C 
ENDBRANCH  35  36
BRANCH  35  42
ATOM     42  C   UNL A   1     -25.387  -0.679  31.571  0.00  0.00    +0.079 C 
ATOM     43  C   UNL A   1     -25.189   0.773  32.028  0.00  0.00    +0.019 C 
ATOM     44  C   UNL A   1     -25.336   0.684  33.544  0.00  0.00    +0.020 C 
ATOM     45  C   UNL A   1     -24.829  -0.715  33.905  0.00  0.00    +0.089 C 
ATOM     46  N   UNL A   1     -24.758  -1.481  32.646  0.00  0.00    -0.219 NA
ENDBRANCH  35  42
ENDBRANCH  25  35
ENDBRANCH  24  25
ENDBRANCH   5  24
TORSDOF 15
