MODEL 1685
MODEL 1
REMARK VINA RESULT:    -4.570      0.000      0.000
REMARK INTER + INTRA:          -4.570
REMARK INTER:                  -4.570
REMARK INTRA:                   0.000
REMARK UNBOUND:                 0.000
REMARK  Name = No_1685-gen_results/8p0m/2024-11-27-11-27-31/
REMARK  0 active torsions:
REMARK  status: ('A' for Active; 'I' for Inactive)
REMARK                            x       y       z     vdW  Elec       q    Type
REMARK                         _______ _______ _______ _____ _____    ______ ____
ROOT
ATOM      1  C   UNL A   1     -10.158  -9.860  18.288  0.00  0.00    +0.030 A 
ATOM      2  C   UNL A   1      -9.235 -10.340  18.122  0.00  0.00    +0.140 A 
ATOM      3  C   UNL A   1     -10.273  -9.106  19.594  0.00  0.00    +0.002 A 
ATOM      4  C   UNL A   1      -9.359  -9.144  20.381  0.00  0.00    +0.000 A 
ATOM      5  C   UNL A   1      -7.983 -10.452  18.877  0.00  0.00    +0.030 A 
ATOM      6  C   UNL A   1      -8.103  -9.805  20.097  0.00  0.00    +0.002 A 
ATOM      7  F   UNL A   1      -9.083 -11.031  16.849  0.00  0.00    -0.204 F 
ENDROOT
TORSDOF 0
ENDMDL
ENDMDL
