MODEL 1687
MODEL 1
REMARK VINA RESULT:    -4.994      0.000      0.000
REMARK INTER + INTRA:          -4.994
REMARK INTER:                  -4.994
REMARK INTRA:                   0.000
REMARK UNBOUND:                 0.000
REMARK  Name = No_1687-gen_results/8p0m/2024-11-27-11-27-31/
REMARK  0 active torsions:
REMARK  status: ('A' for Active; 'I' for Inactive)
REMARK                            x       y       z     vdW  Elec       q    Type
REMARK                         _______ _______ _______ _____ _____    ______ ____
ROOT
ATOM      1  C   UNL A   1     -10.576  -9.313  19.150  0.00  0.00    +0.042 A 
ATOM      2  C   UNL A   1      -9.851  -9.105  20.095  0.00  0.00    +0.003 A 
ATOM      3  C   UNL A   1      -8.540  -9.568  20.111  0.00  0.00    +0.000 A 
ATOM      4  C   UNL A   1      -8.018 -10.351  19.020  0.00  0.00    +0.003 A 
ATOM      5  C   UNL A   1      -8.931 -10.565  17.979  0.00  0.00    +0.042 A 
ATOM      6  C   UNL A   1     -10.166 -10.119  18.021  0.00  0.00    +0.196 A 
ATOM      7  O   UNL A   1     -11.001 -10.403  16.984  0.00  0.00    -0.287 OA
ENDROOT
TORSDOF 0
ENDMDL
ENDMDL
