MODEL 1688
MODEL 1
REMARK VINA RESULT:    -5.347      0.000      0.000
REMARK INTER + INTRA:          -5.793
REMARK INTER:                  -5.659
REMARK INTRA:                  -0.133
REMARK UNBOUND:                -0.133
REMARK  Name = No_1688-gen_results/8p0m/2024-11-27-11-27-31/
REMARK  1 active torsions:
REMARK  status: ('A' for Active; 'I' for Inactive)
REMARK    1  A    between atoms: C_4  and  C_5
REMARK                            x       y       z     vdW  Elec       q    Type
REMARK                         _______ _______ _______ _____ _____    ______ ____
ROOT
ATOM      1  C   UNL A   1     -26.579  -3.960  29.839  0.00  0.00    -0.000 A 
ATOM      2  C   UNL A   1     -26.105  -4.868  29.592  0.00  0.00    -0.000 A 
ATOM      3  C   UNL A   1     -25.763  -2.740  29.729  0.00  0.00    +0.004 A 
ATOM      4  C   UNL A   1     -24.449  -2.794  29.178  0.00  0.00    +0.071 A 
ATOM      5  C   UNL A   1     -24.830  -5.224  28.938  0.00  0.00    -0.000 A 
ATOM      6  C   UNL A   1     -23.997  -4.073  28.738  0.00  0.00    +0.004 A 
ENDROOT
BRANCH   4   7
ATOM      7  C   UNL A   1     -23.623  -1.627  29.050  0.00  0.00    +0.419 C 
ATOM      8  F   UNL A   1     -22.482  -1.858  28.853  0.00  0.00    -0.166 F 
ATOM      9  F   UNL A   1     -24.066  -0.841  27.990  0.00  0.00    -0.166 F 
ATOM     10  F   UNL A   1     -23.793  -0.750  30.126  0.00  0.00    -0.166 F 
ENDBRANCH   4   7
TORSDOF 1
ENDMDL
ENDMDL
