REMARK  Name = No_1688-gen_results/8p0m/2024-11-27-11-27-31/
REMARK  1 active torsions:
REMARK  status: ('A' for Active; 'I' for Inactive)
REMARK    1  A    between atoms: C_4  and  C_5
REMARK                            x       y       z     vdW  Elec       q    Type
REMARK                         _______ _______ _______ _____ _____    ______ ____
ROOT
ATOM      1  C   UNL A   1     -28.016  -0.814  28.878  0.00  0.00    -0.000 A 
ATOM      2  C   UNL A   1     -28.469  -0.785  29.829  0.00  0.00    -0.000 A 
ATOM      3  C   UNL A   1     -26.546  -0.876  28.850  0.00  0.00    +0.004 A 
ATOM      4  C   UNL A   1     -25.804  -1.032  30.057  0.00  0.00    +0.071 A 
ATOM      5  C   UNL A   1     -27.990  -1.005  31.209  0.00  0.00    -0.000 A 
ATOM      6  C   UNL A   1     -26.562  -1.137  31.260  0.00  0.00    +0.004 A 
ENDROOT
BRANCH   4   7
ATOM      7  C   UNL A   1     -24.370  -1.100  30.072  0.00  0.00    +0.419 C 
ATOM      8  F   UNL A   1     -23.894  -1.552  29.091  0.00  0.00    -0.166 F 
ATOM      9  F   UNL A   1     -23.832   0.174  30.234  0.00  0.00    -0.166 F 
ATOM     10  F   UNL A   1     -23.893  -1.742  31.220  0.00  0.00    -0.166 F 
ENDBRANCH   4   7
TORSDOF 1
