MODEL 1689
MODEL 1
REMARK VINA RESULT:    -7.540      0.000      0.000
REMARK INTER + INTRA:          -8.980
REMARK INTER:                  -8.421
REMARK INTRA:                  -0.558
REMARK UNBOUND:                -0.558
REMARK  Name = No_1689-gen_results/8p0m/2024-11-27-11-27-31/
REMARK  2 active torsions:
REMARK  status: ('A' for Active; 'I' for Inactive)
REMARK    1  A    between atoms: C_3  and  C_7
REMARK    2  A    between atoms: C_11  and  C_12
REMARK                            x       y       z     vdW  Elec       q    Type
REMARK                         _______ _______ _______ _____ _____    ______ ____
ROOT
ATOM      1  C   UNL A   1     -24.609   0.273  30.465  0.00  0.00    +0.255 C 
ATOM      2  N   UNL A   1     -25.257  -0.610  30.547  0.00  0.00    -0.221 N 
ATOM      3  O   UNL A   1     -24.390   1.012  31.608  0.00  0.00    -0.270 OA
ATOM      4  C   UNL A   1     -26.233  -0.919  31.600  0.00  0.00    +0.123 C 
ATOM      5  C   UNL A   1     -25.776  -1.238  29.289  0.00  0.00    +0.255 C 
ATOM      6  O   UNL A   1     -26.829  -0.830  28.798  0.00  0.00    -0.270 OA
ENDROOT
BRANCH   1   9
ATOM      7  C   UNL A   1     -22.325   0.066  29.377  0.00  0.00    +0.005 A 
ATOM      8  C   UNL A   1     -21.701   0.268  28.552  0.00  0.00    +0.001 A 
ATOM      9  C   UNL A   1     -23.641   0.637  29.331  0.00  0.00    +0.055 A 
ATOM     10  C   UNL A   1     -24.024   1.512  28.396  0.00  0.00    +0.016 A 
ATOM     11  C   UNL A   1     -21.898   1.194  27.446  0.00  0.00    +0.011 A 
ATOM     12  C   UNL A   1     -23.102   1.748  27.401  0.00  0.00    +0.058 A 
ATOM     13 CL   UNL A   1     -23.523   2.876  26.112  0.00  0.00    -0.082 Cl
ENDBRANCH   1   9
BRANCH   5  14
ATOM     14  C   UNL A   1     -25.299  -2.591  29.149  0.00  0.00    +0.054 A 
ATOM     15  C   UNL A   1     -24.418  -3.002  28.658  0.00  0.00    +0.004 A 
ATOM     16  C   UNL A   1     -24.031  -4.472  28.543  0.00  0.00    +0.000 A 
ATOM     17  C   UNL A   1     -24.952  -5.325  29.118  0.00  0.00    +0.000 A 
ATOM     18  C   UNL A   1     -26.285  -3.616  29.644  0.00  0.00    +0.004 A 
ATOM     19  C   UNL A   1     -26.049  -4.863  29.652  0.00  0.00    +0.000 A 
ENDBRANCH   5  14
TORSDOF 2
ENDMDL
ENDMDL
