REMARK  Name = outputs/IAG933/test6/raw/output_1690_IAG933_linker_design_.xyz
REMARK  16 active torsions:
REMARK  status: ('A' for Active; 'I' for Inactive)
REMARK    1  A    between atoms: C_1  and  C_2
REMARK    2  A    between atoms: C_1  and  C_8
REMARK    3  A    between atoms: C_9  and  N_40
REMARK    4  A    between atoms: C_13  and  C_33
REMARK    5  A    between atoms: C_14  and  C_15
REMARK    6  A    between atoms: C_21  and  O_22
REMARK    7  A    between atoms: O_22  and  C_23
REMARK    8  A    between atoms: C_23  and  C_24
REMARK    9  A    between atoms: N_28  and  C_33
REMARK   10  A    between atoms: N_28  and  C_36
REMARK   11  A    between atoms: C_30  and  C_31
REMARK   12  A    between atoms: C_30  and  C_33
REMARK   13  A    between atoms: C_31  and  C_32
REMARK   14  A    between atoms: C_36  and  C_37
REMARK   15  A    between atoms: C_37  and  N_40
REMARK   16  A    between atoms: N_40  and  C_41
REMARK                            x       y       z     vdW  Elec       q    Type
REMARK                         _______ _______ _______ _____ _____    ______ ____
ROOT
ATOM      1  N   UNL A   1     -24.898   1.089  28.552  0.00  0.00    -0.213 NA
ENDROOT
BRANCH   1   2
ATOM      2  C   UNL A   1     -24.282   1.565  29.755  0.00  0.00    +0.110 C 
BRANCH   2   3
ATOM      3  C   UNL A   1     -25.104   2.510  30.445  0.00  0.00    +0.110 C 
BRANCH   3   4
ATOM      4  N   UNL A   1     -26.056   1.893  31.480  0.00  0.00    -0.306 N 
BRANCH   4  10
ATOM      5  C   UNL A   1     -28.377   2.242  30.694  0.00  0.00    +0.015 C 
ATOM      6  C   UNL A   1     -28.036   4.917  31.245  0.00  0.00    +0.001 C 
ATOM      7  C   UNL A   1     -29.098   4.511  30.447  0.00  0.00    +0.000 C 
ATOM      8  C   UNL A   1     -27.130   3.994  31.754  0.00  0.00    +0.015 C 
ATOM      9  C   UNL A   1     -29.318   3.154  30.232  0.00  0.00    +0.001 C 
ATOM     10  C   UNL A   1     -27.222   2.673  31.346  0.00  0.00    +0.048 C 
ENDBRANCH   4  10
BRANCH   4  12
ATOM     11  C   UNL A   1     -25.387  -0.679  31.571  0.00  0.00    +0.095 C 
ATOM     12  C   UNL A   1     -25.189   0.773  32.028  0.00  0.00    +0.090 C 
ATOM     13  C   UNL A   1     -25.336   0.684  33.544  0.00  0.00    +0.040 C 
ATOM     14  C   UNL A   1     -24.829  -0.715  33.905  0.00  0.00    +0.090 C 
ATOM     15  N   UNL A   1     -24.758  -1.481  32.646  0.00  0.00    -0.217 NA
BRANCH  11  16
ATOM     16  C   UNL A   1     -24.855  -1.012  30.143  0.00  0.00    +0.045 C 
BRANCH  16  17
ATOM     17  C   UNL A   1     -24.973  -2.505  29.788  0.00  0.00    -0.021 C 
ATOM     18  C   UNL A   1     -23.906  -3.173  29.146  0.00  0.00    -0.004 C 
ATOM     19  C   UNL A   1     -23.989  -4.549  28.853  0.00  0.00    -0.000 C 
ATOM     20  C   UNL A   1     -25.137  -5.280  29.205  0.00  0.00    -0.000 C 
ATOM     21  C   UNL A   1     -26.232  -4.611  29.784  0.00  0.00    -0.000 C 
ATOM     22  C   UNL A   1     -26.155  -3.232  30.065  0.00  0.00    -0.004 C 
ENDBRANCH  16  17
ENDBRANCH  11  16
ENDBRANCH   4  12
ENDBRANCH   3   4
ENDBRANCH   2   3
ENDBRANCH   1   2
BRANCH   1  23
ATOM     23  C   UNL A   1     -24.506   1.435  27.160  0.00  0.00    +0.098 C 
BRANCH  23  24
ATOM     24  C   UNL A   1     -25.688   1.614  26.461  0.00  0.00    +0.032 C 
ATOM     25  C   UNL A   1     -26.250   2.920  26.395  0.00  0.00    +0.074 C 
ATOM     26  C   UNL A   1     -27.438   3.091  25.645  0.00  0.00    +0.106 C 
ATOM     27  N   UNL A   1     -28.075   2.089  25.003  0.00  0.00    -0.208 NA
ATOM     28  C   UNL A   1     -27.543   0.849  25.079  0.00  0.00    +0.253 C 
ATOM     29  C   UNL A   1     -26.354   0.576  25.777  0.00  0.00    +0.190 C 
ATOM     30  F   UNL A   1     -25.860  -0.681  25.795  0.00  0.00    -0.200 F 
BRANCH  25  31
ATOM     31  C   UNL A   1     -25.642   4.093  27.123  0.00  0.00    +0.266 C 
ATOM     32  N   UNL A   1     -25.614   5.252  26.449  0.00  0.00    -0.200 NA
ATOM     33  C   UNL A   1     -25.026   6.479  26.963  0.00  0.00    +0.139 C 
ATOM     34  O   UNL A   1     -25.143   3.966  28.243  0.00  0.00    -0.268 OA
ENDBRANCH  25  31
BRANCH  28  35
ATOM     35  O   UNL A   1     -28.193  -0.208  24.477  0.00  0.00    -0.456 OA
BRANCH  35  36
ATOM     36  C   UNL A   1     -29.460   0.005  23.866  0.00  0.00    +0.243 C 
BRANCH  36  37
ATOM     37  C   UNL A   1     -30.065  -1.377  23.573  0.00  0.00    +0.229 C 
ATOM     38  O   UNL A   1     -30.729  -1.878  24.721  0.00  0.00    -0.216 OA
ENDBRANCH  36  37
ENDBRANCH  35  36
ENDBRANCH  28  35
ENDBRANCH  23  24
BRANCH  23  39
ATOM     39  C   UNL A   1     -23.390   2.135  26.300  0.00  0.00    +0.025 C 
BRANCH  39  40
ATOM     40  C   UNL A   1     -21.893   1.879  26.445  0.00  0.00    +0.037 C 
BRANCH  40  41
ATOM     41  C   UNL A   1     -21.520   1.454  27.871  0.00  0.00    +0.182 C 
ATOM     42  O   UNL A   1     -22.350   0.412  28.302  0.00  0.00    -0.220 OA
ENDBRANCH  40  41
ENDBRANCH  39  40
ENDBRANCH  23  39
ENDBRANCH   1  23
TORSDOF 16
