MODEL 1690
MODEL 1
REMARK VINA RESULT:    -7.449      0.000      0.000
REMARK INTER + INTRA:          -9.991
REMARK INTER:                  -9.191
REMARK INTRA:                  -0.800
REMARK UNBOUND:                -0.800
REMARK  Name = No_1690-gen_results/8p0m/2024-11-27-11-27-31/
REMARK  4 active torsions:
REMARK  status: ('A' for Active; 'I' for Inactive)
REMARK    1  A    between atoms: C_3  and  C_7
REMARK    2  A    between atoms: C_7  and  C_8
REMARK    3  A    between atoms: C_7  and  C_18
REMARK    4  A    between atoms: C_8  and  C_9
REMARK                            x       y       z     vdW  Elec       q    Type
REMARK                         _______ _______ _______ _____ _____    ______ ____
ROOT
ATOM      1  C   UNL A   1     -23.137  -0.629  29.417  0.00  0.00    +0.051 C 
ENDROOT
BRANCH   1   4
ATOM      2  C   UNL A   1     -24.429   0.790  27.754  0.00  0.00    +0.136 A 
ATOM      3  C   UNL A   1     -24.389   1.592  27.071  0.00  0.00    +0.029 A 
ATOM      4  C   UNL A   1     -23.122   0.449  28.331  0.00  0.00    +0.009 A 
ATOM      5  C   UNL A   1     -21.983   0.983  27.889  0.00  0.00    -0.002 A 
ATOM      6  C   UNL A   1     -23.302   2.297  26.437  0.00  0.00    +0.002 A 
ATOM      7  C   UNL A   1     -22.096   1.949  26.969  0.00  0.00    -0.000 A 
ATOM      8  F   UNL A   1     -24.462  -0.341  26.959  0.00  0.00    -0.204 F 
ENDBRANCH   1   4
BRANCH   1   9
ATOM      9  C   UNL A   1     -23.224  -0.231  30.716  0.00  0.00    -0.022 C 
ATOM     10  C   UNL A   1     -23.710   0.993  31.011  0.00  0.00    -0.005 C 
ENDBRANCH   1   9
BRANCH   1  11
ATOM     11  C   UNL A   1     -23.162  -2.013  28.995  0.00  0.00    +0.037 C 
BRANCH  11  12
ATOM     12  C   UNL A   1     -24.167  -2.853  29.336  0.00  0.00    +0.009 A 
ATOM     13  C   UNL A   1     -24.138  -4.216  28.912  0.00  0.00    -0.002 A 
ATOM     14  C   UNL A   1     -25.234  -5.110  29.226  0.00  0.00    +0.003 A 
ATOM     15  C   UNL A   1     -26.437  -4.532  29.656  0.00  0.00    +0.044 A 
ATOM     16  C   UNL A   1     -26.495  -3.228  29.994  0.00  0.00    +0.223 A 
ATOM     17  C   UNL A   1     -25.456  -2.410  29.815  0.00  0.00    +0.175 A 
ATOM     18  F   UNL A   1     -25.999  -2.000  28.819  0.00  0.00    -0.201 F 
ATOM     19  O   UNL A   1     -27.596  -2.792  30.648  0.00  0.00    -0.284 OA
ENDBRANCH  11  12
ENDBRANCH   1  11
TORSDOF 4
ENDMDL
ENDMDL
