REMARK  Name = outputs/IAG933/test6/raw/output_1691_IAG933_linker_design_.xyz
REMARK  4 active torsions:
REMARK  status: ('A' for Active; 'I' for Inactive)
REMARK    1  A    between atoms: C_1  and  C_2
REMARK    2  A    between atoms: C_1  and  C_8
REMARK    3  A    between atoms: C_1  and  N_30
REMARK    4  A    between atoms: C_14  and  C_15
REMARK                            x       y       z     vdW  Elec       q    Type
REMARK                         _______ _______ _______ _____ _____    ______ ____
ROOT
ATOM      1  C   UNL A   1     -25.688   1.614  26.461  0.00  0.00    +0.039 C 
ATOM      2  C   UNL A   1     -26.250   2.920  26.395  0.00  0.00    +0.077 C 
ATOM      3  C   UNL A   1     -27.438   3.091  25.645  0.00  0.00    +0.107 C 
ATOM      4  N   UNL A   1     -28.075   2.089  25.003  0.00  0.00    -0.208 NA
ATOM      5  C   UNL A   1     -27.543   0.849  25.079  0.00  0.00    +0.253 C 
ATOM      6  O   UNL A   1     -28.193  -0.208  24.477  0.00  0.00    -0.456 OA
ATOM      7  C   UNL A   1     -29.460   0.005  23.866  0.00  0.00    +0.239 C 
ATOM      8  C   UNL A   1     -30.065  -1.377  23.573  0.00  0.00    +0.190 C 
ATOM      9  O   UNL A   1     -30.729  -1.878  24.721  0.00  0.00    -0.340 OA
ATOM     10  C   UNL A   1     -26.354   0.576  25.777  0.00  0.00    +0.193 C 
ATOM     11  F   UNL A   1     -25.860  -0.681  25.795  0.00  0.00    -0.199 F 
ATOM     12  C   UNL A   1     -31.493  -0.643  26.715  0.00  0.00    +0.297 C 
ATOM     13  C   UNL A   1     -24.384   0.616  28.424  0.00  0.00    +0.047 C 
ATOM     14  N   UNL A   1     -25.460  -0.044  29.122  0.00  0.00    -0.306 N 
ATOM     15  C   UNL A   1     -22.278   1.273  27.833  0.00  0.00    -0.006 C 
ATOM     16  C   UNL A   1     -29.255  -0.117  29.285  0.00  0.00    +0.004 C 
ATOM     17  O   UNL A   1     -30.259  -0.428  26.828  0.00  0.00    -0.268 OA
ATOM     18  C   UNL A   1     -27.872  -0.568  28.801  0.00  0.00    +0.021 C 
ATOM     19  C   UNL A   1     -23.041   0.672  28.825  0.00  0.00    +0.149 C 
ATOM     20  C   UNL A   1     -26.854   0.580  28.926  0.00  0.00    +0.091 C 
ATOM     21  C   UNL A   1     -23.180   1.668  26.791  0.00  0.00    -0.023 C 
ATOM     22  N   UNL A   1     -32.386  -0.263  27.733  0.00  0.00    -0.060 NA
ATOM     23  N   UNL A   1     -22.500   0.153  30.022  0.00  0.00    -0.122 NA
ATOM     24  C   UNL A   1     -22.747   2.394  25.540  0.00  0.00    +0.031 C 
ATOM     25  C   UNL A   1     -31.430  -2.109  28.751  0.00  0.00    +0.173 C 
ATOM     26  C   UNL A   1     -30.182  -1.419  29.462  0.00  0.00    +0.035 C 
ATOM     27  O   UNL A   1     -32.611  -1.244  28.773  0.00  0.00    -0.244 OA
ATOM     28  C   UNL A   1     -24.449   1.277  27.151  0.00  0.00    +0.009 C 
ATOM     29  C   UNL A   1     -31.914  -1.363  25.361  0.00  0.00    +0.231 C 
ENDROOT
BRANCH   2  30
ATOM     30  C   UNL A   1     -25.642   4.093  27.123  0.00  0.00    +0.266 C 
ATOM     31  N   UNL A   1     -25.614   5.252  26.449  0.00  0.00    -0.200 NA
ATOM     32  C   UNL A   1     -25.026   6.479  26.963  0.00  0.00    +0.139 C 
ATOM     33  O   UNL A   1     -25.143   3.966  28.243  0.00  0.00    -0.268 OA
ENDBRANCH   2  30
BRANCH  14  34
ATOM     34  C   UNL A   1     -24.855  -1.012  30.143  0.00  0.00    +0.111 C 
BRANCH  34  35
ATOM     35  C   UNL A   1     -24.973  -2.505  29.788  0.00  0.00    -0.003 C 
ATOM     36  C   UNL A   1     -23.906  -3.173  29.146  0.00  0.00    -0.003 C 
ATOM     37  C   UNL A   1     -23.989  -4.549  28.853  0.00  0.00    -0.000 C 
ATOM     38  C   UNL A   1     -25.137  -5.280  29.205  0.00  0.00    -0.000 C 
ATOM     39  C   UNL A   1     -26.232  -4.611  29.784  0.00  0.00    -0.000 C 
ATOM     40  C   UNL A   1     -26.155  -3.232  30.065  0.00  0.00    -0.003 C 
ENDBRANCH  34  35
BRANCH  34  41
ATOM     41  C   UNL A   1     -25.387  -0.679  31.571  0.00  0.00    +0.095 C 
ATOM     42  C   UNL A   1     -25.189   0.773  32.028  0.00  0.00    +0.021 C 
ATOM     43  C   UNL A   1     -25.336   0.684  33.544  0.00  0.00    +0.020 C 
ATOM     44  C   UNL A   1     -24.829  -0.715  33.905  0.00  0.00    +0.089 C 
ATOM     45  N   UNL A   1     -24.758  -1.481  32.646  0.00  0.00    -0.217 NA
ENDBRANCH  34  41
ENDBRANCH  14  34
TORSDOF 4
