MODEL 1691
MODEL 1
REMARK VINA RESULT:    -5.086      0.000      0.000
REMARK INTER + INTRA:          -5.511
REMARK INTER:                  -5.384
REMARK INTRA:                  -0.127
REMARK UNBOUND:                -0.127
REMARK  Name = No_1691-gen_results/8p0m/2024-11-27-11-27-31/
REMARK  1 active torsions:
REMARK  status: ('A' for Active; 'I' for Inactive)
REMARK    1  A    between atoms: C_5  and  N_7
REMARK                            x       y       z     vdW  Elec       q    Type
REMARK                         _______ _______ _______ _____ _____    ______ ____
ROOT
ATOM      1  C   UNL A   1     -26.449  -3.468  29.927  0.00  0.00    +0.002 A 
ATOM      2  C   UNL A   1     -26.298  -4.640  29.669  0.00  0.00    +0.000 A 
ATOM      3  C   UNL A   1     -25.159  -5.153  29.080  0.00  0.00    +0.002 A 
ATOM      4  C   UNL A   1     -24.091  -4.255  28.799  0.00  0.00    +0.019 A 
ATOM      5  C   UNL A   1     -24.239  -2.991  29.260  0.00  0.00    +0.081 A 
ATOM      6  C   UNL A   1     -25.351  -2.597  29.851  0.00  0.00    +0.019 A 
ENDROOT
BRANCH   5   7
ATOM      7  N   UNL A   1     -23.065  -2.262  28.892  0.00  0.00    -0.248 NA
ATOM      8  C   UNL A   1     -22.991  -1.077  29.420  0.00  0.00    +0.073 C 
ATOM      9  C   UNL A   1     -22.154  -0.156  28.907  0.00  0.00    +0.053 C 
ENDBRANCH   5   7
TORSDOF 1
ENDMDL
ENDMDL
