MODEL 1692
MODEL 1
REMARK VINA RESULT:    -7.934      0.000      0.000
REMARK INTER + INTRA:         -13.905
REMARK INTER:                 -10.717
REMARK INTRA:                  -3.188
REMARK UNBOUND:                -3.188
REMARK  Name = No_1692-gen_results/8p0m/2024-11-27-11-27-31/
REMARK  6 active torsions:
REMARK  status: ('A' for Active; 'I' for Inactive)
REMARK    1  A    between atoms: C_2  and  C_22
REMARK    2  A    between atoms: C_3  and  C_4
REMARK    3  A    between atoms: C_4  and  N_8
REMARK    4  A    between atoms: C_9  and  C_12
REMARK    5  A    between atoms: C_12  and  C_15
REMARK    6  A    between atoms: C_17  and  C_25
REMARK                            x       y       z     vdW  Elec       q    Type
REMARK                         _______ _______ _______ _____ _____    ______ ____
ROOT
ATOM      1  C   UNL A   1     -24.309  -1.523  29.121  0.00  0.00    +0.037 C 
ATOM      2  C   UNL A   1     -24.251  -2.917  28.694  0.00  0.00    +0.006 C 
ENDROOT
BRANCH   1   4
ATOM      3  N   UNL A   1     -25.465  -0.967  31.140  0.00  0.00    -0.270 NA
ATOM      4  C   UNL A   1     -24.319  -1.292  30.538  0.00  0.00    +0.062 C 
ATOM      5  C   UNL A   1     -25.363  -0.692  32.501  0.00  0.00    +0.072 C 
ATOM      6  C   UNL A   1     -24.208  -0.739  33.149  0.00  0.00    +0.017 C 
ATOM      7  C   UNL A   1     -23.046  -1.115  32.511  0.00  0.00    +0.003 C 
ATOM      8  C   UNL A   1     -23.096  -1.365  31.179  0.00  0.00    +0.016 C 
BRANCH   3   9
ATOM      9  C   UNL A   1     -26.622  -1.018  30.463  0.00  0.00    +0.099 C 
BRANCH   9  12
ATOM     10  C   UNL A   1     -26.396   1.560  29.962  0.00  0.00    +0.004 A 
ATOM     11  C   UNL A   1     -26.929   2.367  29.544  0.00  0.00    +0.080 A 
ATOM     12  C   UNL A   1     -27.067   0.209  29.850  0.00  0.00    -0.006 A 
ATOM     13  C   UNL A   1     -28.109   2.413  28.670  0.00  0.00    +0.007 A 
ATOM     14  C   UNL A   1     -28.762   1.212  28.496  0.00  0.00    -0.000 A 
ATOM     15  C   UNL A   1     -28.255   0.063  29.048  0.00  0.00    -0.003 A 
BRANCH  11  16
ATOM     16  C   UNL A   1     -26.325   3.844  29.757  0.00  0.00    +0.388 C 
ATOM     17  O   UNL A   1     -26.364   4.405  30.922  0.00  0.00    -0.241 OA
ATOM     18  O   UNL A   1     -25.340   4.136  28.998  0.00  0.00    -0.241 OA
ENDBRANCH  11  16
ENDBRANCH   9  12
ENDBRANCH   3   9
ENDBRANCH   1   4
BRANCH   1  19
ATOM     19  C   UNL A   1     -24.224  -0.504  28.170  0.00  0.00    -0.021 A 
ATOM     20  C   UNL A   1     -25.334  -0.399  27.271  0.00  0.00    -0.004 A 
ATOM     21  C   UNL A   1     -25.293   0.545  26.214  0.00  0.00    -0.000 A 
ATOM     22  C   UNL A   1     -24.195   1.408  26.215  0.00  0.00    -0.000 A 
ATOM     23  C   UNL A   1     -23.303   0.338  27.902  0.00  0.00    -0.004 A 
ATOM     24  C   UNL A   1     -23.170   1.288  27.019  0.00  0.00    -0.000 A 
BRANCH  21  25
ATOM     25  C   UNL A   1     -26.400   0.695  25.207  0.00  0.00    -0.000 A 
ATOM     26  C   UNL A   1     -27.133   1.682  25.166  0.00  0.00    -0.000 A 
ATOM     27  C   UNL A   1     -28.156   2.043  24.661  0.00  0.00    -0.000 A 
ATOM     28  C   UNL A   1     -28.919   3.282  24.693  0.00  0.00    -0.000 A 
ATOM     29  C   UNL A   1     -30.142   3.593  24.228  0.00  0.00    -0.000 A 
ATOM     30  C   UNL A   1     -28.986   1.031  23.878  0.00  0.00    -0.004 A 
ATOM     31  C   UNL A   1     -30.259   1.325  23.354  0.00  0.00    -0.000 A 
ATOM     32  C   UNL A   1     -30.827   2.550  23.511  0.00  0.00    -0.000 A 
ATOM     33  C   UNL A   1     -26.824  -0.492  24.526  0.00  0.00    -0.004 A 
ATOM     34  C   UNL A   1     -28.259  -0.383  23.951  0.00  0.00    -0.022 A 
ATOM     35  C   UNL A   1     -28.863  -1.509  23.341  0.00  0.00    +0.031 C 
ENDBRANCH  21  25
ENDBRANCH   1  19
TORSDOF 6
ENDMDL
ENDMDL
