MODEL 1693
MODEL 1
REMARK VINA RESULT:    -7.265      0.000      0.000
REMARK INTER + INTRA:         -10.590
REMARK INTER:                  -9.388
REMARK INTRA:                  -1.201
REMARK UNBOUND:                -1.201
REMARK  Name = No_1693-gen_results/8p0m/2024-11-27-11-27-31/
REMARK  5 active torsions:
REMARK  status: ('A' for Active; 'I' for Inactive)
REMARK    1  A    between atoms: C_3  and  C_7
REMARK    2  A    between atoms: C_7  and  N_8
REMARK    3  A    between atoms: C_7  and  C_9
REMARK    4  A    between atoms: N_8  and  C_17
REMARK    5  A    between atoms: C_9  and  C_10
REMARK                            x       y       z     vdW  Elec       q    Type
REMARK                         _______ _______ _______ _____ _____    ______ ____
ROOT
ATOM      1  C   UNL A   1     -24.823  -1.369  29.429  0.00  0.00    +0.119 C 
ENDROOT
BRANCH   1   4
ATOM      2  C   UNL A   1     -26.090  -3.570  29.771  0.00  0.00    -0.003 A 
ATOM      3  C   UNL A   1     -26.113  -4.612  29.616  0.00  0.00    -0.000 A 
ATOM      4  C   UNL A   1     -24.963  -2.859  29.304  0.00  0.00    -0.002 A 
ATOM      5  C   UNL A   1     -23.909  -3.491  28.674  0.00  0.00    -0.003 A 
ATOM      6  C   UNL A   1     -25.138  -5.518  28.979  0.00  0.00    -0.000 A 
ATOM      7  C   UNL A   1     -24.041  -4.877  28.518  0.00  0.00    -0.000 A 
ENDBRANCH   1   4
BRANCH   1   8
ATOM      8  C   UNL A   1     -24.658  -0.523  28.366  0.00  0.00    +0.046 C 
ATOM      9  C   UNL A   1     -25.860  -0.350  27.566  0.00  0.00    +0.007 C 
BRANCH   8  10
ATOM     10  C   UNL A   1     -23.495   0.123  28.055  0.00  0.00    -0.021 A 
ATOM     11  C   UNL A   1     -23.532   1.214  27.229  0.00  0.00    -0.004 A 
ATOM     12  C   UNL A   1     -22.173   1.861  27.026  0.00  0.00    -0.000 A 
ATOM     13  C   UNL A   1     -21.104   1.293  27.617  0.00  0.00    -0.000 A 
ATOM     14  C   UNL A   1     -22.204  -0.222  28.631  0.00  0.00    -0.004 A 
ATOM     15  C   UNL A   1     -21.092   0.323  28.467  0.00  0.00    -0.000 A 
ENDBRANCH   8  10
ENDBRANCH   1   8
BRANCH   1  16
ATOM     16  N   UNL A   1     -24.862  -0.987  30.641  0.00  0.00    -0.224 NA
BRANCH  16  17
ATOM     17  C   UNL A   1     -25.253   0.243  31.110  0.00  0.00    +0.144 C 
ATOM     18  C   UNL A   1     -24.297   1.162  31.640  0.00  0.00    +0.039 C 
ATOM     19  N   UNL A   1     -23.774   2.201  30.939  0.00  0.00    -0.094 NA
ENDBRANCH  16  17
ENDBRANCH   1  16
TORSDOF 5
ENDMDL
ENDMDL
