MODEL 1694
MODEL 1
REMARK VINA RESULT:    -6.651      0.000      0.000
REMARK INTER + INTRA:          -7.811
REMARK INTER:                  -7.429
REMARK INTRA:                  -0.382
REMARK UNBOUND:                -0.382
REMARK  Name = No_1694-gen_results/8p0m/2024-11-27-11-27-31/
REMARK  2 active torsions:
REMARK  status: ('A' for Active; 'I' for Inactive)
REMARK    1  A    between atoms: C_2  and  C_13
REMARK    2  A    between atoms: C_4  and  C_7
REMARK                            x       y       z     vdW  Elec       q    Type
REMARK                         _______ _______ _______ _____ _____    ______ ____
ROOT
ATOM      1  C   UNL A   1     -23.207   0.948  27.994  0.00  0.00    +0.018 A 
ATOM      2  C   UNL A   1     -23.962   1.283  27.340  0.00  0.00    +0.081 A 
ATOM      3  C   UNL A   1     -23.405  -0.441  28.559  0.00  0.00    +0.058 A 
ATOM      4  C   UNL A   1     -24.471  -1.234  28.085  0.00  0.00    +0.011 A 
ATOM      5  C   UNL A   1     -25.128   0.661  26.671  0.00  0.00    +0.007 A 
ATOM      6  C   UNL A   1     -25.338  -0.620  27.162  0.00  0.00    +0.001 A 
ATOM      7 CL   UNL A   1     -22.312  -1.036  29.737  0.00  0.00    -0.082 Cl
ENDROOT
BRANCH   4   8
ATOM      8  C   UNL A   1     -24.717  -2.540  28.593  0.00  0.00    +0.001 A 
ATOM      9  C   UNL A   1     -24.100  -3.442  28.412  0.00  0.00    +0.000 A 
ATOM     10  C   UNL A   1     -24.338  -4.868  28.851  0.00  0.00    +0.000 A 
ATOM     11  C   UNL A   1     -25.468  -4.985  29.564  0.00  0.00    +0.000 A 
ATOM     12  C   UNL A   1     -25.937  -2.781  29.357  0.00  0.00    +0.000 A 
ATOM     13  C   UNL A   1     -26.298  -3.948  29.813  0.00  0.00    +0.000 A 
ENDBRANCH   4   8
BRANCH   2  14
ATOM     14  C   UNL A   1     -23.786   2.788  26.759  0.00  0.00    +0.388 C 
ATOM     15  O   UNL A   1     -23.431   2.943  25.558  0.00  0.00    -0.241 OA
ATOM     16  O   UNL A   1     -24.132   3.710  27.486  0.00  0.00    -0.241 OA
ENDBRANCH   2  14
TORSDOF 2
ENDMDL
ENDMDL
