REMARK  Name = No_1695-gen_results/8p0m/2024-11-27-11-27-31/
REMARK  4 active torsions:
REMARK  status: ('A' for Active; 'I' for Inactive)
REMARK    1  A    between atoms: C_1  and  C_2
REMARK    2  A    between atoms: C_1  and  N_8
REMARK    3  A    between atoms: C_6  and  C_16
REMARK    4  A    between atoms: C_9  and  C_10
REMARK                            x       y       z     vdW  Elec       q    Type
REMARK                         _______ _______ _______ _____ _____    ______ ____
ROOT
ATOM      1  C   UNL A   1     -27.064  -0.119  28.608  0.00  0.00    +0.055 A 
ATOM      2  C   UNL A   1     -27.001   0.691  27.491  0.00  0.00    +0.005 A 
ATOM      3  C   UNL A   1     -25.855   1.482  27.083  0.00  0.00    +0.011 A 
ATOM      4  C   UNL A   1     -24.690   1.453  27.881  0.00  0.00    +0.062 A 
ATOM      5  C   UNL A   1     -24.738   0.601  29.042  0.00  0.00    +0.082 A 
ATOM      6  C   UNL A   1     -25.823  -0.169  29.389  0.00  0.00    +0.009 A 
ATOM      7 CL   UNL A   1     -23.322   2.345  27.526  0.00  0.00    -0.082 Cl
ENDROOT
BRANCH   5   8
ATOM      8  C   UNL A   1     -23.457   0.531  29.881  0.00  0.00    +0.419 C 
ATOM      9  F   UNL A   1     -23.686   1.012  31.026  0.00  0.00    -0.166 F 
ATOM     10  F   UNL A   1     -22.456   1.263  29.340  0.00  0.00    -0.166 F 
ATOM     11  F   UNL A   1     -23.136  -0.718  30.063  0.00  0.00    -0.166 F 
ENDBRANCH   5   8
BRANCH   1  12
ATOM     12  C   UNL A   1     -28.016  -0.814  28.878  0.00  0.00    +0.269 C 
ATOM     13  O   UNL A   1     -29.123  -0.780  28.376  0.00  0.00    -0.268 OA
BRANCH  12  14
ATOM     14  N   UNL A   1     -27.952  -1.629  30.064  0.00  0.00    -0.170 NA
ATOM     15  C   UNL A   1     -29.036  -2.369  30.486  0.00  0.00    +0.164 C 
BRANCH  15  16
ATOM     16  C   UNL A   1     -28.728  -3.634  31.233  0.00  0.00    +0.434 C 
ATOM     17  F   UNL A   1     -29.191  -3.669  32.356  0.00  0.00    -0.165 F 
ATOM     18  F   UNL A   1     -29.250  -4.673  30.470  0.00  0.00    -0.165 F 
ATOM     19  F   UNL A   1     -27.396  -3.793  31.068  0.00  0.00    -0.165 F 
ENDBRANCH  15  16
ENDBRANCH  12  14
ENDBRANCH   1  12
TORSDOF 4
