MODEL 1696
MODEL 1
REMARK VINA RESULT:    -5.996      0.000      0.000
REMARK INTER + INTRA:          -8.158
REMARK INTER:                  -7.748
REMARK INTRA:                  -0.409
REMARK UNBOUND:                -0.409
REMARK  Name = No_1696-gen_results/8p0m/2024-11-27-11-27-31/
REMARK  5 active torsions:
REMARK  status: ('A' for Active; 'I' for Inactive)
REMARK    1  A    between atoms: C_1  and  C_2
REMARK    2  A    between atoms: C_1  and  O_9
REMARK    3  A    between atoms: C_5  and  C_10
REMARK    4  A    between atoms: O_9  and  C_13
REMARK    5  A    between atoms: C_14  and  C_15
REMARK                            x       y       z     vdW  Elec       q    Type
REMARK                         _______ _______ _______ _____ _____    ______ ____
ROOT
ATOM      1  C   UNL A   1     -23.706   0.122  28.960  0.00  0.00    +0.033 A 
ATOM      2  C   UNL A   1     -24.667   0.193  27.971  0.00  0.00    +0.001 A 
ATOM      3  C   UNL A   1     -24.592   1.013  26.776  0.00  0.00    +0.006 A 
ATOM      4  C   UNL A   1     -23.456   1.831  26.583  0.00  0.00    +0.080 A 
ATOM      5  C   UNL A   1     -22.440   1.755  27.601  0.00  0.00    +0.006 A 
ATOM      6  C   UNL A   1     -22.516   0.942  28.707  0.00  0.00    +0.001 A 
ENDROOT
BRANCH   4   7
ATOM      7  C   UNL A   1     -23.286   2.681  25.452  0.00  0.00    +0.388 C 
ATOM      8  O   UNL A   1     -22.337   2.499  24.770  0.00  0.00    -0.241 OA
ATOM      9  O   UNL A   1     -23.959   3.846  25.422  0.00  0.00    -0.241 OA
ENDBRANCH   4   7
BRANCH   1  10
ATOM     10  C   UNL A   1     -23.776  -0.625  29.909  0.00  0.00    +0.268 C 
ATOM     11 CL   UNL A   1     -22.630  -0.637  31.052  0.00  0.00    -0.063 Cl
BRANCH  10  12
ATOM     12  O   UNL A   1     -24.675  -1.649  29.948  0.00  0.00    -0.456 OA
BRANCH  12  13
ATOM     13  C   UNL A   1     -24.546  -2.833  29.779  0.00  0.00    +0.174 C 
ATOM     14  C   UNL A   1     -24.086  -3.323  28.809  0.00  0.00    +0.040 C 
BRANCH  14  15
ATOM     15  C   UNL A   1     -24.032  -4.741  28.473  0.00  0.00    +0.003 C 
ATOM     16  C   UNL A   1     -25.016  -5.619  29.069  0.00  0.00    +0.000 C 
ENDBRANCH  14  15
ENDBRANCH  12  13
ENDBRANCH  10  12
ENDBRANCH   1  10
TORSDOF 5
ENDMDL
ENDMDL
