REMARK  Name = No_1696-gen_results/8p0m/2024-11-27-11-27-31/
REMARK  5 active torsions:
REMARK  status: ('A' for Active; 'I' for Inactive)
REMARK    1  A    between atoms: C_1  and  C_2
REMARK    2  A    between atoms: C_1  and  O_9
REMARK    3  A    between atoms: C_5  and  C_10
REMARK    4  A    between atoms: O_9  and  C_13
REMARK    5  A    between atoms: C_14  and  C_15
REMARK                            x       y       z     vdW  Elec       q    Type
REMARK                         _______ _______ _______ _____ _____    ______ ____
ROOT
ATOM      1  C   UNL A   1     -27.064  -0.119  28.608  0.00  0.00    +0.033 A 
ATOM      2  C   UNL A   1     -27.001   0.691  27.491  0.00  0.00    +0.001 A 
ATOM      3  C   UNL A   1     -25.855   1.482  27.083  0.00  0.00    +0.006 A 
ATOM      4  C   UNL A   1     -24.690   1.453  27.881  0.00  0.00    +0.080 A 
ATOM      5  C   UNL A   1     -24.738   0.601  29.042  0.00  0.00    +0.006 A 
ATOM      6  C   UNL A   1     -25.823  -0.169  29.389  0.00  0.00    +0.001 A 
ENDROOT
BRANCH   4   7
ATOM      7  C   UNL A   1     -23.513   2.198  27.578  0.00  0.00    +0.388 C 
ATOM      8  O   UNL A   1     -22.986   2.772  28.467  0.00  0.00    -0.241 OA
ATOM      9  O   UNL A   1     -23.278   2.525  26.293  0.00  0.00    -0.241 OA
ENDBRANCH   4   7
BRANCH   1  10
ATOM     10  C   UNL A   1     -28.016  -0.814  28.878  0.00  0.00    +0.268 C 
ATOM     11 CL   UNL A   1     -29.529  -0.303  28.610  0.00  0.00    -0.063 Cl
BRANCH  10  12
ATOM     12  O   UNL A   1     -27.887  -1.941  29.633  0.00  0.00    -0.456 OA
BRANCH  12  13
ATOM     13  C   UNL A   1     -26.917  -2.515  30.054  0.00  0.00    +0.174 C 
ATOM     14  C   UNL A   1     -26.121  -3.066  29.379  0.00  0.00    +0.040 C 
BRANCH  14  15
ATOM     15  C   UNL A   1     -25.009  -3.900  29.821  0.00  0.00    +0.003 C 
ATOM     16  C   UNL A   1     -24.184  -4.525  28.809  0.00  0.00    +0.000 C 
ENDBRANCH  14  15
ENDBRANCH  12  13
ENDBRANCH  10  12
ENDBRANCH   1  10
TORSDOF 5
