REMARK  Name = No_1697-gen_results/8p0m/2024-11-27-11-27-31/
REMARK  3 active torsions:
REMARK  status: ('A' for Active; 'I' for Inactive)
REMARK    1  A    between atoms: C_2  and  C_7
REMARK    2  A    between atoms: C_6  and  C_13
REMARK    3  A    between atoms: N_14  and  C_16
REMARK                            x       y       z     vdW  Elec       q    Type
REMARK                         _______ _______ _______ _____ _____    ______ ____
ROOT
ATOM      1  C   UNL A   1     -28.016  -0.814  28.878  0.00  0.00    +0.005 A 
ATOM      2  C   UNL A   1     -27.064  -0.119  28.608  0.00  0.00    +0.000 A 
ATOM      3  C   UNL A   1     -25.792  -0.430  29.076  0.00  0.00    +0.000 A 
ATOM      4  C   UNL A   1     -25.576  -1.565  29.936  0.00  0.00    +0.000 A 
ATOM      5  C   UNL A   1     -26.735  -2.300  30.217  0.00  0.00    +0.005 A 
ATOM      6  C   UNL A   1     -27.918  -1.954  29.763  0.00  0.00    +0.055 A 
ENDROOT
BRANCH   2   7
ATOM      7  C   UNL A   1     -27.106   1.102  27.759  0.00  0.00    +0.000 A 
ATOM      8  C   UNL A   1     -26.716   2.235  27.994  0.00  0.00    +0.000 A 
ATOM      9  C   UNL A   1     -26.693   3.346  27.034  0.00  0.00    +0.000 A 
ATOM     10  C   UNL A   1     -27.196   3.078  25.744  0.00  0.00    +0.000 A 
ATOM     11  C   UNL A   1     -27.581   0.888  26.371  0.00  0.00    +0.000 A 
ATOM     12  C   UNL A   1     -27.613   1.844  25.465  0.00  0.00    +0.000 A 
ENDBRANCH   2   7
BRANCH   6  13
ATOM     13  C   UNL A   1     -29.148  -2.615  30.185  0.00  0.00    +0.269 C 
ATOM     14  N   UNL A   1     -30.230  -2.037  30.231  0.00  0.00    -0.175 NA
ATOM     15  O   UNL A   1     -29.057  -3.848  30.551  0.00  0.00    -0.268 OA
BRANCH  14  16
ATOM     16  C   UNL A   1     -31.508  -2.669  30.618  0.00  0.00    +0.074 A 
ATOM     17  C   UNL A   1     -31.723  -3.361  31.333  0.00  0.00    +0.018 A 
ATOM     18  C   UNL A   1     -32.552  -2.051  29.735  0.00  0.00    +0.018 A 
ATOM     19  C   UNL A   1     -33.022  -3.979  31.638  0.00  0.00    +0.013 A 
ATOM     20  C   UNL A   1     -33.848  -2.575  29.933  0.00  0.00    +0.013 A 
ATOM     21  C   UNL A   1     -34.053  -3.490  30.914  0.00  0.00    +0.058 A 
ATOM     22 CL   UNL A   1     -35.648  -4.071  31.148  0.00  0.00    -0.082 Cl
ENDBRANCH  14  16
ENDBRANCH   6  13
TORSDOF 3
