MODEL 1697
MODEL 1
REMARK VINA RESULT:    -7.599      0.000      0.000
REMARK INTER + INTRA:          -9.411
REMARK INTER:                  -8.932
REMARK INTRA:                  -0.480
REMARK UNBOUND:                -0.480
REMARK  Name = No_1697-gen_results/8p0m/2024-11-27-11-27-31/
REMARK  3 active torsions:
REMARK  status: ('A' for Active; 'I' for Inactive)
REMARK    1  A    between atoms: C_2  and  C_7
REMARK    2  A    between atoms: C_6  and  C_13
REMARK    3  A    between atoms: N_14  and  C_16
REMARK                            x       y       z     vdW  Elec       q    Type
REMARK                         _______ _______ _______ _____ _____    ______ ____
ROOT
ATOM      1  C   UNL A   1      -9.377  -0.273  36.397  0.00  0.00    +0.005 A 
ATOM      2  C   UNL A   1     -10.476  -0.115  36.877  0.00  0.00    +0.000 A 
ATOM      3  C   UNL A   1     -11.403   0.736  36.285  0.00  0.00    +0.000 A 
ATOM      4  C   UNL A   1     -11.068   1.491  35.105  0.00  0.00    +0.000 A 
ATOM      5  C   UNL A   1      -9.769   1.265  34.630  0.00  0.00    +0.005 A 
ATOM      6  C   UNL A   1      -8.925   0.463  35.237  0.00  0.00    +0.055 A 
ENDROOT
BRANCH   2   7
ATOM      7  C   UNL A   1     -10.982  -0.789  38.103  0.00  0.00    +0.000 A 
ATOM      8  C   UNL A   1     -11.007  -0.399  39.260  0.00  0.00    +0.000 A 
ATOM      9  C   UNL A   1     -11.645  -1.098  40.383  0.00  0.00    +0.000 A 
ATOM     10  C   UNL A   1     -12.249  -2.339  40.094  0.00  0.00    +0.000 A 
ATOM     11  C   UNL A   1     -11.672  -2.081  37.872  0.00  0.00    +0.000 A 
ATOM     12  C   UNL A   1     -12.243  -2.775  38.836  0.00  0.00    +0.000 A 
ENDBRANCH   2   7
BRANCH   6  13
ATOM     13  C   UNL A   1      -7.524   0.351  34.845  0.00  0.00    +0.269 C 
ATOM     14  N   UNL A   1      -6.772  -0.504  35.305  0.00  0.00    -0.175 NA
ATOM     15  O   UNL A   1      -7.077   1.221  34.005  0.00  0.00    -0.268 OA
BRANCH  14  16
ATOM     16  C   UNL A   1      -5.358  -0.680  34.917  0.00  0.00    +0.074 A 
ATOM     17  C   UNL A   1      -4.559  -0.054  34.997  0.00  0.00    +0.018 A 
ATOM     18  C   UNL A   1      -5.258  -2.071  34.363  0.00  0.00    +0.018 A 
ATOM     19  C   UNL A   1      -3.177  -0.283  34.549  0.00  0.00    +0.013 A 
ATOM     20  C   UNL A   1      -3.969  -2.404  33.890  0.00  0.00    +0.013 A 
ATOM     21  C   UNL A   1      -2.955  -1.516  34.043  0.00  0.00    +0.058 A 
ATOM     22 CL   UNL A   1      -1.398  -1.976  33.492  0.00  0.00    -0.082 Cl
ENDBRANCH  14  16
ENDBRANCH   6  13
TORSDOF 3
ENDMDL
ENDMDL
