MODEL 1698
MODEL 1
REMARK VINA RESULT:    -7.498      0.000      0.000
REMARK INTER + INTRA:          -9.803
REMARK INTER:                  -9.252
REMARK INTRA:                  -0.552
REMARK UNBOUND:                -0.552
REMARK  Name = No_1698-gen_results/8p0m/2024-11-27-11-27-31/
REMARK  4 active torsions:
REMARK  status: ('A' for Active; 'I' for Inactive)
REMARK    1  A    between atoms: C_4  and  C_9
REMARK    2  A    between atoms: C_6  and  O_13
REMARK    3  A    between atoms: O_13  and  C_14
REMARK    4  A    between atoms: C_14  and  C_15
REMARK                            x       y       z     vdW  Elec       q    Type
REMARK                         _______ _______ _______ _____ _____    ______ ____
ROOT
ATOM      1  C   UNL A   1     -25.895  -0.034  25.630  0.00  0.00    +0.061 A 
ATOM      2 CL   UNL A   1     -26.526  -0.439  24.687  0.00  0.00    -0.082 Cl
ATOM      3  C   UNL A   1     -24.692   0.694  25.288  0.00  0.00    +0.018 A 
ATOM      4  C   UNL A   1     -23.832   1.168  26.297  0.00  0.00    +0.103 A 
ATOM      5  C   UNL A   1     -24.162   0.861  27.659  0.00  0.00    +0.178 A 
ATOM      6  C   UNL A   1     -25.119   0.022  27.979  0.00  0.00    +0.167 A 
ATOM      7  C   UNL A   1     -25.863  -0.500  26.978  0.00  0.00    +0.051 A 
ATOM      8  F   UNL A   1     -23.313   1.278  28.665  0.00  0.00    -0.201 F 
ENDROOT
BRANCH   4   9
ATOM      9  C   UNL A   1     -22.720   2.121  25.963  0.00  0.00    +0.421 C 
ATOM     10  F   UNL A   1     -21.671   2.121  26.524  0.00  0.00    -0.166 F 
ATOM     11  F   UNL A   1     -23.265   3.380  26.045  0.00  0.00    -0.166 F 
ATOM     12  F   UNL A   1     -22.611   1.988  24.543  0.00  0.00    -0.166 F 
ENDBRANCH   4   9
BRANCH   6  13
ATOM     13  O   UNL A   1     -25.280  -0.333  29.240  0.00  0.00    -0.468 OA
BRANCH  13  14
ATOM     14  C   UNL A   1     -24.781  -1.154  29.860  0.00  0.00    +0.232 C 
BRANCH  14  15
ATOM     15  C   UNL A   1     -24.978  -2.618  29.426  0.00  0.00    +0.021 A 
ATOM     16  C   UNL A   1     -23.964  -3.270  28.891  0.00  0.00    -0.001 A 
ATOM     17  C   UNL A   1     -23.993  -4.641  28.550  0.00  0.00    -0.000 A 
ATOM     18  C   UNL A   1     -25.120  -5.369  28.998  0.00  0.00    -0.000 A 
ATOM     19  C   UNL A   1     -26.180  -4.741  29.645  0.00  0.00    -0.000 A 
ATOM     20  C   UNL A   1     -26.129  -3.323  29.938  0.00  0.00    -0.001 A 
ENDBRANCH  14  15
ENDBRANCH  13  14
ENDBRANCH   6  13
TORSDOF 4
ENDMDL
ENDMDL
