MODEL 1699
MODEL 1
REMARK VINA RESULT:    -5.307      0.000      0.000
REMARK INTER + INTRA:          -5.762
REMARK INTER:                  -5.617
REMARK INTRA:                  -0.145
REMARK UNBOUND:                -0.145
REMARK  Name = No_1699-gen_results/8p0m/2024-11-27-11-27-31/
REMARK  1 active torsions:
REMARK  status: ('A' for Active; 'I' for Inactive)
REMARK    1  A    between atoms: C_4  and  C_7
REMARK                            x       y       z     vdW  Elec       q    Type
REMARK                         _______ _______ _______ _____ _____    ______ ____
ROOT
ATOM      1  C   UNL A   1     -26.527  -3.876  29.863  0.00  0.00    -0.000 A 
ATOM      2  C   UNL A   1     -26.150  -4.818  29.582  0.00  0.00    -0.000 A 
ATOM      3  C   UNL A   1     -25.556  -2.723  29.739  0.00  0.00    -0.000 A 
ATOM      4  C   UNL A   1     -24.297  -2.941  29.140  0.00  0.00    -0.000 A 
ATOM      5  C   UNL A   1     -24.922  -5.303  28.911  0.00  0.00    -0.000 A 
ATOM      6  C   UNL A   1     -24.007  -4.269  28.774  0.00  0.00    -0.000 A 
ENDROOT
BRANCH   4   7
ATOM      7  C   UNL A   1     -23.337  -1.899  29.013  0.00  0.00    -0.005 C 
ATOM      8  C   UNL A   1     -23.591  -0.758  28.525  0.00  0.00    -0.026 C 
ATOM      9  C   UNL A   1     -22.625   0.355  28.527  0.00  0.00    +0.031 C 
ENDBRANCH   4   7
TORSDOF 1
ENDMDL
ENDMDL
