MODEL 169
MODEL 1
REMARK VINA RESULT:    -7.386      0.000      0.000
REMARK INTER + INTRA:          -8.779
REMARK INTER:                  -8.249
REMARK INTRA:                  -0.530
REMARK UNBOUND:                -0.530
REMARK  Name = No_169-gen_results/8p0m/2024-11-27-11-27-31/
REMARK  2 active torsions:
REMARK  status: ('A' for Active; 'I' for Inactive)
REMARK    1  A    between atoms: C_3  and  C_4
REMARK    2  A    between atoms: C_6  and  C_13
REMARK                            x       y       z     vdW  Elec       q    Type
REMARK                         _______ _______ _______ _____ _____    ______ ____
ROOT
ATOM      1  C   UNL A   1     -24.610   0.501  27.075  0.00  0.00    +0.004 A 
ATOM      2  C   UNL A   1     -25.034  -0.574  27.430  0.00  0.00    -0.000 A 
ATOM      3  C   UNL A   1     -24.351  -1.343  28.366  0.00  0.00    -0.000 A 
ATOM      4  C   UNL A   1     -23.265   0.935  27.486  0.00  0.00    +0.071 A 
ATOM      5  C   UNL A   1     -22.560   0.272  28.460  0.00  0.00    +0.004 A 
ATOM      6  C   UNL A   1     -23.048  -0.957  28.935  0.00  0.00    -0.000 A 
ENDROOT
BRANCH   3   7
ATOM      7  C   UNL A   1     -24.763  -2.683  28.874  0.00  0.00    -0.000 A 
ATOM      8  C   UNL A   1     -26.062  -3.013  29.396  0.00  0.00    -0.000 A 
ATOM      9  C   UNL A   1     -26.331  -4.316  29.757  0.00  0.00    +0.000 A 
ATOM     10  C   UNL A   1     -25.558  -5.411  29.515  0.00  0.00    +0.000 A 
ATOM     11  C   UNL A   1     -24.122  -3.947  28.485  0.00  0.00    -0.000 A 
ATOM     12  C   UNL A   1     -24.436  -5.176  28.871  0.00  0.00    +0.000 A 
ENDBRANCH   3   7
BRANCH   4  13
ATOM     13  C   UNL A   1     -22.664   2.214  27.005  0.00  0.00    +0.419 C 
ATOM     14  F   UNL A   1     -23.350   3.188  27.323  0.00  0.00    -0.166 F 
ATOM     15  F   UNL A   1     -21.391   2.275  27.544  0.00  0.00    -0.166 F 
ATOM     16  F   UNL A   1     -22.514   2.233  25.709  0.00  0.00    -0.166 F 
ENDBRANCH   4  13
TORSDOF 2
ENDMDL
ENDMDL
