MODEL 16
MODEL 1
REMARK VINA RESULT:    -4.168      0.000      0.000
REMARK INTER + INTRA:          -4.777
REMARK INTER:                  -4.655
REMARK INTRA:                  -0.122
REMARK UNBOUND:                -0.122
REMARK  Name = No_16-gen_results/8p0m/2024-11-27-11-27-31/
REMARK  2 active torsions:
REMARK  status: ('A' for Active; 'I' for Inactive)
REMARK    1  A    between atoms: C_3  and  C_4
REMARK    2  A    between atoms: C_5  and  C_6
REMARK                            x       y       z     vdW  Elec       q    Type
REMARK                         _______ _______ _______ _____ _____    ______ ____
ROOT
ATOM      1  C   UNL A   1     -10.037  -9.339  19.964  0.00  0.00    -0.000 C 
ATOM      2  C   UNL A   1      -8.848  -9.230  20.719  0.00  0.00    -0.000 C 
ENDROOT
BRANCH   1   5
ATOM      3  C   UNL A   1      -9.905 -10.585  16.559  0.00  0.00    +0.031 C 
ATOM      4  C   UNL A   1     -10.056 -10.558  17.758  0.00  0.00    -0.026 C 
ATOM      5  C   UNL A   1      -9.941  -9.410  18.517  0.00  0.00    -0.005 C 
ENDBRANCH   1   5
BRANCH   2   6
ATOM      6  C   UNL A   1      -7.621  -9.173  19.965  0.00  0.00    -0.000 C 
ATOM      7  C   UNL A   1      -6.966  -8.008  19.646  0.00  0.00    -0.000 C 
ENDBRANCH   2   6
TORSDOF 2
ENDMDL
ENDMDL
