REMARK  Name = No_17-gen_results/8p0m/2024-11-27-11-27-31/
REMARK  3 active torsions:
REMARK  status: ('A' for Active; 'I' for Inactive)
REMARK    1  A    between atoms: C_2  and  C_3
REMARK    2  A    between atoms: C_7  and  C_14
REMARK    3  A    between atoms: C_15  and  C_20
REMARK                            x       y       z     vdW  Elec       q    Type
REMARK                         _______ _______ _______ _____ _____    ______ ____
ROOT
ATOM      1  C   UNL A   1     -28.016  -0.814  28.878  0.00  0.00    +0.011 A 
ATOM      2  C   UNL A   1     -27.064  -0.119  28.608  0.00  0.00    +0.001 A 
ATOM      3  C   UNL A   1     -28.059  -1.396  30.214  0.00  0.00    +0.058 A 
ATOM      4  C   UNL A   1     -26.895  -1.608  30.918  0.00  0.00    +0.011 A 
ATOM      5  C   UNL A   1     -25.784  -0.225  29.376  0.00  0.00    +0.000 A 
ATOM      6  C   UNL A   1     -25.752  -0.958  30.532  0.00  0.00    +0.001 A 
ATOM      7 CL   UNL A   1     -29.479  -2.293  30.686  0.00  0.00    -0.082 Cl
ENDROOT
BRANCH   2   8
ATOM      8  C   UNL A   1     -27.001   0.691  27.491  0.00  0.00    +0.000 A 
ATOM      9  C   UNL A   1     -27.178   1.904  27.563  0.00  0.00    +0.000 A 
ATOM     10  C   UNL A   1     -27.111   2.794  26.367  0.00  0.00    +0.000 A 
ATOM     11  C   UNL A   1     -26.846   2.234  25.127  0.00  0.00    +0.000 A 
ATOM     12  C   UNL A   1     -26.564   0.130  26.196  0.00  0.00    +0.000 A 
ATOM     13  C   UNL A   1     -26.529   0.932  25.047  0.00  0.00    +0.000 A 
ENDBRANCH   2   8
BRANCH   5  14
ATOM     14  C   UNL A   1     -24.543   0.438  28.947  0.00  0.00    +0.006 A 
ATOM     15  C   UNL A   1     -24.069   1.603  29.214  0.00  0.00    +0.080 A 
ATOM     16  C   UNL A   1     -22.845   2.147  28.805  0.00  0.00    +0.007 A 
ATOM     17  C   UNL A   1     -22.168   1.446  27.745  0.00  0.00    +0.000 A 
ATOM     18  C   UNL A   1     -23.737  -0.313  27.957  0.00  0.00    +0.000 A 
ATOM     19  C   UNL A   1     -22.512   0.246  27.468  0.00  0.00    +0.000 A 
BRANCH  15  20
ATOM     20  C   UNL A   1     -24.880   2.482  30.247  0.00  0.00    +0.388 C 
ATOM     21  O   UNL A   1     -25.546   3.444  29.784  0.00  0.00    -0.241 OA
ATOM     22  O   UNL A   1     -24.812   2.197  31.482  0.00  0.00    -0.241 OA
ENDBRANCH  15  20
ENDBRANCH   5  14
TORSDOF 3
