REMARK  Name = No_1700-gen_results/8p0m/2024-11-27-11-27-31/
REMARK  3 active torsions:
REMARK  status: ('A' for Active; 'I' for Inactive)
REMARK    1  A    between atoms: C_2  and  C_3
REMARK    2  A    between atoms: C_3  and  C_4
REMARK    3  A    between atoms: C_5  and  C_6
REMARK                            x       y       z     vdW  Elec       q    Type
REMARK                         _______ _______ _______ _____ _____    ______ ____
ROOT
ATOM      1  C   UNL A   1     -28.016  -0.814  28.878  0.00  0.00    -0.004 A 
ATOM      2  C   UNL A   1     -27.064  -0.119  28.608  0.00  0.00    -0.018 A 
ATOM      3  C   UNL A   1     -28.009  -1.622  30.092  0.00  0.00    -0.000 A 
ATOM      4  C   UNL A   1     -26.791  -1.762  30.785  0.00  0.00    -0.000 A 
ATOM      5  C   UNL A   1     -25.658  -1.122  30.382  0.00  0.00    -0.000 A 
ATOM      6  C   UNL A   1     -25.722  -0.296  29.288  0.00  0.00    -0.004 A 
ENDROOT
BRANCH   2   7
ATOM      7  C   UNL A   1     -26.972   0.714  27.506  0.00  0.00    +0.052 C 
BRANCH   7   8
ATOM      8  C   UNL A   1     -25.820   1.491  27.116  0.00  0.00    -0.021 C 
ATOM      9  C   UNL A   1     -24.656   1.424  27.918  0.00  0.00    -0.004 C 
BRANCH   9  10
ATOM     10  C   UNL A   1     -23.437   2.109  27.672  0.00  0.00    -0.000 C 
ATOM     11  C   UNL A   1     -23.465   2.697  26.332  0.00  0.00    -0.000 C 
ENDBRANCH   9  10
ENDBRANCH   7   8
ENDBRANCH   2   7
TORSDOF 3
