MODEL 1700
MODEL 1
REMARK VINA RESULT:    -5.600      0.000      0.000
REMARK INTER + INTRA:          -6.880
REMARK INTER:                  -6.582
REMARK INTRA:                  -0.298
REMARK UNBOUND:                -0.298
REMARK  Name = No_1700-gen_results/8p0m/2024-11-27-11-27-31/
REMARK  3 active torsions:
REMARK  status: ('A' for Active; 'I' for Inactive)
REMARK    1  A    between atoms: C_2  and  C_3
REMARK    2  A    between atoms: C_3  and  C_4
REMARK    3  A    between atoms: C_5  and  C_6
REMARK                            x       y       z     vdW  Elec       q    Type
REMARK                         _______ _______ _______ _____ _____    ______ ____
ROOT
ATOM      1  C   UNL A   1     -22.492   0.508  28.387  0.00  0.00    -0.004 A 
ATOM      2  C   UNL A   1     -23.617   0.100  28.216  0.00  0.00    -0.018 A 
ATOM      3  C   UNL A   1     -21.986   1.612  27.579  0.00  0.00    -0.000 A 
ATOM      4  C   UNL A   1     -22.736   2.004  26.453  0.00  0.00    -0.000 A 
ATOM      5  C   UNL A   1     -23.928   1.422  26.147  0.00  0.00    -0.000 A 
ATOM      6  C   UNL A   1     -24.420   0.449  26.980  0.00  0.00    -0.004 A 
ENDROOT
BRANCH   2   7
ATOM      7  C   UNL A   1     -24.216  -0.915  28.944  0.00  0.00    +0.052 C 
BRANCH   7   8
ATOM      8  C   UNL A   1     -24.590  -2.217  28.446  0.00  0.00    -0.021 C 
ATOM      9  C   UNL A   1     -23.913  -3.354  28.948  0.00  0.00    -0.004 C 
BRANCH   9  10
ATOM     10  C   UNL A   1     -24.165  -4.701  28.579  0.00  0.00    -0.000 C 
ATOM     11  C   UNL A   1     -25.317  -5.209  29.327  0.00  0.00    -0.000 C 
ENDBRANCH   9  10
ENDBRANCH   7   8
ENDBRANCH   2   7
TORSDOF 3
ENDMDL
ENDMDL
