MODEL 1701
MODEL 1
REMARK VINA RESULT:    -7.461      0.000      0.000
REMARK INTER + INTRA:          -9.276
REMARK INTER:                  -8.769
REMARK INTRA:                  -0.507
REMARK UNBOUND:                -0.507
REMARK  Name = No_1701-gen_results/8p0m/2024-11-27-11-27-31/
REMARK  3 active torsions:
REMARK  status: ('A' for Active; 'I' for Inactive)
REMARK    1  A    between atoms: C_6  and  C_13
REMARK    2  A    between atoms: C_12  and  O_20
REMARK    3  A    between atoms: O_20  and  C_21
REMARK                            x       y       z     vdW  Elec       q    Type
REMARK                         _______ _______ _______ _____ _____    ______ ____
ROOT
ATOM      1  C   UNL A   1     -28.819   0.655  23.688  0.00  0.00    +0.002 A 
ATOM      2  C   UNL A   1     -27.794   0.877  24.290  0.00  0.00    -0.000 A 
ATOM      3  C   UNL A   1     -27.496   2.105  24.880  0.00  0.00    +0.000 A 
ATOM      4  C   UNL A   1     -28.426   3.206  24.725  0.00  0.00    +0.000 A 
ATOM      5  C   UNL A   1     -29.585   2.912  24.008  0.00  0.00    +0.002 A 
ATOM      6  C   UNL A   1     -29.781   1.723  23.473  0.00  0.00    +0.018 A 
ATOM      7  C   UNL A   1     -26.261   2.450  25.642  0.00  0.00    +0.003 A 
ATOM      8  C   UNL A   1     -26.082   3.575  26.292  0.00  0.00    +0.000 A 
ATOM      9  C   UNL A   1     -24.897   3.836  27.019  0.00  0.00    +0.003 A 
ATOM     10  C   UNL A   1     -24.068   2.730  27.358  0.00  0.00    +0.037 A 
ATOM     11  C   UNL A   1     -25.292   1.431  25.961  0.00  0.00    +0.031 A 
ATOM     12  C   UNL A   1     -24.249   1.594  26.760  0.00  0.00    +0.145 A 
ATOM     13  C   UNL A   1     -25.492   0.069  25.526  0.00  0.00    -0.019 A 
ATOM     14  C   UNL A   1     -26.780  -0.234  24.686  0.00  0.00    -0.004 A 
ATOM     15  C   UNL A   1     -25.027   0.128  24.606  0.00  0.00    +0.031 C 
ENDROOT
BRANCH   6  16
ATOM     16  C   UNL A   1     -31.014   1.506  22.664  0.00  0.00    +0.081 A 
ATOM     17  N   UNL A   1     -31.478   2.475  21.857  0.00  0.00    -0.243 NA
ATOM     18  C   UNL A   1     -32.261   2.219  20.801  0.00  0.00    +0.105 A 
ATOM     19  C   UNL A   1     -33.431   1.626  21.021  0.00  0.00    +0.054 A 
ATOM     20  C   UNL A   1     -33.365   0.512  21.942  0.00  0.00    +0.010 A 
ATOM     21  C   UNL A   1     -31.982   0.383  22.751  0.00  0.00    +0.020 A 
ATOM     22 BR   UNL A   1     -35.025   1.806  20.099  0.00  0.00    -0.047 Br
ENDBRANCH   6  16
BRANCH  12  23
ATOM     23  O   UNL A   1     -23.369   0.574  26.963  0.00  0.00    -0.450 OA
BRANCH  23  24
ATOM     24  C   UNL A   1     -23.175   0.358  28.377  0.00  0.00    +0.192 C 
ATOM     25  C   UNL A   1     -22.980  -0.456  28.949  0.00  0.00    +0.109 C 
ATOM     26 CL   UNL A   1     -22.711  -0.440  30.626  0.00  0.00    -0.078 Cl
ENDBRANCH  23  24
ENDBRANCH  12  23
TORSDOF 3
ENDMDL
ENDMDL
