REMARK  Name = outputs/IAG933/test6/raw/output_1701_IAG933_linker_design_.xyz
REMARK  12 active torsions:
REMARK  status: ('A' for Active; 'I' for Inactive)
REMARK    1  A    between atoms: C_1  and  C_2
REMARK    2  A    between atoms: C_1  and  C_8
REMARK    3  A    between atoms: C_1  and  C_33
REMARK    4  A    between atoms: C_13  and  C_44
REMARK    5  A    between atoms: C_14  and  C_15
REMARK    6  A    between atoms: C_21  and  O_22
REMARK    7  A    between atoms: O_22  and  C_23
REMARK    8  A    between atoms: C_23  and  C_24
REMARK    9  A    between atoms: C_29  and  C_45
REMARK   10  A    between atoms: C_32  and  N_42
REMARK   11  A    between atoms: C_33  and  N_35
REMARK   12  A    between atoms: C_33  and  N_39
REMARK                            x       y       z     vdW  Elec       q    Type
REMARK                         _______ _______ _______ _____ _____    ______ ____
ROOT
ATOM      1  C   UNL A   1     -24.906   0.019  29.077  0.00  0.00    +0.198 C 
ENDROOT
BRANCH   1   4
ATOM      2  N   UNL A   1     -22.004   0.406  29.480  0.00  0.00    -0.105 NA
ATOM      3  C   UNL A   1     -22.653   0.852  28.404  0.00  0.00    +0.200 A 
ATOM      4  N   UNL A   1     -23.992   0.716  28.188  0.00  0.00    -0.277 N 
ATOM      5  F   UNL A   1     -21.000   1.980  27.000  0.00  0.00    -0.180 F 
ATOM      6  N   UNL A   1     -23.232   1.832  26.381  0.00  0.00    -0.198 NA
ATOM      7  C   UNL A   1     -22.261   1.569  27.245  0.00  0.00    +0.257 A 
ATOM      8  C   UNL A   1     -24.316   1.362  26.998  0.00  0.00    +0.151 A 
BRANCH   8   9
ATOM      9  C   UNL A   1     -25.688   1.614  26.461  0.00  0.00    +0.072 C 
ATOM     10  C   UNL A   1     -26.250   2.920  26.395  0.00  0.00    +0.080 C 
ATOM     11  C   UNL A   1     -27.438   3.091  25.645  0.00  0.00    +0.107 C 
ATOM     12  N   UNL A   1     -28.075   2.089  25.003  0.00  0.00    -0.208 NA
ATOM     13  C   UNL A   1     -27.543   0.849  25.079  0.00  0.00    +0.253 C 
ATOM     14  C   UNL A   1     -26.354   0.576  25.777  0.00  0.00    +0.196 C 
ATOM     15  F   UNL A   1     -25.860  -0.681  25.795  0.00  0.00    -0.199 F 
BRANCH  10  16
ATOM     16  C   UNL A   1     -25.642   4.093  27.123  0.00  0.00    +0.267 C 
ATOM     17  N   UNL A   1     -25.614   5.252  26.449  0.00  0.00    -0.200 NA
ATOM     18  C   UNL A   1     -25.026   6.479  26.963  0.00  0.00    +0.139 C 
ATOM     19  O   UNL A   1     -25.143   3.966  28.243  0.00  0.00    -0.268 OA
ENDBRANCH  10  16
BRANCH  13  20
ATOM     20  O   UNL A   1     -28.193  -0.208  24.477  0.00  0.00    -0.456 OA
BRANCH  20  21
ATOM     21  C   UNL A   1     -29.460   0.005  23.866  0.00  0.00    +0.243 C 
BRANCH  21  22
ATOM     22  C   UNL A   1     -30.065  -1.377  23.573  0.00  0.00    +0.229 C 
ATOM     23  O   UNL A   1     -30.729  -1.878  24.721  0.00  0.00    -0.216 OA
ENDBRANCH  21  22
ENDBRANCH  20  21
ENDBRANCH  13  20
ENDBRANCH   8   9
ENDBRANCH   1   4
BRANCH   1  25
ATOM     24  C   UNL A   1     -27.135  -0.652  28.730  0.00  0.00    +0.155 C 
ATOM     25  N   UNL A   1     -26.165   0.385  28.862  0.00  0.00    -0.243 NA
BRANCH  24  28
ATOM     26  O   UNL A   1     -29.388  -0.971  28.596  0.00  0.00    -0.267 OA
ATOM     27  N   UNL A   1     -28.567   1.144  28.707  0.00  0.00    -0.173 NA
ATOM     28  C   UNL A   1     -28.443  -0.220  28.541  0.00  0.00    +0.286 C 
BRANCH  27  31
ATOM     29  C   UNL A   1     -29.584   1.185  31.967  0.00  0.00    +0.144 C 
ATOM     30  O   UNL A   1     -28.632   0.537  31.007  0.00  0.00    -0.336 OA
ATOM     31  C   UNL A   1     -28.411   1.482  29.985  0.00  0.00    +0.211 C 
ATOM     32  C   UNL A   1     -29.896   2.543  31.300  0.00  0.00    +0.036 C 
ATOM     33  C   UNL A   1     -28.604   2.850  30.524  0.00  0.00    +0.055 C 
ENDBRANCH  27  31
ENDBRANCH  24  28
ENDBRANCH   1  25
BRANCH   1  34
ATOM     34  C   UNL A   1     -24.855  -1.012  30.143  0.00  0.00    +0.083 C 
BRANCH  34  35
ATOM     35  C   UNL A   1     -24.973  -2.505  29.788  0.00  0.00    -0.017 C 
ATOM     36  C   UNL A   1     -23.906  -3.173  29.146  0.00  0.00    -0.004 C 
ATOM     37  C   UNL A   1     -23.989  -4.549  28.853  0.00  0.00    -0.000 C 
ATOM     38  C   UNL A   1     -25.137  -5.280  29.205  0.00  0.00    -0.000 C 
ATOM     39  C   UNL A   1     -26.232  -4.611  29.784  0.00  0.00    -0.000 C 
ATOM     40  C   UNL A   1     -26.155  -3.232  30.065  0.00  0.00    -0.004 C 
ENDBRANCH  34  35
BRANCH  34  41
ATOM     41  C   UNL A   1     -25.387  -0.679  31.571  0.00  0.00    +0.081 C 
ATOM     42  C   UNL A   1     -25.189   0.773  32.028  0.00  0.00    +0.019 C 
ATOM     43  C   UNL A   1     -25.336   0.684  33.544  0.00  0.00    +0.020 C 
ATOM     44  C   UNL A   1     -24.829  -0.715  33.905  0.00  0.00    +0.089 C 
ATOM     45  N   UNL A   1     -24.758  -1.481  32.646  0.00  0.00    -0.219 NA
ENDBRANCH  34  41
ENDBRANCH   1  34
TORSDOF 12
