MODEL 1702
MODEL 1
REMARK VINA RESULT:    -6.863      0.000      0.000
REMARK INTER + INTRA:          -7.627
REMARK INTER:                  -7.265
REMARK INTRA:                  -0.362
REMARK UNBOUND:                -0.362
REMARK  Name = No_1702-gen_results/8p0m/2024-11-27-11-27-31/
REMARK  1 active torsions:
REMARK  status: ('A' for Active; 'I' for Inactive)
REMARK    1  A    between atoms: C_2  and  C_8
REMARK                            x       y       z     vdW  Elec       q    Type
REMARK                         _______ _______ _______ _____ _____    ______ ____
ROOT
ATOM      1  C   UNL A   1     -24.702  -0.448  27.876  0.00  0.00    +0.003 A 
ATOM      2  C   UNL A   1     -24.125  -1.203  28.624  0.00  0.00    +0.003 A 
ATOM      3  C   UNL A   1     -22.791  -1.108  28.980  0.00  0.00    +0.044 A 
ATOM      4  C   UNL A   1     -22.052  -0.013  28.441  0.00  0.00    +0.223 A 
ATOM      5  C   UNL A   1     -22.761   0.890  27.734  0.00  0.00    +0.179 A 
ATOM      6  C   UNL A   1     -24.071   0.747  27.522  0.00  0.00    +0.033 A 
ATOM      7  F   UNL A   1     -22.094   1.949  27.292  0.00  0.00    -0.201 F 
ATOM      8  O   UNL A   1     -20.746   0.126  28.757  0.00  0.00    -0.284 OA
ENDROOT
BRANCH   2   9
ATOM      9  C   UNL A   1     -24.587  -2.592  29.206  0.00  0.00    +0.000 A 
ATOM     10  C   UNL A   1     -23.902  -3.666  28.872  0.00  0.00    +0.000 A 
ATOM     11  C   UNL A   1     -25.737  -2.733  30.023  0.00  0.00    +0.000 A 
ATOM     12  C   UNL A   1     -26.503  -3.595  29.940  0.00  0.00    +0.000 A 
ATOM     13  C   UNL A   1     -25.961  -4.929  29.558  0.00  0.00    +0.000 A 
ATOM     14  C   UNL A   1     -24.687  -4.935  28.921  0.00  0.00    +0.000 A 
ENDBRANCH   2   9
TORSDOF 1
ENDMDL
ENDMDL
