MODEL 1703
MODEL 1
REMARK VINA RESULT:    -6.841      0.000      0.000
REMARK INTER + INTRA:         -10.359
REMARK INTER:                  -8.840
REMARK INTRA:                  -1.519
REMARK UNBOUND:                -1.519
REMARK  Name = No_1703-gen_results/8p0m/2024-11-27-11-27-31/
REMARK  5 active torsions:
REMARK  status: ('A' for Active; 'I' for Inactive)
REMARK    1  A    between atoms: C_5  and  C_12
REMARK    2  A    between atoms: C_10  and  N_15
REMARK    3  A    between atoms: N_15  and  C_16
REMARK    4  A    between atoms: C_17  and  C_18
REMARK    5  A    between atoms: C_19  and  C_20
REMARK                            x       y       z     vdW  Elec       q    Type
REMARK                         _______ _______ _______ _____ _____    ______ ____
ROOT
ATOM      1  C   UNL A   1     -25.275   0.771  29.454  0.00  0.00    +0.100 C 
ATOM      2  C   UNL A   1     -25.057  -0.417  29.404  0.00  0.00    -0.010 A 
ATOM      3  C   UNL A   1     -26.071  -1.343  29.626  0.00  0.00    -0.003 A 
ATOM      4  C   UNL A   1     -25.928  -2.827  29.603  0.00  0.00    +0.004 A 
ATOM      5  C   UNL A   1     -24.666  -3.326  29.162  0.00  0.00    +0.056 A 
ATOM      6  C   UNL A   1     -23.670  -2.368  28.885  0.00  0.00    +0.000 A 
ATOM      7  C   UNL A   1     -23.845  -1.041  28.975  0.00  0.00    -0.021 A 
ATOM      8  N   UNL A   1     -24.271   1.515  30.034  0.00  0.00    -0.252 NA
ATOM      9  C   UNL A   1     -24.354   1.912  31.333  0.00  0.00    +0.091 C 
ATOM     10  C   UNL A   1     -23.043   1.312  29.534  0.00  0.00    +0.156 C 
ATOM     11  C   UNL A   1     -22.690  -0.088  29.210  0.00  0.00    +0.064 C 
ENDROOT
BRANCH   5  12
ATOM     12  C   UNL A   1     -24.540  -4.772  29.025  0.00  0.00    +0.284 C 
ATOM     13  N   UNL A   1     -23.653  -5.205  28.177  0.00  0.00    -0.084 NA
ATOM     14  O   UNL A   1     -25.199  -5.638  29.641  0.00  0.00    -0.267 OA
ENDBRANCH   5  12
BRANCH  10  15
ATOM     15  N   UNL A   1     -22.818   2.166  28.495  0.00  0.00    -0.221 NA
BRANCH  15  16
ATOM     16  C   UNL A   1     -22.053   1.916  27.437  0.00  0.00    +0.082 C 
ATOM     17  C   UNL A   1     -22.668   1.837  26.171  0.00  0.00    +0.017 C 
BRANCH  17  18
ATOM     18  C   UNL A   1     -23.934   1.953  26.107  0.00  0.00    -0.003 C 
ATOM     19  C   UNL A   1     -24.752   1.449  25.550  0.00  0.00    -0.026 C 
BRANCH  19  20
ATOM     20  C   UNL A   1     -25.276   0.231  25.738  0.00  0.00    +0.026 C 
ATOM     21  C   UNL A   1     -25.725  -0.730  24.906  0.00  0.00    +0.005 C 
ENDBRANCH  19  20
ENDBRANCH  17  18
ENDBRANCH  15  16
ENDBRANCH  10  15
TORSDOF 5
ENDMDL
ENDMDL
