REMARK  Name = outputs/IAG933/test6/raw/output_1703_IAG933_linker_design_.xyz
REMARK  9 active torsions:
REMARK  status: ('A' for Active; 'I' for Inactive)
REMARK    1  A    between atoms: C_1  and  C_2
REMARK    2  A    between atoms: C_1  and  C_8
REMARK    3  A    between atoms: C_1  and  N_31
REMARK    4  A    between atoms: C_14  and  C_15
REMARK    5  A    between atoms: C_15  and  O_18
REMARK    6  A    between atoms: O_18  and  C_43
REMARK    7  A    between atoms: C_21  and  O_22
REMARK    8  A    between atoms: O_22  and  C_23
REMARK    9  A    between atoms: C_23  and  C_24
REMARK                            x       y       z     vdW  Elec       q    Type
REMARK                         _______ _______ _______ _____ _____    ______ ____
ROOT
ATOM      1  C   UNL A   1     -26.697   0.334  29.109  0.00  0.00    +0.252 C 
ATOM      2  C   UNL A   1     -22.245   1.683  28.097  0.00  0.00    +0.171 C 
ATOM      3  C   UNL A   1     -27.460   1.691  29.232  0.00  0.00    +0.093 C 
ATOM      4  N   UNL A   1     -25.273   0.093  29.381  0.00  0.00    -0.271 N 
ATOM      5  N   UNL A   1     -21.996  -0.368  29.613  0.00  0.00    -0.128 NA
ATOM      6  O   UNL A   1     -26.451   4.645  30.891  0.00  0.00    -0.288 OA
ATOM      7  C   UNL A   1     -24.196   2.227  28.810  0.00  0.00    +0.138 C 
ATOM      8  C   UNL A   1     -27.217   3.843  30.248  0.00  0.00    +0.217 C 
ATOM      9  C   UNL A   1     -26.650   2.848  29.523  0.00  0.00    +0.065 C 
ATOM     10  O   UNL A   1     -27.239  -0.542  28.543  0.00  0.00    -0.270 OA
ATOM     11  C   UNL A   1     -22.741   0.579  28.926  0.00  0.00    +0.143 C 
ATOM     12 CL   UNL A   1     -20.834   1.729  27.348  0.00  0.00    -0.094 Cl
ATOM     13  O   UNL A   1     -29.398   3.111  29.602  0.00  0.00    -0.464 OA
ATOM     14  N   UNL A   1     -23.163   2.671  28.073  0.00  0.00    -0.198 NA
ATOM     15  C   UNL A   1     -28.613   4.080  30.199  0.00  0.00    +0.274 C 
ATOM     16  C   UNL A   1     -25.350   3.055  28.928  0.00  0.00    +0.210 C 
ATOM     17  C   UNL A   1     -24.111   0.886  29.093  0.00  0.00    +0.116 C 
ATOM     18  C   UNL A   1     -28.897   1.914  29.114  0.00  0.00    +0.177 C 
ENDROOT
BRANCH   4  19
ATOM     19  C   UNL A   1     -24.855  -1.012  30.143  0.00  0.00    +0.114 C 
BRANCH  19  20
ATOM     20  C   UNL A   1     -24.973  -2.505  29.788  0.00  0.00    -0.003 C 
ATOM     21  C   UNL A   1     -23.906  -3.173  29.146  0.00  0.00    -0.003 C 
ATOM     22  C   UNL A   1     -23.989  -4.549  28.853  0.00  0.00    -0.000 C 
ATOM     23  C   UNL A   1     -25.137  -5.280  29.205  0.00  0.00    -0.000 C 
ATOM     24  C   UNL A   1     -26.232  -4.611  29.784  0.00  0.00    -0.000 C 
ATOM     25  C   UNL A   1     -26.155  -3.232  30.065  0.00  0.00    -0.003 C 
ENDBRANCH  19  20
BRANCH  19  26
ATOM     26  C   UNL A   1     -25.387  -0.679  31.571  0.00  0.00    +0.095 C 
ATOM     27  C   UNL A   1     -25.189   0.773  32.028  0.00  0.00    +0.021 C 
ATOM     28  C   UNL A   1     -25.336   0.684  33.544  0.00  0.00    +0.020 C 
ATOM     29  C   UNL A   1     -24.829  -0.715  33.905  0.00  0.00    +0.089 C 
ATOM     30  N   UNL A   1     -24.758  -1.481  32.646  0.00  0.00    -0.217 NA
ENDBRANCH  19  26
ENDBRANCH   4  19
BRANCH  16  31
ATOM     31  O   UNL A   1     -25.143   3.966  28.243  0.00  0.00    -0.458 OA
BRANCH  31  32
ATOM     32  C   UNL A   1     -25.642   4.093  27.123  0.00  0.00    +0.222 C 
ATOM     33  N   UNL A   1     -25.614   5.252  26.449  0.00  0.00    -0.236 NA
ATOM     34  C   UNL A   1     -25.026   6.479  26.963  0.00  0.00    +0.155 C 
BRANCH  32  36
ATOM     35  C   UNL A   1     -25.688   1.614  26.461  0.00  0.00    +0.041 C 
ATOM     36  C   UNL A   1     -26.250   2.920  26.395  0.00  0.00    +0.074 C 
ATOM     37  C   UNL A   1     -27.438   3.091  25.645  0.00  0.00    +0.107 C 
ATOM     38  N   UNL A   1     -28.075   2.089  25.003  0.00  0.00    -0.208 NA
ATOM     39  C   UNL A   1     -27.543   0.849  25.079  0.00  0.00    +0.253 C 
ATOM     40  C   UNL A   1     -26.354   0.576  25.777  0.00  0.00    +0.193 C 
ATOM     41  F   UNL A   1     -25.860  -0.681  25.795  0.00  0.00    -0.199 F 
BRANCH  39  42
ATOM     42  O   UNL A   1     -28.193  -0.208  24.477  0.00  0.00    -0.456 OA
BRANCH  42  43
ATOM     43  C   UNL A   1     -29.460   0.005  23.866  0.00  0.00    +0.243 C 
BRANCH  43  44
ATOM     44  C   UNL A   1     -30.065  -1.377  23.573  0.00  0.00    +0.229 C 
ATOM     45  O   UNL A   1     -30.729  -1.878  24.721  0.00  0.00    -0.216 OA
ENDBRANCH  43  44
ENDBRANCH  42  43
ENDBRANCH  39  42
ENDBRANCH  32  36
ENDBRANCH  31  32
ENDBRANCH  16  31
TORSDOF 9
