MODEL 1704
MODEL 1
REMARK VINA RESULT:    -3.519      0.000      0.000
REMARK INTER + INTRA:          -3.996
REMARK INTER:                  -3.930
REMARK INTRA:                  -0.066
REMARK UNBOUND:                -0.066
REMARK  Name = No_1704-gen_results/8p0m/2024-11-27-11-27-31/
REMARK  2 active torsions:
REMARK  status: ('A' for Active; 'I' for Inactive)
REMARK    1  A    between atoms: C_1  and  C_2
REMARK    2  A    between atoms: C_1  and  C_3
REMARK                            x       y       z     vdW  Elec       q    Type
REMARK                         _______ _______ _______ _____ _____    ______ ____
ROOT
ATOM      1  C   UNL A   1     -24.153  -2.515  29.761  0.00  0.00    +0.043 C 
ENDROOT
BRANCH   1   2
ATOM      2  C   UNL A   1     -24.012  -2.919  28.798  0.00  0.00    -0.029 C 
ATOM      3  C   UNL A   1     -24.038  -4.385  28.560  0.00  0.00    -0.030 C 
ATOM      4  C   UNL A   1     -24.943  -5.359  29.172  0.00  0.00    +0.030 C 
ENDBRANCH   1   2
BRANCH   1   5
ATOM      5  C   UNL A   1     -23.354  -1.268  30.066  0.00  0.00    +0.100 C 
ATOM      6 CL   UNL A   1     -22.092  -0.834  29.131  0.00  0.00    -0.113 Cl
ENDBRANCH   1   5
TORSDOF 2
ENDMDL
ENDMDL
