MODEL 1705
MODEL 1
REMARK VINA RESULT:    -7.900      0.000      0.000
REMARK INTER + INTRA:         -15.604
REMARK INTER:                 -13.905
REMARK INTRA:                  -1.700
REMARK UNBOUND:                -1.700
REMARK  Name = No_1705-gen_results/8p0m/2024-11-27-11-27-31/
REMARK  13 active torsions:
REMARK  status: ('A' for Active; 'I' for Inactive)
REMARK    1  A    between atoms: C_1  and  O_18
REMARK    2  A    between atoms: C_2  and  O_8
REMARK    3  A    between atoms: C_4  and  C_9
REMARK    4  A    between atoms: O_8  and  C_31
REMARK    5  A    between atoms: C_9  and  C_10
REMARK    6  A    between atoms: C_9  and  C_17
REMARK    7  A    between atoms: C_10  and  C_11
REMARK    8  A    between atoms: C_11  and  C_12
REMARK    9  A    between atoms: C_12  and  C_13
REMARK   10  A    between atoms: C_13  and  C_14
REMARK   11  A    between atoms: C_14  and  C_15
REMARK   12  A    between atoms: O_18  and  C_25
REMARK   13  A    between atoms: C_32  and  C_33
REMARK                            x       y       z     vdW  Elec       q    Type
REMARK                         _______ _______ _______ _____ _____    ______ ____
ROOT
ATOM      1  C   UNL A   1     -24.884  -0.781  27.897  0.00  0.00    +0.206 C 
ATOM      2  C   UNL A   1     -24.063  -0.180  28.171  0.00  0.00    +0.216 C 
ATOM      3  C   UNL A   1     -26.132  -0.029  27.488  0.00  0.00    +0.048 C 
ATOM      4  C   UNL A   1     -26.008   0.966  26.532  0.00  0.00    +0.015 C 
ATOM      5  C   UNL A   1     -23.461   0.862  27.162  0.00  0.00    +0.101 C 
ATOM      6 BR   UNL A   1     -21.830   1.693  27.435  0.00  0.00    -0.078 Br
ATOM      7  C   UNL A   1     -24.668   1.692  26.631  0.00  0.00    +0.016 C 
ENDROOT
BRANCH   2   8
ATOM      8  O   UNL A   1     -24.023   0.648  29.337  0.00  0.00    -0.471 OA
BRANCH   8   9
ATOM      9  C   UNL A   1     -23.313   0.378  30.436  0.00  0.00    +0.172 C 
ATOM     10  C   UNL A   1     -23.981  -0.342  31.397  0.00  0.00    +0.040 C 
BRANCH  10  11
ATOM     11  C   UNL A   1     -23.249  -0.933  32.473  0.00  0.00    -0.001 C 
ATOM     12  C   UNL A   1     -23.886  -1.062  33.721  0.00  0.00    -0.026 C 
ATOM     13  C   UNL A   1     -25.185  -0.586  33.872  0.00  0.00    +0.031 C 
ENDBRANCH  10  11
ENDBRANCH   8   9
ENDBRANCH   2   8
BRANCH   4  14
ATOM     14  C   UNL A   1     -26.929   1.284  25.585  0.00  0.00    +0.103 C 
BRANCH  14  15
ATOM     15  C   UNL A   1     -27.871   2.341  25.807  0.00  0.00    +0.364 C 
ATOM     16  O   UNL A   1     -28.849   2.230  26.442  0.00  0.00    -0.246 OA
ATOM     17  O   UNL A   1     -27.848   3.415  25.019  0.00  0.00    -0.246 OA
ENDBRANCH  14  15
BRANCH  14  18
ATOM     18  C   UNL A   1     -26.960   0.494  24.387  0.00  0.00    +0.011 C 
BRANCH  18  19
ATOM     19  C   UNL A   1     -28.087   0.384  23.566  0.00  0.00    +0.001 C 
BRANCH  19  20
ATOM     20  C   UNL A   1     -28.914  -0.752  23.727  0.00  0.00    +0.000 C 
BRANCH  20  21
ATOM     21  C   UNL A   1     -30.333  -0.705  23.739  0.00  0.00    +0.005 C 
BRANCH  21  22
ATOM     22  C   UNL A   1     -30.845   0.676  23.828  0.00  0.00    +0.026 C 
BRANCH  22  23
ATOM     23  C   UNL A   1     -31.620   1.082  22.721  0.00  0.00    -0.022 A 
ATOM     24  C   UNL A   1     -31.335   2.401  22.197  0.00  0.00    -0.004 A 
ATOM     25  C   UNL A   1     -31.901   2.720  20.983  0.00  0.00    -0.000 A 
ATOM     26  C   UNL A   1     -32.927   2.054  20.440  0.00  0.00    -0.000 A 
ATOM     27  C   UNL A   1     -33.333   0.818  20.985  0.00  0.00    -0.000 A 
ATOM     28  C   UNL A   1     -32.637   0.305  22.122  0.00  0.00    -0.004 A 
ENDBRANCH  22  23
ENDBRANCH  21  22
ENDBRANCH  20  21
ENDBRANCH  19  20
ENDBRANCH  18  19
ENDBRANCH  14  18
ENDBRANCH   4  14
BRANCH   1  29
ATOM     29  O   UNL A   1     -25.417  -1.599  29.016  0.00  0.00    -0.475 OA
BRANCH  29  30
ATOM     30  C   UNL A   1     -25.057  -2.914  29.073  0.00  0.00    +0.139 A 
ATOM     31  C   UNL A   1     -24.103  -3.424  28.508  0.00  0.00    +0.037 A 
ATOM     32  C   UNL A   1     -23.996  -4.828  28.459  0.00  0.00    +0.003 A 
ATOM     33  C   UNL A   1     -25.008  -5.499  29.051  0.00  0.00    +0.000 A 
ATOM     34  C   UNL A   1     -26.116  -4.995  29.634  0.00  0.00    +0.003 A 
ATOM     35  C   UNL A   1     -26.181  -3.659  29.666  0.00  0.00    +0.037 A 
ENDBRANCH  29  30
ENDBRANCH   1  29
TORSDOF 13
ENDMDL
ENDMDL
