REMARK  Name = No_1705-gen_results/8p0m/2024-11-27-11-27-31/
REMARK  13 active torsions:
REMARK  status: ('A' for Active; 'I' for Inactive)
REMARK    1  A    between atoms: C_1  and  O_18
REMARK    2  A    between atoms: C_2  and  O_8
REMARK    3  A    between atoms: C_4  and  C_9
REMARK    4  A    between atoms: O_8  and  C_31
REMARK    5  A    between atoms: C_9  and  C_10
REMARK    6  A    between atoms: C_9  and  C_17
REMARK    7  A    between atoms: C_10  and  C_11
REMARK    8  A    between atoms: C_11  and  C_12
REMARK    9  A    between atoms: C_12  and  C_13
REMARK   10  A    between atoms: C_13  and  C_14
REMARK   11  A    between atoms: C_14  and  C_15
REMARK   12  A    between atoms: O_18  and  C_25
REMARK   13  A    between atoms: C_32  and  C_33
REMARK                            x       y       z     vdW  Elec       q    Type
REMARK                         _______ _______ _______ _____ _____    ______ ____
ROOT
ATOM      1  C   UNL A   1     -28.016  -0.814  28.878  0.00  0.00    +0.206 C 
ATOM      2  C   UNL A   1     -28.469  -0.785  29.829  0.00  0.00    +0.216 C 
ATOM      3  C   UNL A   1     -26.504  -0.778  28.877  0.00  0.00    +0.048 C 
ATOM      4  C   UNL A   1     -25.831  -1.681  29.685  0.00  0.00    +0.015 C 
ATOM      5  C   UNL A   1     -28.149  -1.885  30.903  0.00  0.00    +0.101 C 
ATOM      6 BR   UNL A   1     -29.149  -2.101  32.444  0.00  0.00    -0.078 Br
ATOM      7  C   UNL A   1     -26.595  -1.975  30.975  0.00  0.00    +0.016 C 
ENDROOT
BRANCH   2   8
ATOM      8  O   UNL A   1     -28.432   0.345  30.706  0.00  0.00    -0.471 OA
BRANCH   8   9
ATOM      9  C   UNL A   1     -29.496   1.079  31.043  0.00  0.00    +0.172 C 
ATOM     10  C   UNL A   1     -29.310   2.439  30.970  0.00  0.00    +0.040 C 
BRANCH  10  11
ATOM     11  C   UNL A   1     -30.442   3.310  31.023  0.00  0.00    -0.001 C 
ATOM     12  C   UNL A   1     -31.703   2.747  31.295  0.00  0.00    -0.026 C 
ATOM     13  C   UNL A   1     -31.808   1.371  31.471  0.00  0.00    +0.031 C 
ENDBRANCH  10  11
ENDBRANCH   8   9
ENDBRANCH   2   8
BRANCH   4  14
ATOM     14  C   UNL A   1     -24.644  -2.277  29.402  0.00  0.00    +0.103 C 
BRANCH  14  15
ATOM     15  C   UNL A   1     -24.557  -3.700  29.253  0.00  0.00    +0.364 C 
ATOM     16  O   UNL A   1     -25.314  -4.460  29.723  0.00  0.00    -0.246 OA
ATOM     17  O   UNL A   1     -23.412  -4.247  28.846  0.00  0.00    -0.246 OA
ENDBRANCH  14  15
BRANCH  14  18
ATOM     18  C   UNL A   1     -23.479  -1.444  29.313  0.00  0.00    +0.011 C 
BRANCH  18  19
ATOM     19  C   UNL A   1     -23.446  -0.116  29.752  0.00  0.00    +0.001 C 
BRANCH  19  20
ATOM     20  C   UNL A   1     -22.636   0.797  29.037  0.00  0.00    +0.000 C 
BRANCH  20  21
ATOM     21  C   UNL A   1     -23.093   2.051  28.552  0.00  0.00    +0.005 C 
BRANCH  21  22
ATOM     22  C   UNL A   1     -23.174   2.084  27.079  0.00  0.00    +0.026 C 
BRANCH  22  23
ATOM     23  C   UNL A   1     -24.489   2.046  26.567  0.00  0.00    -0.022 A 
ATOM     24  C   UNL A   1     -24.826   0.885  25.771  0.00  0.00    -0.004 A 
ATOM     25  C   UNL A   1     -26.158   0.709  25.467  0.00  0.00    -0.000 A 
ATOM     26  C   UNL A   1     -27.079   1.675  25.563  0.00  0.00    -0.000 A 
ATOM     27  C   UNL A   1     -26.768   2.883  26.221  0.00  0.00    -0.000 A 
ATOM     28  C   UNL A   1     -25.460   3.052  26.769  0.00  0.00    -0.004 A 
ENDBRANCH  22  23
ENDBRANCH  21  22
ENDBRANCH  20  21
ENDBRANCH  19  20
ENDBRANCH  18  19
ENDBRANCH  14  18
ENDBRANCH   4  14
BRANCH   1  29
ATOM     29  O   UNL A   1     -28.314   0.379  28.045  0.00  0.00    -0.475 OA
BRANCH  29  30
ATOM     30  C   UNL A   1     -29.624   0.695  27.828  0.00  0.00    +0.139 A 
ATOM     31  C   UNL A   1     -30.571  -0.072  27.900  0.00  0.00    +0.037 A 
ATOM     32  C   UNL A   1     -31.829   0.333  27.413  0.00  0.00    +0.003 A 
ATOM     33  C   UNL A   1     -31.863   1.573  26.879  0.00  0.00    +0.000 A 
ATOM     34  C   UNL A   1     -30.841   2.440  26.715  0.00  0.00    +0.003 A 
ATOM     35  C   UNL A   1     -29.663   2.023  27.193  0.00  0.00    +0.037 A 
ENDBRANCH  29  30
ENDBRANCH   1  29
TORSDOF 13
