REMARK  Name = No_1706-gen_results/8p0m/2024-11-27-11-27-31/
REMARK  1 active torsions:
REMARK  status: ('A' for Active; 'I' for Inactive)
REMARK    1  A    between atoms: C_4  and  C_11
REMARK                            x       y       z     vdW  Elec       q    Type
REMARK                         _______ _______ _______ _____ _____    ______ ____
ROOT
ATOM      1  C   UNL A   1     -28.016  -0.814  28.878  0.00  0.00    +0.000 A 
ATOM      2  C   UNL A   1     -27.064  -0.119  28.608  0.00  0.00    +0.000 A 
ATOM      3  C   UNL A   1     -25.792  -0.430  29.076  0.00  0.00    +0.000 A 
ATOM      4  C   UNL A   1     -24.546   0.349  28.823  0.00  0.00    +0.000 A 
ATOM      5  C   UNL A   1     -23.241   0.022  29.332  0.00  0.00    +0.000 A 
ATOM      6  C   UNL A   1     -27.882  -1.899  29.863  0.00  0.00    +0.000 A 
ATOM      7  C   UNL A   1     -26.653  -2.314  30.314  0.00  0.00    +0.000 A 
ATOM      8  C   UNL A   1     -25.515  -1.561  29.979  0.00  0.00    +0.000 A 
ATOM      9  C   UNL A   1     -23.207  -1.229  30.031  0.00  0.00    +0.000 A 
ATOM     10  C   UNL A   1     -24.243  -1.936  30.388  0.00  0.00    +0.000 A 
ENDROOT
BRANCH   4  11
ATOM     11  C   UNL A   1     -24.577   1.565  27.957  0.00  0.00    +0.000 A 
ATOM     12  C   UNL A   1     -24.795   2.698  28.559  0.00  0.00    +0.000 A 
ATOM     13  C   UNL A   1     -25.061   3.860  27.788  0.00  0.00    +0.000 A 
ATOM     14  C   UNL A   1     -23.959   1.561  26.717  0.00  0.00    +0.000 A 
ATOM     15  C   UNL A   1     -24.057   2.636  25.868  0.00  0.00    +0.000 A 
ATOM     16  C   UNL A   1     -24.509   3.875  26.453  0.00  0.00    +0.000 A 
ENDBRANCH   4  11
TORSDOF 1
