MODEL 1706
MODEL 1
REMARK VINA RESULT:    -7.682      0.000      0.000
REMARK INTER + INTRA:          -8.475
REMARK INTER:                  -8.131
REMARK INTRA:                  -0.344
REMARK UNBOUND:                -0.344
REMARK  Name = No_1706-gen_results/8p0m/2024-11-27-11-27-31/
REMARK  1 active torsions:
REMARK  status: ('A' for Active; 'I' for Inactive)
REMARK    1  A    between atoms: C_4  and  C_11
REMARK                            x       y       z     vdW  Elec       q    Type
REMARK                         _______ _______ _______ _____ _____    ______ ____
ROOT
ATOM      1  C   UNL A   1     -25.646   0.057  25.864  0.00  0.00    +0.000 A 
ATOM      2  C   UNL A   1     -25.372  -0.701  26.766  0.00  0.00    +0.000 A 
ATOM      3  C   UNL A   1     -24.312  -0.440  27.627  0.00  0.00    +0.000 A 
ATOM      4  C   UNL A   1     -23.870  -1.297  28.764  0.00  0.00    +0.000 A 
ATOM      5  C   UNL A   1     -22.758  -1.020  29.633  0.00  0.00    +0.000 A 
ATOM      6  C   UNL A   1     -24.746   1.176  25.542  0.00  0.00    +0.000 A 
ATOM      7  C   UNL A   1     -23.723   1.542  26.383  0.00  0.00    +0.000 A 
ATOM      8  C   UNL A   1     -23.408   0.714  27.472  0.00  0.00    +0.000 A 
ATOM      9  C   UNL A   1     -22.155   0.257  29.386  0.00  0.00    +0.000 A 
ATOM     10  C   UNL A   1     -22.398   1.036  28.369  0.00  0.00    +0.000 A 
ENDROOT
BRANCH   4  11
ATOM     11  C   UNL A   1     -24.613  -2.547  29.102  0.00  0.00    +0.000 A 
ATOM     12  C   UNL A   1     -25.859  -2.402  29.450  0.00  0.00    +0.000 A 
ATOM     13  C   UNL A   1     -26.565  -3.505  29.998  0.00  0.00    +0.000 A 
ATOM     14  C   UNL A   1     -24.176  -3.774  28.632  0.00  0.00    +0.000 A 
ATOM     15  C   UNL A   1     -24.791  -4.943  29.010  0.00  0.00    +0.000 A 
ATOM     16  C   UNL A   1     -26.098  -4.815  29.606  0.00  0.00    +0.000 A 
ENDBRANCH   4  11
TORSDOF 1
ENDMDL
ENDMDL
