MODEL 1707
MODEL 1
REMARK VINA RESULT:    -9.019      0.000      0.000
REMARK INTER + INTRA:         -13.143
REMARK INTER:                 -12.182
REMARK INTRA:                  -0.961
REMARK UNBOUND:                -0.961
REMARK  Name = No_1707-gen_results/8p0m/2024-11-27-11-27-31/
REMARK  6 active torsions:
REMARK  status: ('A' for Active; 'I' for Inactive)
REMARK    1  A    between atoms: C_1  and  O_15
REMARK    2  A    between atoms: C_3  and  C_7
REMARK    3  A    between atoms: O_15  and  C_16
REMARK    4  A    between atoms: C_16  and  C_17
REMARK    5  A    between atoms: C_16  and  C_23
REMARK    6  A    between atoms: C_23  and  C_24
REMARK                            x       y       z     vdW  Elec       q    Type
REMARK                         _______ _______ _______ _____ _____    ______ ____
ROOT
ATOM      1  O   UNL A   1     -23.392  -0.812  28.175  0.00  0.00    -0.474 OA
ENDROOT
BRANCH   1   2
ATOM      2  C   UNL A   1     -23.906   0.152  27.363  0.00  0.00    +0.149 A 
ATOM      3  C   UNL A   1     -24.961   0.062  26.779  0.00  0.00    +0.038 A 
ATOM      4  C   UNL A   1     -25.490   1.076  25.981  0.00  0.00    +0.003 A 
ATOM      5  C   UNL A   1     -24.781   2.337  25.879  0.00  0.00    +0.001 A 
ATOM      6  C   UNL A   1     -23.562   2.372  26.595  0.00  0.00    +0.015 A 
ATOM      7  C   UNL A   1     -23.149   1.368  27.326  0.00  0.00    +0.091 A 
ATOM      8 CL   UNL A   1     -21.637   1.678  28.175  0.00  0.00    -0.079 Cl
BRANCH   4   9
ATOM      9  C   UNL A   1     -26.770   1.031  25.227  0.00  0.00    +0.001 A 
ATOM     10  C   UNL A   1     -27.223  -0.080  24.705  0.00  0.00    +0.011 A 
ATOM     11  C   UNL A   1     -28.425  -0.088  23.922  0.00  0.00    +0.058 A 
ATOM     12  C   UNL A   1     -29.076   1.045  23.553  0.00  0.00    +0.011 A 
ATOM     13  C   UNL A   1     -27.441   2.260  24.848  0.00  0.00    +0.000 A 
ATOM     14  C   UNL A   1     -28.592   2.236  24.015  0.00  0.00    +0.001 A 
ATOM     15 CL   UNL A   1     -28.983  -1.653  23.377  0.00  0.00    -0.082 Cl
ENDBRANCH   4   9
ENDBRANCH   1   2
BRANCH   1  16
ATOM     16  C   UNL A   1     -24.170  -1.233  29.218  0.00  0.00    +0.193 C 
BRANCH  16  17
ATOM     17  C   UNL A   1     -24.742  -2.456  29.176  0.00  0.00    +0.018 A 
ATOM     18  C   UNL A   1     -25.940  -2.686  29.635  0.00  0.00    -0.001 A 
ATOM     19  C   UNL A   1     -26.502  -4.050  29.714  0.00  0.00    -0.000 A 
ATOM     20  C   UNL A   1     -25.669  -5.093  29.279  0.00  0.00    -0.000 A 
ATOM     21  C   UNL A   1     -24.431  -4.847  28.819  0.00  0.00    -0.000 A 
ATOM     22  C   UNL A   1     -23.911  -3.579  28.741  0.00  0.00    -0.001 A 
ENDBRANCH  16  17
BRANCH  16  23
ATOM     23  C   UNL A   1     -24.551  -0.114  29.779  0.00  0.00    +0.074 C 
BRANCH  23  24
ATOM     24  C   UNL A   1     -24.492  -0.335  31.223  0.00  0.00    -0.018 A 
ATOM     25  C   UNL A   1     -23.336  -0.998  31.753  0.00  0.00    -0.004 A 
ATOM     26  C   UNL A   1     -23.230  -1.248  33.034  0.00  0.00    -0.000 A 
ATOM     27  C   UNL A   1     -24.290  -0.792  33.949  0.00  0.00    -0.000 A 
ATOM     28  C   UNL A   1     -25.355  -0.098  33.422  0.00  0.00    -0.000 A 
ATOM     29  C   UNL A   1     -25.408   0.140  32.090  0.00  0.00    -0.004 A 
ENDBRANCH  23  24
ENDBRANCH  16  23
ENDBRANCH   1  16
TORSDOF 6
ENDMDL
ENDMDL
