REMARK  Name = outputs/IAG933/test6/raw/output_1708_IAG933_linker_design_.xyz
REMARK  9 active torsions:
REMARK  status: ('A' for Active; 'I' for Inactive)
REMARK    1  A    between atoms: C_1  and  C_2
REMARK    2  A    between atoms: C_1  and  C_8
REMARK    3  A    between atoms: C_1  and  C_34
REMARK    4  A    between atoms: C_13  and  C_37
REMARK    5  A    between atoms: C_14  and  C_15
REMARK    6  A    between atoms: C_21  and  O_22
REMARK    7  A    between atoms: O_22  and  C_23
REMARK    8  A    between atoms: C_23  and  C_24
REMARK    9  A    between atoms: C_30  and  C_44
REMARK                            x       y       z     vdW  Elec       q    Type
REMARK                         _______ _______ _______ _____ _____    ______ ____
ROOT
ATOM      1  C   UNL A   1     -27.598   2.945  29.929  0.00  0.00    +0.029 C 
ATOM      2  C   UNL A   1     -29.412   1.638  30.904  0.00  0.00    +0.013 C 
ATOM      3  C   UNL A   1     -24.948   0.898  28.609  0.00  0.00    +0.136 C 
ATOM      4  C   UNL A   1     -27.029   1.817  29.442  0.00  0.00    +0.081 C 
ATOM      5  N   UNL A   1     -25.728   1.963  29.035  0.00  0.00    -0.232 NA
ATOM      6  C   UNL A   1     -28.710   2.842  30.788  0.00  0.00    +0.059 C 
ATOM      7  C   UNL A   1     -25.630  -0.192  29.082  0.00  0.00    +0.122 C 
ATOM      8 CL   UNL A   1     -29.012   4.269  31.634  0.00  0.00    -0.082 Cl
ATOM      9  C   UNL A   1     -27.698   0.588  29.518  0.00  0.00    +0.080 C 
ATOM     10  C   UNL A   1     -28.951   0.504  30.188  0.00  0.00    +0.018 C 
ATOM     11  N   UNL A   1     -26.927  -0.451  29.029  0.00  0.00    -0.236 NA
ENDROOT
BRANCH   3  17
ATOM     12  C   UNL A   1     -22.356   1.915  26.092  0.00  0.00    -0.024 C 
ATOM     13  C   UNL A   1     -23.754   1.610  26.442  0.00  0.00    -0.020 C 
ATOM     14  N   UNL A   1     -22.038   0.413  29.334  0.00  0.00    -0.133 NA
ATOM     15  C   UNL A   1     -22.465   1.004  28.177  0.00  0.00    +0.069 C 
ATOM     16  C   UNL A   1     -21.574   1.559  27.206  0.00  0.00    +0.070 C 
ATOM     17  C   UNL A   1     -23.857   1.119  27.802  0.00  0.00    +0.008 C 
BRANCH  13  18
ATOM     18  C   UNL A   1     -25.688   1.614  26.461  0.00  0.00    +0.092 C 
ATOM     19  C   UNL A   1     -26.250   2.920  26.395  0.00  0.00    +0.059 C 
ATOM     20  C   UNL A   1     -27.438   3.091  25.645  0.00  0.00    +0.102 C 
ATOM     21  N   UNL A   1     -28.075   2.089  25.003  0.00  0.00    -0.212 NA
ATOM     22  C   UNL A   1     -27.543   0.849  25.079  0.00  0.00    +0.234 C 
ATOM     23  C   UNL A   1     -26.354   0.576  25.777  0.00  0.00    +0.244 C 
ATOM     24  F   UNL A   1     -25.860  -0.681  25.795  0.00  0.00    -0.227 F 
BRANCH  19  25
ATOM     25  C   UNL A   1     -25.642   4.093  27.123  0.00  0.00    +0.263 C 
ATOM     26  N   UNL A   1     -25.614   5.252  26.449  0.00  0.00    -0.200 NA
ATOM     27  C   UNL A   1     -25.026   6.479  26.963  0.00  0.00    +0.139 C 
ATOM     28  O   UNL A   1     -25.143   3.966  28.243  0.00  0.00    -0.269 OA
ENDBRANCH  19  25
BRANCH  22  29
ATOM     29  O   UNL A   1     -28.193  -0.208  24.477  0.00  0.00    -0.459 OA
BRANCH  29  30
ATOM     30  C   UNL A   1     -29.460   0.005  23.866  0.00  0.00    +0.242 C 
BRANCH  30  31
ATOM     31  C   UNL A   1     -30.065  -1.377  23.573  0.00  0.00    +0.229 C 
ATOM     32  O   UNL A   1     -30.729  -1.878  24.721  0.00  0.00    -0.216 OA
ENDBRANCH  30  31
ENDBRANCH  29  30
ENDBRANCH  22  29
ENDBRANCH  13  18
ENDBRANCH   3  17
BRANCH   7  33
ATOM     33  C   UNL A   1     -24.855  -1.012  30.143  0.00  0.00    +0.060 C 
BRANCH  33  34
ATOM     34  C   UNL A   1     -24.973  -2.505  29.788  0.00  0.00    -0.019 C 
ATOM     35  C   UNL A   1     -23.906  -3.173  29.146  0.00  0.00    -0.004 C 
ATOM     36  C   UNL A   1     -23.989  -4.549  28.853  0.00  0.00    -0.000 C 
ATOM     37  C   UNL A   1     -25.137  -5.280  29.205  0.00  0.00    -0.000 C 
ATOM     38  C   UNL A   1     -26.232  -4.611  29.784  0.00  0.00    -0.000 C 
ATOM     39  C   UNL A   1     -26.155  -3.232  30.065  0.00  0.00    -0.004 C 
ENDBRANCH  33  34
BRANCH  33  40
ATOM     40  C   UNL A   1     -25.387  -0.679  31.571  0.00  0.00    +0.079 C 
ATOM     41  C   UNL A   1     -25.189   0.773  32.028  0.00  0.00    +0.019 C 
ATOM     42  C   UNL A   1     -25.336   0.684  33.544  0.00  0.00    +0.020 C 
ATOM     43  C   UNL A   1     -24.829  -0.715  33.905  0.00  0.00    +0.089 C 
ATOM     44  N   UNL A   1     -24.758  -1.481  32.646  0.00  0.00    -0.219 NA
ENDBRANCH  33  40
ENDBRANCH   7  33
TORSDOF 9
