MODEL 170
MODEL 1
REMARK VINA RESULT:    -5.092      0.000      0.000
REMARK INTER + INTRA:          -8.183
REMARK INTER:                  -7.176
REMARK INTRA:                  -1.007
REMARK UNBOUND:                -1.007
REMARK  Name = No_170-gen_results/8p0m/2024-11-27-11-27-31/
REMARK  7 active torsions:
REMARK  status: ('A' for Active; 'I' for Inactive)
REMARK    1  A    between atoms: C_1  and  C_2
REMARK    2  A    between atoms: C_1  and  O_4
REMARK    3  A    between atoms: O_4  and  C_8
REMARK    4  A    between atoms: C_8  and  C_9
REMARK    5  A    between atoms: C_9  and  O_11
REMARK    6  A    between atoms: O_11  and  P_13
REMARK    7  A    between atoms: P_13  and  O_16
REMARK                            x       y       z     vdW  Elec       q    Type
REMARK                         _______ _______ _______ _____ _____    ______ ____
ROOT
ATOM      1  C   UNL A   1     -23.328   1.283  29.246  0.00  0.00    +0.334 C 
ATOM      2  O   UNL A   1     -23.379   1.958  30.547  0.00  0.00    -0.184 OA
ENDROOT
BRANCH   1   3
ATOM      3  C   UNL A   1     -22.576   0.084  29.237  0.00  0.00    +0.343 C 
ATOM      4  F   UNL A   1     -21.763  -0.022  28.346  0.00  0.00    -0.198 F 
BRANCH   3   5
ATOM      5  O   UNL A   1     -23.460  -1.014  29.145  0.00  0.00    -0.278 OA
BRANCH   5   6
ATOM      6  P   UNL A   1     -24.058  -2.103  29.030  0.00  0.00    +0.256 P 
ATOM      7  O   UNL A   1     -23.390  -3.149  28.809  0.00  0.00    -0.435 OA
ATOM      8  O   UNL A   1     -24.866  -2.270  30.387  0.00  0.00    -0.515 OA
BRANCH   6   9
ATOM      9  O   UNL A   1     -25.170  -1.784  27.995  0.00  0.00    -0.134 OA
ATOM     10  F   UNL A   1     -25.107  -1.040  27.271  0.00  0.00    -0.041 F 
ENDBRANCH   6   9
ENDBRANCH   5   6
ENDBRANCH   3   5
ENDBRANCH   1   3
BRANCH   1  11
ATOM     11  O   UNL A   1     -22.938   2.133  28.312  0.00  0.00    -0.289 OA
BRANCH  11  12
ATOM     12  C   UNL A   1     -23.607   2.520  27.230  0.00  0.00    +0.376 C 
ATOM     13  F   UNL A   1     -24.920   1.861  27.396  0.00  0.00    -0.194 F 
BRANCH  12  14
ATOM     14  C   UNL A   1     -23.120   2.227  26.163  0.00  0.00    +0.456 C 
ATOM     15  F   UNL A   1     -23.583   1.188  25.683  0.00  0.00    -0.165 F 
ATOM     16  F   UNL A   1     -23.190   3.207  25.188  0.00  0.00    -0.165 F 
ATOM     17  F   UNL A   1     -21.719   2.018  26.213  0.00  0.00    -0.165 F 
ENDBRANCH  12  14
ENDBRANCH  11  12
ENDBRANCH   1  11
TORSDOF 7
ENDMDL
ENDMDL
