REMARK  Name = outputs/IAG933/test6/raw/output_171_IAG933_linker_design_.xyz
REMARK  16 active torsions:
REMARK  status: ('A' for Active; 'I' for Inactive)
REMARK    1  A    between atoms: C_1  and  C_2
REMARK    2  A    between atoms: C_1  and  C_8
REMARK    3  A    between atoms: C_1  and  C_47
REMARK    4  A    between atoms: C_13  and  C_41
REMARK    5  A    between atoms: C_14  and  C_15
REMARK    6  A    between atoms: C_21  and  O_22
REMARK    7  A    between atoms: O_22  and  C_23
REMARK    8  A    between atoms: C_23  and  C_24
REMARK    9  A    between atoms: O_34  and  C_48
REMARK   10  A    between atoms: O_34  and  C_49
REMARK   11  A    between atoms: C_35  and  C_41
REMARK   12  A    between atoms: C_35  and  C_47
REMARK   13  A    between atoms: C_36  and  C_43
REMARK   14  A    between atoms: O_37  and  C_47
REMARK   15  A    between atoms: O_37  and  C_48
REMARK   16  A    between atoms: C_41  and  C_43
REMARK                            x       y       z     vdW  Elec       q    Type
REMARK                         _______ _______ _______ _____ _____    ______ ____
ROOT
ATOM      1  C   UNL A   1     -25.064   0.299  29.276  0.00  0.00    +0.124 C 
ENDROOT
BRANCH   1   2
ATOM      2  C   UNL A   1     -24.855  -1.012  30.143  0.00  0.00    +0.066 C 
BRANCH   2   3
ATOM      3  C   UNL A   1     -24.973  -2.505  29.788  0.00  0.00    -0.019 C 
ATOM      4  C   UNL A   1     -23.906  -3.173  29.146  0.00  0.00    -0.004 C 
ATOM      5  C   UNL A   1     -23.989  -4.549  28.853  0.00  0.00    -0.000 C 
ATOM      6  C   UNL A   1     -25.137  -5.280  29.205  0.00  0.00    -0.000 C 
ATOM      7  C   UNL A   1     -26.232  -4.611  29.784  0.00  0.00    -0.000 C 
ATOM      8  C   UNL A   1     -26.155  -3.232  30.065  0.00  0.00    -0.004 C 
ENDBRANCH   2   3
BRANCH   2   9
ATOM      9  C   UNL A   1     -25.387  -0.679  31.571  0.00  0.00    +0.079 C 
ATOM     10  C   UNL A   1     -25.189   0.773  32.028  0.00  0.00    +0.019 C 
ATOM     11  C   UNL A   1     -25.336   0.684  33.544  0.00  0.00    +0.020 C 
ATOM     12  C   UNL A   1     -24.829  -0.715  33.905  0.00  0.00    +0.089 C 
ATOM     13  N   UNL A   1     -24.758  -1.481  32.646  0.00  0.00    -0.219 NA
ENDBRANCH   2   9
ENDBRANCH   1   2
BRANCH   1  14
ATOM     14  C   UNL A   1     -24.674  -0.070  27.929  0.00  0.00    +0.042 C 
BRANCH  14  15
ATOM     15  C   UNL A   1     -24.608   1.161  27.215  0.00  0.00    +0.088 C 
BRANCH  15  16
ATOM     16  C   UNL A   1     -25.688   1.614  26.461  0.00  0.00    +0.023 C 
ATOM     17  C   UNL A   1     -26.250   2.920  26.395  0.00  0.00    +0.073 C 
ATOM     18  C   UNL A   1     -27.438   3.091  25.645  0.00  0.00    +0.106 C 
ATOM     19  N   UNL A   1     -28.075   2.089  25.003  0.00  0.00    -0.208 NA
ATOM     20  C   UNL A   1     -27.543   0.849  25.079  0.00  0.00    +0.253 C 
ATOM     21  C   UNL A   1     -26.354   0.576  25.777  0.00  0.00    +0.190 C 
ATOM     22  F   UNL A   1     -25.860  -0.681  25.795  0.00  0.00    -0.200 F 
BRANCH  17  23
ATOM     23  C   UNL A   1     -25.642   4.093  27.123  0.00  0.00    +0.266 C 
ATOM     24  N   UNL A   1     -25.614   5.252  26.449  0.00  0.00    -0.200 NA
ATOM     25  C   UNL A   1     -25.026   6.479  26.963  0.00  0.00    +0.139 C 
ATOM     26  O   UNL A   1     -25.143   3.966  28.243  0.00  0.00    -0.268 OA
ENDBRANCH  17  23
BRANCH  20  27
ATOM     27  O   UNL A   1     -28.193  -0.208  24.477  0.00  0.00    -0.456 OA
BRANCH  27  28
ATOM     28  C   UNL A   1     -29.460   0.005  23.866  0.00  0.00    +0.243 C 
BRANCH  28  29
ATOM     29  C   UNL A   1     -30.065  -1.377  23.573  0.00  0.00    +0.229 C 
ATOM     30  O   UNL A   1     -30.729  -1.878  24.721  0.00  0.00    -0.216 OA
ENDBRANCH  28  29
ENDBRANCH  27  28
ENDBRANCH  20  27
ENDBRANCH  15  16
BRANCH  15  32
ATOM     31  O   UNL A   1     -22.963   2.608  26.418  0.00  0.00    -0.293 OA
ATOM     32  C   UNL A   1     -23.302   1.721  27.231  0.00  0.00    +0.187 C 
BRANCH  32  34
ATOM     33  C   UNL A   1     -22.185  -0.121  28.968  0.00  0.00    +0.046 C 
ATOM     34  C   UNL A   1     -22.208   1.118  28.078  0.00  0.00    +0.218 C 
ATOM     35  F   UNL A   1     -20.938   1.582  27.951  0.00  0.00    -0.229 F 
ENDBRANCH  32  34
ENDBRANCH  15  32
ENDBRANCH  14  15
ENDBRANCH   1  14
BRANCH   1  36
ATOM     36  O   UNL A   1     -25.655   1.405  29.754  0.00  0.00    -0.329 OA
BRANCH  36  37
ATOM     37  C   UNL A   1     -27.004   1.546  29.738  0.00  0.00    +0.294 C 
BRANCH  37  38
ATOM     38  O   UNL A   1     -27.602   0.317  29.547  0.00  0.00    -0.328 OA
BRANCH  38  49
ATOM     39  C   UNL A   1     -29.826  -4.996  31.026  0.00  0.00    +0.090 C 
ATOM     40  C   UNL A   1     -30.589  -1.269  30.992  0.00  0.00    +0.076 C 
ATOM     41  C   UNL A   1     -32.104  -4.053  30.410  0.00  0.00    +0.074 C 
ATOM     42  N   UNL A   1     -30.908  -4.039  31.235  0.00  0.00    -0.270 NA
ATOM     43  C   UNL A   1     -32.373  -2.713  29.712  0.00  0.00    +0.035 C 
ATOM     44  C   UNL A   1     -31.131  -2.386  28.909  0.00  0.00    +0.074 C 
ATOM     45  C   UNL A   1     -29.683  -0.560  29.014  0.00  0.00    +0.102 C 
ATOM     46  N   UNL A   1     -30.229  -1.634  29.687  0.00  0.00    -0.271 NA
ATOM     47  C   UNL A   1     -29.593  -0.180  31.275  0.00  0.00    +0.048 C 
ATOM     48  C   UNL A   1     -30.537  -2.668  31.819  0.00  0.00    +0.088 C 
ATOM     49  C   UNL A   1     -28.988   0.253  29.963  0.00  0.00    +0.135 C 
ENDBRANCH  38  49
ENDBRANCH  37  38
ENDBRANCH  36  37
ENDBRANCH   1  36
TORSDOF 16
