REMARK  Name = outputs/IAG933/test6/raw/output_1710_IAG933_linker_design_.xyz
REMARK  9 active torsions:
REMARK  status: ('A' for Active; 'I' for Inactive)
REMARK    1  A    between atoms: C_1  and  C_2
REMARK    2  A    between atoms: C_1  and  C_8
REMARK    3  A    between atoms: C_1  and  C_29
REMARK    4  A    between atoms: C_13  and  C_34
REMARK    5  A    between atoms: C_14  and  C_15
REMARK    6  A    between atoms: C_21  and  O_22
REMARK    7  A    between atoms: O_22  and  C_23
REMARK    8  A    between atoms: C_23  and  C_24
REMARK    9  A    between atoms: C_35  and  C_37
REMARK                            x       y       z     vdW  Elec       q    Type
REMARK                         _______ _______ _______ _____ _____    ______ ____
ROOT
ATOM      1  C   UNL A   1     -24.321  -0.023  29.147  0.00  0.00    +0.124 C 
ATOM      2  C   UNL A   1     -21.715   1.661  27.773  0.00  0.00    +0.047 C 
ATOM      3  C   UNL A   1     -23.186   1.325  27.385  0.00  0.00    +0.159 C 
ATOM      4 CL   UNL A   1     -22.936   2.170  25.579  0.00  0.00    -0.086 Cl
ATOM      5  C   UNL A   1     -24.697   1.387  27.520  0.00  0.00    +0.052 C 
ATOM      6  C   UNL A   1     -25.639   0.178  28.259  0.00  0.00    +0.062 C 
ATOM      7  O   UNL A   1     -23.195   0.113  28.267  0.00  0.00    -0.346 OA
ENDROOT
BRANCH   5   8
ATOM      8  C   UNL A   1     -25.688   1.614  26.461  0.00  0.00    +0.074 C 
ATOM      9  C   UNL A   1     -26.250   2.920  26.395  0.00  0.00    +0.055 C 
ATOM     10  C   UNL A   1     -27.438   3.091  25.645  0.00  0.00    +0.102 C 
ATOM     11  N   UNL A   1     -28.075   2.089  25.003  0.00  0.00    -0.212 NA
ATOM     12  C   UNL A   1     -27.543   0.849  25.079  0.00  0.00    +0.234 C 
ATOM     13  C   UNL A   1     -26.354   0.576  25.777  0.00  0.00    +0.240 C 
ATOM     14  F   UNL A   1     -25.860  -0.681  25.795  0.00  0.00    -0.227 F 
BRANCH   9  15
ATOM     15  C   UNL A   1     -25.642   4.093  27.123  0.00  0.00    +0.262 C 
ATOM     16  N   UNL A   1     -25.614   5.252  26.449  0.00  0.00    -0.200 NA
ATOM     17  C   UNL A   1     -25.026   6.479  26.963  0.00  0.00    +0.139 C 
ATOM     18  O   UNL A   1     -25.143   3.966  28.243  0.00  0.00    -0.269 OA
ENDBRANCH   9  15
BRANCH  12  19
ATOM     19  O   UNL A   1     -28.193  -0.208  24.477  0.00  0.00    -0.459 OA
BRANCH  19  20
ATOM     20  C   UNL A   1     -29.460   0.005  23.866  0.00  0.00    +0.242 C 
BRANCH  20  21
ATOM     21  C   UNL A   1     -30.065  -1.377  23.573  0.00  0.00    +0.229 C 
ATOM     22  O   UNL A   1     -30.729  -1.878  24.721  0.00  0.00    -0.216 OA
ENDBRANCH  20  21
ENDBRANCH  19  20
ENDBRANCH  12  19
ENDBRANCH   5   8
BRANCH   6  25
ATOM     23  O   UNL A   1     -29.074  -0.251  29.061  0.00  0.00    -0.220 OA
ATOM     24  C   UNL A   1     -28.943   1.107  29.672  0.00  0.00    +0.185 C 
ATOM     25  C   UNL A   1     -26.922   0.261  28.771  0.00  0.00    +0.157 C 
ATOM     26  O   UNL A   1     -27.756  -0.714  28.701  0.00  0.00    -0.223 OA
ATOM     27  C   UNL A   1     -27.430   1.446  29.596  0.00  0.00    +0.069 C 
ENDBRANCH   6  25
BRANCH   1  28
ATOM     28  C   UNL A   1     -24.855  -1.012  30.143  0.00  0.00    +0.066 C 
BRANCH  28  29
ATOM     29  C   UNL A   1     -24.973  -2.505  29.788  0.00  0.00    -0.019 C 
ATOM     30  C   UNL A   1     -23.906  -3.173  29.146  0.00  0.00    -0.004 C 
ATOM     31  C   UNL A   1     -23.989  -4.549  28.853  0.00  0.00    -0.000 C 
ATOM     32  C   UNL A   1     -25.137  -5.280  29.205  0.00  0.00    -0.000 C 
ATOM     33  C   UNL A   1     -26.232  -4.611  29.784  0.00  0.00    -0.000 C 
ATOM     34  C   UNL A   1     -26.155  -3.232  30.065  0.00  0.00    -0.004 C 
ENDBRANCH  28  29
BRANCH  28  35
ATOM     35  C   UNL A   1     -25.387  -0.679  31.571  0.00  0.00    +0.079 C 
ATOM     36  C   UNL A   1     -25.189   0.773  32.028  0.00  0.00    +0.019 C 
ATOM     37  C   UNL A   1     -25.336   0.684  33.544  0.00  0.00    +0.020 C 
ATOM     38  C   UNL A   1     -24.829  -0.715  33.905  0.00  0.00    +0.089 C 
ATOM     39  N   UNL A   1     -24.758  -1.481  32.646  0.00  0.00    -0.219 NA
ENDBRANCH  28  35
ENDBRANCH   1  28
TORSDOF 9
