MODEL 1711
MODEL 1
REMARK VINA RESULT:    -5.251      0.000      0.000
REMARK INTER + INTRA:          -5.617
REMARK INTER:                  -5.558
REMARK INTRA:                  -0.059
REMARK UNBOUND:                -0.059
REMARK  Name = No_1711-gen_results/8p0m/2024-11-27-11-27-31/
REMARK  1 active torsions:
REMARK  status: ('A' for Active; 'I' for Inactive)
REMARK    1  A    between atoms: C_1  and  C_7
REMARK                            x       y       z     vdW  Elec       q    Type
REMARK                         _______ _______ _______ _____ _____    ______ ____
ROOT
ATOM      1  C   UNL A   1     -24.475  -2.729  29.050  0.00  0.00    +0.055 A 
ATOM      2  C   UNL A   1     -23.925  -3.715  28.617  0.00  0.00    +0.005 A 
ATOM      3  C   UNL A   1     -24.419  -4.996  28.771  0.00  0.00    +0.000 A 
ATOM      4  C   UNL A   1     -25.664  -5.155  29.442  0.00  0.00    +0.000 A 
ATOM      5  C   UNL A   1     -26.321  -4.014  29.755  0.00  0.00    +0.000 A 
ATOM      6  C   UNL A   1     -25.789  -2.827  29.534  0.00  0.00    +0.005 A 
ENDROOT
BRANCH   1   7
ATOM      7  C   UNL A   1     -23.869  -1.366  28.826  0.00  0.00    +0.265 C 
ATOM      8  O   UNL A   1     -24.322  -0.675  27.923  0.00  0.00    -0.268 OA
ATOM      9  N   UNL A   1     -22.548  -1.144  29.213  0.00  0.00    -0.200 NA
ATOM     10  C   UNL A   1     -21.876   0.028  28.753  0.00  0.00    +0.139 C 
ENDBRANCH   1   7
TORSDOF 1
ENDMDL
ENDMDL
