MODEL 1712
MODEL 1
REMARK VINA RESULT:    -6.166      0.000      0.000
REMARK INTER + INTRA:          -8.408
REMARK INTER:                  -7.968
REMARK INTRA:                  -0.440
REMARK UNBOUND:                -0.440
REMARK  Name = No_1712-gen_results/8p0m/2024-11-27-11-27-31/
REMARK  5 active torsions:
REMARK  status: ('A' for Active; 'I' for Inactive)
REMARK    1  A    between atoms: C_6  and  N_12
REMARK    2  A    between atoms: C_10  and  C_13
REMARK    3  A    between atoms: N_12  and  C_18
REMARK    4  A    between atoms: C_13  and  C_14
REMARK    5  A    between atoms: C_14  and  C_15
REMARK                            x       y       z     vdW  Elec       q    Type
REMARK                         _______ _______ _______ _____ _____    ______ ____
ROOT
ATOM      1  O   UNL A   1     -26.783 -12.728  33.218  0.00  0.00    -0.268 OA
ATOM      2  C   UNL A   1     -27.297 -11.718  33.395  0.00  0.00    +0.266 C 
ATOM      3  C   UNL A   1     -28.129 -11.251  32.376  0.00  0.00    +0.051 A 
ATOM      4  N   UNL A   1     -27.150 -10.985  34.521  0.00  0.00    -0.181 NA
ATOM      5  C   UNL A   1     -28.943 -10.264  32.467  0.00  0.00    -0.014 A 
ATOM      6  C   UNL A   1     -27.919  -9.814  34.671  0.00  0.00    +0.191 C 
ATOM      7  C   UNL A   1     -29.890  -9.802  31.398  0.00  0.00    -0.004 A 
ATOM      8  C   UNL A   1     -28.785  -9.441  33.669  0.00  0.00    +0.070 C 
ATOM      9  C   UNL A   1     -30.033 -10.523  30.380  0.00  0.00    -0.005 A 
ATOM     10  C   UNL A   1     -29.182 -11.724  30.178  0.00  0.00    -0.022 A 
ATOM     11  C   UNL A   1     -28.275 -12.113  31.110  0.00  0.00    -0.000 A 
ENDROOT
BRANCH   6  12
ATOM     12  N   UNL A   1     -27.734  -9.170  35.828  0.00  0.00    -0.216 NA
BRANCH  12  13
ATOM     13  C   UNL A   1     -27.334  -8.205  36.159  0.00  0.00    +0.082 C 
ATOM     14  C   UNL A   1     -28.075  -6.984  36.308  0.00  0.00    +0.019 C 
ENDBRANCH  12  13
ENDBRANCH   6  12
BRANCH  10  15
ATOM     15  C   UNL A   1     -29.371 -12.493  28.896  0.00  0.00    +0.031 C 
BRANCH  15  16
ATOM     16  C   UNL A   1     -28.971 -12.014  27.664  0.00  0.00    +0.030 C 
BRANCH  16  17
ATOM     17  C   UNL A   1     -29.903 -11.836  26.586  0.00  0.00    -0.030 C 
ATOM     18  C   UNL A   1     -30.036 -12.945  25.695  0.00  0.00    -0.030 C 
ATOM     19  C   UNL A   1     -31.092 -12.796  24.748  0.00  0.00    +0.030 C 
ENDBRANCH  16  17
ENDBRANCH  15  16
ENDBRANCH  10  15
TORSDOF 5
ENDMDL
ENDMDL
