REMARK  Name = outputs/IAG933/test6/raw/output_1712_IAG933_linker_design_.xyz
REMARK  11 active torsions:
REMARK  status: ('A' for Active; 'I' for Inactive)
REMARK    1  A    between atoms: C_1  and  C_2
REMARK    2  A    between atoms: C_1  and  C_8
REMARK    3  A    between atoms: C_1  and  C_32
REMARK    4  A    between atoms: C_13  and  C_33
REMARK    5  A    between atoms: C_14  and  C_15
REMARK    6  A    between atoms: C_21  and  O_22
REMARK    7  A    between atoms: O_22  and  C_23
REMARK    8  A    between atoms: C_23  and  C_24
REMARK    9  A    between atoms: C_32  and  C_42
REMARK   10  A    between atoms: N_37  and  C_41
REMARK   11  A    between atoms: O_40  and  C_41
REMARK                            x       y       z     vdW  Elec       q    Type
REMARK                         _______ _______ _______ _____ _____    ______ ____
ROOT
ATOM      1  F   UNL A   1     -21.605   2.443  25.253  0.00  0.00    -0.222 F 
ATOM      2  C   UNL A   1     -23.486   1.570  26.133  0.00  0.00    +0.212 C 
ATOM      3  F   UNL A   1     -23.736   1.493  24.758  0.00  0.00    -0.233 F 
ATOM      4  C   UNL A   1     -24.412   1.307  26.953  0.00  0.00    +0.087 C 
ATOM      5  C   UNL A   1     -22.823   1.032  28.791  0.00  0.00    +0.166 C 
ATOM      6  S   UNL A   1     -21.564   1.811  27.847  0.00  0.00    -0.048 S 
ATOM      7  C   UNL A   1     -22.269   1.960  26.317  0.00  0.00    +0.247 C 
ATOM      8  F   UNL A   1     -22.389   0.542  30.001  0.00  0.00    -0.198 F 
ATOM      9  C   UNL A   1     -24.122   0.817  28.316  0.00  0.00    +0.030 C 
ENDROOT
BRANCH   4  10
ATOM     10  C   UNL A   1     -25.688   1.614  26.461  0.00  0.00    +0.023 C 
ATOM     11  C   UNL A   1     -26.250   2.920  26.395  0.00  0.00    +0.073 C 
ATOM     12  C   UNL A   1     -27.438   3.091  25.645  0.00  0.00    +0.106 C 
ATOM     13  N   UNL A   1     -28.075   2.089  25.003  0.00  0.00    -0.208 NA
ATOM     14  C   UNL A   1     -27.543   0.849  25.079  0.00  0.00    +0.253 C 
ATOM     15  C   UNL A   1     -26.354   0.576  25.777  0.00  0.00    +0.190 C 
ATOM     16  F   UNL A   1     -25.860  -0.681  25.795  0.00  0.00    -0.200 F 
BRANCH  11  17
ATOM     17  C   UNL A   1     -25.642   4.093  27.123  0.00  0.00    +0.266 C 
ATOM     18  N   UNL A   1     -25.614   5.252  26.449  0.00  0.00    -0.200 NA
ATOM     19  C   UNL A   1     -25.026   6.479  26.963  0.00  0.00    +0.139 C 
ATOM     20  O   UNL A   1     -25.143   3.966  28.243  0.00  0.00    -0.268 OA
ENDBRANCH  11  17
BRANCH  14  21
ATOM     21  O   UNL A   1     -28.193  -0.208  24.477  0.00  0.00    -0.456 OA
BRANCH  21  22
ATOM     22  C   UNL A   1     -29.460   0.005  23.866  0.00  0.00    +0.243 C 
BRANCH  22  23
ATOM     23  C   UNL A   1     -30.065  -1.377  23.573  0.00  0.00    +0.229 C 
ATOM     24  O   UNL A   1     -30.729  -1.878  24.721  0.00  0.00    -0.216 OA
ENDBRANCH  22  23
ENDBRANCH  21  22
ENDBRANCH  14  21
ENDBRANCH   4  10
BRANCH   9  25
ATOM     25  C   UNL A   1     -25.124   0.175  29.163  0.00  0.00    +0.059 C 
ATOM     26  N   UNL A   1     -26.365   0.690  29.176  0.00  0.00    -0.147 NA
BRANCH  26  28
ATOM     27  O   UNL A   1     -28.043   1.580  30.377  0.00  0.00    -0.224 OA
ATOM     28  C   UNL A   1     -27.554   0.609  29.742  0.00  0.00    +0.425 C 
BRANCH  28  30
ATOM     29  C   UNL A   1     -29.519   0.005  28.703  0.00  0.00    +0.257 C 
ATOM     30  O   UNL A   1     -28.338  -0.487  29.357  0.00  0.00    -0.429 OA
ENDBRANCH  28  30
ENDBRANCH  26  28
BRANCH  25  31
ATOM     31  C   UNL A   1     -24.855  -1.012  30.143  0.00  0.00    +0.076 C 
BRANCH  31  32
ATOM     32  C   UNL A   1     -24.973  -2.505  29.788  0.00  0.00    -0.016 C 
ATOM     33  C   UNL A   1     -23.906  -3.173  29.146  0.00  0.00    -0.004 C 
ATOM     34  C   UNL A   1     -23.989  -4.549  28.853  0.00  0.00    -0.000 C 
ATOM     35  C   UNL A   1     -25.137  -5.280  29.205  0.00  0.00    -0.000 C 
ATOM     36  C   UNL A   1     -26.232  -4.611  29.784  0.00  0.00    -0.000 C 
ATOM     37  C   UNL A   1     -26.155  -3.232  30.065  0.00  0.00    -0.004 C 
ENDBRANCH  31  32
BRANCH  31  38
ATOM     38  C   UNL A   1     -25.387  -0.679  31.571  0.00  0.00    +0.082 C 
ATOM     39  C   UNL A   1     -25.189   0.773  32.028  0.00  0.00    +0.020 C 
ATOM     40  C   UNL A   1     -25.336   0.684  33.544  0.00  0.00    +0.020 C 
ATOM     41  C   UNL A   1     -24.829  -0.715  33.905  0.00  0.00    +0.089 C 
ATOM     42  N   UNL A   1     -24.758  -1.481  32.646  0.00  0.00    -0.219 NA
ENDBRANCH  31  38
ENDBRANCH  25  31
ENDBRANCH   9  25
TORSDOF 11
