MODEL 1713
MODEL 1
REMARK VINA RESULT:    -5.922      0.000      0.000
REMARK INTER + INTRA:          -6.415
REMARK INTER:                  -6.268
REMARK INTRA:                  -0.147
REMARK UNBOUND:                -0.147
REMARK  Name = No_1713-gen_results/8p0m/2024-11-27-11-27-31/
REMARK  1 active torsions:
REMARK  status: ('A' for Active; 'I' for Inactive)
REMARK    1  A    between atoms: C_5  and  C_12
REMARK                            x       y       z     vdW  Elec       q    Type
REMARK                         _______ _______ _______ _____ _____    ______ ____
ROOT
ATOM      1  N   UNL A   1     -21.995  -0.744  30.075  0.00  0.00    -0.234 NA
ATOM      2  C   UNL A   1     -22.321  -0.091  29.082  0.00  0.00    +0.079 A 
ATOM      3  C   UNL A   1     -21.396   0.741  28.475  0.00  0.00    +0.017 A 
ATOM      4  C   UNL A   1     -21.640   1.584  27.293  0.00  0.00    +0.005 A 
ATOM      5  C   UNL A   1     -22.950   1.501  26.745  0.00  0.00    +0.073 A 
ATOM      6  C   UNL A   1     -23.872   0.607  27.355  0.00  0.00    +0.020 A 
ATOM      7  C   UNL A   1     -23.575  -0.150  28.441  0.00  0.00    +0.063 A 
ATOM      8  C   UNL A   1     -22.957  -0.724  31.041  0.00  0.00    +0.134 C 
ATOM      9  C   UNL A   1     -24.088  -1.398  30.713  0.00  0.00    +0.114 C 
ATOM     10  N   UNL A   1     -24.619  -0.762  29.429  0.00  0.00    -0.303 N 
ATOM     11  C   UNL A   1     -25.939  -0.869  28.903  0.00  0.00    +0.112 C 
ENDROOT
BRANCH   5  12
ATOM     12  C   UNL A   1     -23.215   2.210  25.514  0.00  0.00    +0.419 C 
ATOM     13  F   UNL A   1     -23.884   3.244  25.588  0.00  0.00    -0.166 F 
ATOM     14  F   UNL A   1     -23.928   1.436  24.623  0.00  0.00    -0.166 F 
ATOM     15  F   UNL A   1     -22.116   2.566  24.808  0.00  0.00    -0.166 F 
ENDBRANCH   5  12
TORSDOF 1
ENDMDL
ENDMDL
