REMARK  Name = No_1713-gen_results/8p0m/2024-11-27-11-27-31/
REMARK  1 active torsions:
REMARK  status: ('A' for Active; 'I' for Inactive)
REMARK    1  A    between atoms: C_5  and  C_12
REMARK                            x       y       z     vdW  Elec       q    Type
REMARK                         _______ _______ _______ _____ _____    ______ ____
ROOT
ATOM      1  N   UNL A   1     -28.054  -1.050  28.725  0.00  0.00    -0.234 NA
ATOM      2  C   UNL A   1     -26.966  -0.472  28.771  0.00  0.00    +0.079 A 
ATOM      3  C   UNL A   1     -25.929  -1.020  29.506  0.00  0.00    +0.017 A 
ATOM      4  C   UNL A   1     -24.584  -0.444  29.660  0.00  0.00    +0.005 A 
ATOM      5  C   UNL A   1     -24.361   0.779  28.969  0.00  0.00    +0.073 A 
ATOM      6  C   UNL A   1     -25.424   1.303  28.183  0.00  0.00    +0.020 A 
ATOM      7  C   UNL A   1     -26.640   0.711  28.078  0.00  0.00    +0.063 A 
ATOM      8  C   UNL A   1     -29.100  -0.186  28.860  0.00  0.00    +0.134 C 
ATOM      9  C   UNL A   1     -29.268   0.653  27.807  0.00  0.00    +0.114 C 
ATOM     10  N   UNL A   1     -27.961   1.431  27.656  0.00  0.00    -0.303 N 
ATOM     11  C   UNL A   1     -27.769   2.653  26.950  0.00  0.00    +0.112 C 
ENDROOT
BRANCH   5  12
ATOM     12  C   UNL A   1     -23.025   1.330  28.982  0.00  0.00    +0.419 C 
ATOM     13  F   UNL A   1     -22.451   1.398  30.072  0.00  0.00    -0.166 F 
ATOM     14  F   UNL A   1     -23.007   2.634  28.534  0.00  0.00    -0.166 F 
ATOM     15  F   UNL A   1     -22.139   0.709  28.169  0.00  0.00    -0.166 F 
ENDBRANCH   5  12
TORSDOF 1
