REMARK  Name = outputs/IAG933/test6/raw/output_1714_IAG933_linker_design_.xyz
REMARK  11 active torsions:
REMARK  status: ('A' for Active; 'I' for Inactive)
REMARK    1  A    between atoms: C_1  and  C_2
REMARK    2  A    between atoms: C_1  and  C_8
REMARK    3  A    between atoms: C_1  and  C_30
REMARK    4  A    between atoms: C_13  and  C_31
REMARK    5  A    between atoms: C_14  and  C_15
REMARK    6  A    between atoms: C_21  and  O_22
REMARK    7  A    between atoms: O_22  and  C_23
REMARK    8  A    between atoms: C_23  and  C_24
REMARK    9  A    between atoms: C_30  and  O_37
REMARK   10  A    between atoms: C_30  and  C_44
REMARK   11  A    between atoms: C_36  and  O_37
REMARK                            x       y       z     vdW  Elec       q    Type
REMARK                         _______ _______ _______ _____ _____    ______ ____
ROOT
ATOM      1  C   UNL A   1     -25.694  -0.071  29.185  0.00  0.00    +0.129 C 
ENDROOT
BRANCH   1   8
ATOM      2 CL   UNL A   1     -22.724   1.948  25.110  0.00  0.00    -0.083 Cl
ATOM      3  C   UNL A   1     -24.570   1.192  27.141  0.00  0.00    -0.003 C 
ATOM      4  C   UNL A   1     -20.870   1.300  27.569  0.00  0.00    +0.032 C 
ATOM      5  C   UNL A   1     -23.249   1.554  26.569  0.00  0.00    +0.050 C 
ATOM      6  C   UNL A   1     -22.398   1.080  27.771  0.00  0.00    -0.015 C 
ATOM      7  C   UNL A   1     -23.228   0.509  28.795  0.00  0.00    -0.023 C 
ATOM      8  C   UNL A   1     -24.573   0.545  28.381  0.00  0.00    +0.072 C 
BRANCH   3   9
ATOM      9  C   UNL A   1     -25.688   1.614  26.461  0.00  0.00    +0.035 C 
ATOM     10  C   UNL A   1     -26.250   2.920  26.395  0.00  0.00    +0.076 C 
ATOM     11  C   UNL A   1     -27.438   3.091  25.645  0.00  0.00    +0.107 C 
ATOM     12  N   UNL A   1     -28.075   2.089  25.003  0.00  0.00    -0.208 NA
ATOM     13  C   UNL A   1     -27.543   0.849  25.079  0.00  0.00    +0.253 C 
ATOM     14  C   UNL A   1     -26.354   0.576  25.777  0.00  0.00    +0.193 C 
ATOM     15  F   UNL A   1     -25.860  -0.681  25.795  0.00  0.00    -0.199 F 
BRANCH  10  16
ATOM     16  C   UNL A   1     -25.642   4.093  27.123  0.00  0.00    +0.266 C 
ATOM     17  N   UNL A   1     -25.614   5.252  26.449  0.00  0.00    -0.200 NA
ATOM     18  C   UNL A   1     -25.026   6.479  26.963  0.00  0.00    +0.139 C 
ATOM     19  O   UNL A   1     -25.143   3.966  28.243  0.00  0.00    -0.268 OA
ENDBRANCH  10  16
BRANCH  13  20
ATOM     20  O   UNL A   1     -28.193  -0.208  24.477  0.00  0.00    -0.456 OA
BRANCH  20  21
ATOM     21  C   UNL A   1     -29.460   0.005  23.866  0.00  0.00    +0.243 C 
BRANCH  21  22
ATOM     22  C   UNL A   1     -30.065  -1.377  23.573  0.00  0.00    +0.229 C 
ATOM     23  O   UNL A   1     -30.729  -1.878  24.721  0.00  0.00    -0.216 OA
ENDBRANCH  21  22
ENDBRANCH  20  21
ENDBRANCH  13  20
ENDBRANCH   3   9
ENDBRANCH   1   8
BRANCH   1  24
ATOM     24  C   UNL A   1     -24.855  -1.012  30.143  0.00  0.00    +0.066 C 
BRANCH  24  25
ATOM     25  C   UNL A   1     -24.973  -2.505  29.788  0.00  0.00    -0.019 C 
ATOM     26  C   UNL A   1     -23.906  -3.173  29.146  0.00  0.00    -0.004 C 
ATOM     27  C   UNL A   1     -23.989  -4.549  28.853  0.00  0.00    -0.000 C 
ATOM     28  C   UNL A   1     -25.137  -5.280  29.205  0.00  0.00    -0.000 C 
ATOM     29  C   UNL A   1     -26.232  -4.611  29.784  0.00  0.00    -0.000 C 
ATOM     30  C   UNL A   1     -26.155  -3.232  30.065  0.00  0.00    -0.004 C 
ENDBRANCH  24  25
BRANCH  24  31
ATOM     31  C   UNL A   1     -25.387  -0.679  31.571  0.00  0.00    +0.079 C 
ATOM     32  C   UNL A   1     -25.189   0.773  32.028  0.00  0.00    +0.019 C 
ATOM     33  C   UNL A   1     -25.336   0.684  33.544  0.00  0.00    +0.020 C 
ATOM     34  C   UNL A   1     -24.829  -0.715  33.905  0.00  0.00    +0.089 C 
ATOM     35  N   UNL A   1     -24.758  -1.481  32.646  0.00  0.00    -0.219 NA
ENDBRANCH  24  31
ENDBRANCH   1  24
BRANCH   1  36
ATOM     36  O   UNL A   1     -26.706   1.049  29.396  0.00  0.00    -0.355 OA
BRANCH  36  40
ATOM     37  O   UNL A   1     -29.086  -0.345  28.316  0.00  0.00    -0.221 OA
ATOM     38  C   UNL A   1     -28.152   2.275  30.954  0.00  0.00    +0.064 C 
ATOM     39  C   UNL A   1     -30.258   1.783  28.918  0.00  0.00    +0.068 C 
ATOM     40  C   UNL A   1     -27.973   0.980  30.166  0.00  0.00    +0.148 C 
ATOM     41  O   UNL A   1     -28.729   3.806  28.982  0.00  0.00    -0.354 OA
ATOM     42  C   UNL A   1     -29.580   2.918  28.169  0.00  0.00    +0.145 C 
ATOM     43  C   UNL A   1     -27.805   3.509  30.087  0.00  0.00    +0.145 C 
ATOM     44  C   UNL A   1     -29.260   0.688  29.378  0.00  0.00    +0.181 C 
ENDBRANCH  36  40
ENDBRANCH   1  36
TORSDOF 11
