MODEL 1714
MODEL 1
REMARK VINA RESULT:    -8.028      0.000      0.000
REMARK INTER + INTRA:         -11.734
REMARK INTER:                  -9.905
REMARK INTRA:                  -1.829
REMARK UNBOUND:                -1.829
REMARK  Name = No_1714-gen_results/8p0m/2024-11-27-11-27-31/
REMARK  4 active torsions:
REMARK  status: ('A' for Active; 'I' for Inactive)
REMARK    1  A    between atoms: C_3  and  C_4
REMARK    2  A    between atoms: C_4  and  O_16
REMARK    3  A    between atoms: C_5  and  C_6
REMARK    4  A    between atoms: O_16  and  C_17
REMARK                            x       y       z     vdW  Elec       q    Type
REMARK                         _______ _______ _______ _____ _____    ______ ____
ROOT
ATOM      1  C   UNL A   1     -24.573  -0.337  28.346  0.00  0.00    +0.141 C 
ATOM      2  C   UNL A   1     -24.230  -1.212  28.864  0.00  0.00    +0.013 C 
ATOM      3  C   UNL A   1     -22.777  -1.245  29.328  0.00  0.00    +0.034 C 
ENDROOT
BRANCH   1   6
ATOM      4  C   UNL A   1     -26.955   0.260  27.622  0.00  0.00    +0.003 A 
ATOM      5  C   UNL A   1     -27.541   0.482  26.774  0.00  0.00    +0.000 A 
ATOM      6  C   UNL A   1     -25.593  -0.178  27.292  0.00  0.00    +0.034 A 
ATOM      7  C   UNL A   1     -27.389   0.207  25.366  0.00  0.00    +0.000 A 
ATOM      8  C   UNL A   1     -26.164  -0.258  25.054  0.00  0.00    +0.000 A 
ATOM      9  C   UNL A   1     -25.226  -0.452  25.998  0.00  0.00    +0.003 A 
ENDBRANCH   1   6
BRANCH   2  10
ATOM     10  C   UNL A   1     -24.747  -2.404  29.124  0.00  0.00    -0.001 A 
ATOM     11  C   UNL A   1     -25.711  -2.876  29.505  0.00  0.00    -0.000 A 
ATOM     12  C   UNL A   1     -26.204  -4.258  29.596  0.00  0.00    -0.000 A 
ATOM     13  C   UNL A   1     -25.247  -5.097  29.074  0.00  0.00    -0.000 A 
ATOM     14  C   UNL A   1     -23.938  -3.664  28.557  0.00  0.00    -0.000 A 
ATOM     15  C   UNL A   1     -24.307  -4.879  28.676  0.00  0.00    -0.000 A 
ENDBRANCH   2  10
BRANCH   1  16
ATOM     16  O   UNL A   1     -24.257   0.963  28.657  0.00  0.00    -0.454 OA
BRANCH  16  17
ATOM     17  C   UNL A   1     -23.890   1.942  27.938  0.00  0.00    +0.145 A 
ATOM     18  C   UNL A   1     -22.793   1.703  27.132  0.00  0.00    +0.037 A 
ATOM     19  C   UNL A   1     -22.751   2.203  25.820  0.00  0.00    +0.003 A 
ATOM     20  C   UNL A   1     -23.565   3.293  25.491  0.00  0.00    +0.000 A 
ATOM     21  C   UNL A   1     -24.554   3.723  26.360  0.00  0.00    +0.003 A 
ATOM     22  C   UNL A   1     -24.762   2.974  27.561  0.00  0.00    +0.037 A 
ENDBRANCH  16  17
ENDBRANCH   1  16
TORSDOF 4
ENDMDL
ENDMDL
