MODEL 1715
MODEL 1
REMARK VINA RESULT:    -5.573      0.000      0.000
REMARK INTER + INTRA:          -5.998
REMARK INTER:                  -5.898
REMARK INTRA:                  -0.100
REMARK UNBOUND:                -0.100
REMARK  Name = No_1715-gen_results/8p0m/2024-11-27-11-27-31/
REMARK  1 active torsions:
REMARK  status: ('A' for Active; 'I' for Inactive)
REMARK    1  A    between atoms: C_10  and  C_11
REMARK                            x       y       z     vdW  Elec       q    Type
REMARK                         _______ _______ _______ _____ _____    ______ ____
ROOT
ATOM      1  C   UNL A   1     -10.343   2.852  11.203  0.00  0.00    +0.000 A 
ATOM      2  C   UNL A   1     -10.288   2.501  12.195  0.00  0.00    +0.000 A 
ATOM      3  C   UNL A   1      -9.502   2.247  10.243  0.00  0.00    +0.000 A 
ATOM      4  C   UNL A   1      -9.533   2.546   8.787  0.00  0.00    +0.000 A 
ATOM      5  C   UNL A   1      -9.452   1.457  12.812  0.00  0.00    +0.000 A 
ATOM      6  C   UNL A   1      -8.591   0.816  11.921  0.00  0.00    +0.000 A 
ATOM      7  C   UNL A   1      -8.623   1.157  10.607  0.00  0.00    +0.006 A 
ATOM      8  C   UNL A   1      -8.469   2.029   7.987  0.00  0.00    +0.000 A 
ATOM      9  C   UNL A   1      -7.718   0.959   8.365  0.00  0.00    +0.007 A 
ATOM     10  C   UNL A   1      -7.675   0.612   9.729  0.00  0.00    +0.080 A 
ENDROOT
BRANCH  10  11
ATOM     11  C   UNL A   1      -6.699  -0.467  10.104  0.00  0.00    +0.388 C 
ATOM     12  O   UNL A   1      -5.508  -0.137  10.485  0.00  0.00    -0.241 OA
ATOM     13  O   UNL A   1      -7.083  -1.695   9.987  0.00  0.00    -0.241 OA
ENDBRANCH  10  11
TORSDOF 1
ENDMDL
ENDMDL
