REMARK  Name = outputs/IAG933/test6/raw/output_1716_IAG933_linker_design_.xyz
REMARK  8 active torsions:
REMARK  status: ('A' for Active; 'I' for Inactive)
REMARK    1  A    between atoms: C_1  and  C_2
REMARK    2  A    between atoms: C_1  and  C_8
REMARK    3  A    between atoms: C_1  and  O_40
REMARK    4  A    between atoms: C_21  and  O_22
REMARK    5  A    between atoms: O_22  and  C_23
REMARK    6  A    between atoms: C_23  and  C_24
REMARK    7  A    between atoms: C_30  and  S_37
REMARK    8  A    between atoms: C_34  and  O_40
REMARK                            x       y       z     vdW  Elec       q    Type
REMARK                         _______ _______ _______ _____ _____    ______ ____
ROOT
ATOM      1  C   UNL A   1     -25.688   1.614  26.461  0.00  0.00    +0.021 C 
ATOM      2  C   UNL A   1     -26.250   2.920  26.395  0.00  0.00    +0.071 C 
ATOM      3  C   UNL A   1     -25.642   4.093  27.123  0.00  0.00    +0.224 C 
ATOM      4  N   UNL A   1     -25.614   5.252  26.449  0.00  0.00    -0.236 NA
ATOM      5  C   UNL A   1     -25.026   6.479  26.963  0.00  0.00    +0.155 C 
ATOM      6  O   UNL A   1     -25.143   3.966  28.243  0.00  0.00    -0.427 OA
ATOM      7  C   UNL A   1     -27.438   3.091  25.645  0.00  0.00    +0.106 C 
ATOM      8  N   UNL A   1     -28.075   2.089  25.003  0.00  0.00    -0.208 NA
ATOM      9  C   UNL A   1     -27.543   0.849  25.079  0.00  0.00    +0.253 C 
ATOM     10  C   UNL A   1     -26.354   0.576  25.777  0.00  0.00    +0.189 C 
ATOM     11  F   UNL A   1     -25.860  -0.681  25.795  0.00  0.00    -0.200 F 
ATOM     12  C   UNL A   1     -22.507   1.923  25.698  0.00  0.00    +0.160 C 
ATOM     13  N   UNL A   1     -22.480   1.327  27.997  0.00  0.00    -0.242 NA
ATOM     14  C   UNL A   1     -25.558   3.576  29.548  0.00  0.00    +0.398 C 
ATOM     15  C   UNL A   1     -21.202   2.033  27.691  0.00  0.00    +0.220 C 
ATOM     16  O   UNL A   1     -21.175   2.018  26.260  0.00  0.00    -0.336 OA
ATOM     17  C   UNL A   1     -24.726   1.226  28.704  0.00  0.00    +0.177 C 
ATOM     18  C   UNL A   1     -23.210   1.200  26.791  0.00  0.00    +0.097 C 
ATOM     19  N   UNL A   1     -25.659   2.080  29.460  0.00  0.00    -0.132 NA
ATOM     20  C   UNL A   1     -24.561   1.330  27.217  0.00  0.00    +0.084 C 
ATOM     21  C   UNL A   1     -23.224   1.795  29.093  0.00  0.00    +0.119 C 
ENDROOT
BRANCH  14  24
ATOM     22  N   UNL A   1     -27.908   2.821  30.025  0.00  0.00    +0.040 NA
ATOM     23  O   UNL A   1     -27.457   5.108  30.025  0.00  0.00    -0.150 OA
ATOM     24  S   UNL A   1     -26.917   3.856  30.482  0.00  0.00    +0.128 S 
ATOM     25  O   UNL A   1     -26.750   3.875  31.903  0.00  0.00    -0.150 OA
ENDBRANCH  14  24
BRANCH   9  26
ATOM     26  O   UNL A   1     -28.193  -0.208  24.477  0.00  0.00    -0.456 OA
BRANCH  26  27
ATOM     27  C   UNL A   1     -29.460   0.005  23.866  0.00  0.00    +0.243 C 
BRANCH  27  28
ATOM     28  C   UNL A   1     -30.065  -1.377  23.573  0.00  0.00    +0.229 C 
ATOM     29  O   UNL A   1     -30.729  -1.878  24.721  0.00  0.00    -0.216 OA
ENDBRANCH  27  28
ENDBRANCH  26  27
ENDBRANCH   9  26
BRANCH  17  30
ATOM     30  O   UNL A   1     -24.822  -0.149  29.112  0.00  0.00    -0.338 OA
BRANCH  30  31
ATOM     31  C   UNL A   1     -24.855  -1.012  30.143  0.00  0.00    +0.155 C 
BRANCH  31  32
ATOM     32  C   UNL A   1     -24.973  -2.505  29.788  0.00  0.00    +0.006 C 
ATOM     33  C   UNL A   1     -23.906  -3.173  29.146  0.00  0.00    -0.002 C 
ATOM     34  C   UNL A   1     -23.989  -4.549  28.853  0.00  0.00    -0.000 C 
ATOM     35  C   UNL A   1     -25.137  -5.280  29.205  0.00  0.00    -0.000 C 
ATOM     36  C   UNL A   1     -26.232  -4.611  29.784  0.00  0.00    -0.000 C 
ATOM     37  C   UNL A   1     -26.155  -3.232  30.065  0.00  0.00    -0.002 C 
ENDBRANCH  31  32
BRANCH  31  38
ATOM     38  C   UNL A   1     -25.387  -0.679  31.571  0.00  0.00    +0.104 C 
ATOM     39  C   UNL A   1     -25.189   0.773  32.028  0.00  0.00    +0.022 C 
ATOM     40  C   UNL A   1     -25.336   0.684  33.544  0.00  0.00    +0.020 C 
ATOM     41  C   UNL A   1     -24.829  -0.715  33.905  0.00  0.00    +0.089 C 
ATOM     42  N   UNL A   1     -24.758  -1.481  32.646  0.00  0.00    -0.217 NA
ENDBRANCH  31  38
ENDBRANCH  30  31
ENDBRANCH  17  30
TORSDOF 8
