MODEL 1716
MODEL 1
REMARK VINA RESULT:    -6.099      0.000      0.000
REMARK INTER + INTRA:          -6.099
REMARK INTER:                  -6.099
REMARK INTRA:                   0.000
REMARK UNBOUND:                 0.000
REMARK  Name = No_1716-gen_results/8p0m/2024-11-27-11-27-31/
REMARK  0 active torsions:
REMARK  status: ('A' for Active; 'I' for Inactive)
REMARK                            x       y       z     vdW  Elec       q    Type
REMARK                         _______ _______ _______ _____ _____    ______ ____
ROOT
ATOM      1  O   UNL A   1     -27.277 -10.862  34.919  0.00  0.00    -0.273 OA
ATOM      2  C   UNL A   1     -27.742 -11.085  33.895  0.00  0.00    +0.247 C 
ATOM      3  C   UNL A   1     -27.168 -12.122  33.158  0.00  0.00    +0.092 C 
ATOM      4  N   UNL A   1     -28.534 -10.234  33.246  0.00  0.00    -0.161 NA
ATOM      5  C   UNL A   1     -27.358 -12.454  31.980  0.00  0.00    +0.039 C 
ATOM      6  C   UNL A   1     -28.903 -10.547  31.913  0.00  0.00    +0.152 A 
ATOM      7  C   UNL A   1     -28.351 -11.596  31.238  0.00  0.00    +0.012 A 
ATOM      8  N   UNL A   1     -29.754  -9.696  31.335  0.00  0.00    -0.214 NA
ATOM      9  C   UNL A   1     -30.172 -10.007  30.165  0.00  0.00    +0.133 A 
ATOM     10  C   UNL A   1     -29.635 -11.081  29.433  0.00  0.00    +0.034 A 
ATOM     11  C   UNL A   1     -28.693 -11.936  29.942  0.00  0.00    +0.001 A 
ATOM     12  N   UNL A   1     -31.072  -9.159  29.539  0.00  0.00    -0.293 N 
ATOM     13  C   UNL A   1     -31.565  -8.125  30.087  0.00  0.00    +0.092 C 
ATOM     14  C   UNL A   1     -32.511  -7.382  29.393  0.00  0.00    +0.021 C 
ATOM     15  C   UNL A   1     -31.629  -9.485  28.235  0.00  0.00    +0.092 C 
ATOM     16  C   UNL A   1     -32.479  -8.772  27.561  0.00  0.00    +0.021 C 
ATOM     17  C   UNL A   1     -32.975  -7.658  28.182  0.00  0.00    +0.004 C 
ENDROOT
TORSDOF 0
ENDMDL
ENDMDL
