MODEL 1718
MODEL 1
REMARK VINA RESULT:    -5.991      0.000      0.000
REMARK INTER + INTRA:          -7.117
REMARK INTER:                  -6.691
REMARK INTRA:                  -0.425
REMARK UNBOUND:                -0.425
REMARK  Name = No_1718-gen_results/8p0m/2024-11-27-11-27-31/
REMARK  2 active torsions:
REMARK  status: ('A' for Active; 'I' for Inactive)
REMARK    1  A    between atoms: C_6  and  C_8
REMARK    2  A    between atoms: N_9  and  C_11
REMARK                            x       y       z     vdW  Elec       q    Type
REMARK                         _______ _______ _______ _____ _____    ______ ____
ROOT
ATOM      1  C   UNL A   1     -29.867 -14.727  12.160  0.00  0.00    +0.269 C 
ATOM      2  N   UNL A   1     -29.642 -13.576  12.319  0.00  0.00    -0.175 NA
ATOM      3  O   UNL A   1     -29.713 -15.612  13.025  0.00  0.00    -0.268 OA
ENDROOT
BRANCH   1   9
ATOM      4  C   UNL A   1     -31.981 -15.477   9.116  0.00  0.00    +0.007 A 
ATOM      5  C   UNL A   1     -31.156 -15.926   8.354  0.00  0.00    +0.035 A 
ATOM      6  C   UNL A   1     -29.836 -16.039   8.646  0.00  0.00    +0.007 A 
ATOM      7  C   UNL A   1     -29.392 -15.610   9.911  0.00  0.00    +0.005 A 
ATOM      8  C   UNL A   1     -31.614 -15.108  10.460  0.00  0.00    +0.005 A 
ATOM      9  C   UNL A   1     -30.295 -15.176  10.793  0.00  0.00    +0.055 A 
ATOM     10 BR   UNL A   1     -31.847 -16.588   6.740  0.00  0.00    -0.049 Br
ENDBRANCH   1   9
BRANCH   2  11
ATOM     11  C   UNL A   1     -29.847 -12.423  11.429  0.00  0.00    +0.074 A 
ATOM     12  C   UNL A   1     -29.110 -11.907  10.713  0.00  0.00    +0.017 A 
ATOM     13  C   UNL A   1     -29.313 -10.632   9.956  0.00  0.00    +0.001 A 
ATOM     14  C   UNL A   1     -30.487  -9.946  10.231  0.00  0.00    +0.000 A 
ATOM     15  C   UNL A   1     -31.083 -11.672  11.783  0.00  0.00    +0.017 A 
ATOM     16  C   UNL A   1     -31.331 -10.485  11.179  0.00  0.00    +0.001 A 
ENDBRANCH   2  11
TORSDOF 2
ENDMDL
ENDMDL
