MODEL 1719
MODEL 1
REMARK VINA RESULT:    -4.262      0.000      0.000
REMARK INTER + INTRA:          -4.262
REMARK INTER:                  -4.262
REMARK INTRA:                   0.000
REMARK UNBOUND:                 0.000
REMARK  Name = No_1719-gen_results/8p0m/2024-11-27-11-27-31/
REMARK  0 active torsions:
REMARK  status: ('A' for Active; 'I' for Inactive)
REMARK                            x       y       z     vdW  Elec       q    Type
REMARK                         _______ _______ _______ _____ _____    ______ ____
ROOT
ATOM      1  C   UNL A   1     -24.943  -5.378  28.948  0.00  0.00    +0.000 A 
ATOM      2  C   UNL A   1     -24.149  -4.728  28.712  0.00  0.00    +0.000 A 
ATOM      3  C   UNL A   1     -26.108  -4.780  29.619  0.00  0.00    +0.000 A 
ATOM      4  C   UNL A   1     -26.194  -3.369  29.801  0.00  0.00    +0.000 A 
ATOM      5  C   UNL A   1     -24.011  -3.246  28.741  0.00  0.00    +0.000 A 
ATOM      6  C   UNL A   1     -25.069  -2.655  29.366  0.00  0.00    +0.000 A 
ENDROOT
TORSDOF 0
ENDMDL
ENDMDL
