MODEL 171
MODEL 1
REMARK VINA RESULT:    -6.693      0.000      0.000
REMARK INTER + INTRA:          -8.341
REMARK INTER:                  -7.866
REMARK INTRA:                  -0.474
REMARK UNBOUND:                -0.474
REMARK  Name = No_171-gen_results/8p0m/2024-11-27-11-27-31/
REMARK  3 active torsions:
REMARK  status: ('A' for Active; 'I' for Inactive)
REMARK    1  A    between atoms: C_2  and  O_7
REMARK    2  A    between atoms: C_4  and  C_15
REMARK    3  A    between atoms: O_7  and  C_8
REMARK                            x       y       z     vdW  Elec       q    Type
REMARK                         _______ _______ _______ _____ _____    ______ ____
ROOT
ATOM      1  C   UNL A   1     -23.917  -3.515  28.988  0.00  0.00    +0.037 A 
ATOM      2  C   UNL A   1     -24.523  -2.640  29.561  0.00  0.00    +0.145 A 
ATOM      3  C   UNL A   1     -25.786  -2.779  30.038  0.00  0.00    +0.044 A 
ATOM      4  C   UNL A   1     -26.437  -4.015  29.857  0.00  0.00    +0.083 A 
ATOM      5  C   UNL A   1     -24.484  -4.833  28.853  0.00  0.00    +0.003 A 
ATOM      6  C   UNL A   1     -25.762  -5.017  29.289  0.00  0.00    +0.007 A 
ENDROOT
BRANCH   4   7
ATOM      7  C   UNL A   1     -27.864  -4.163  30.352  0.00  0.00    +0.388 C 
ATOM      8  O   UNL A   1     -28.256  -5.044  30.792  0.00  0.00    -0.241 OA
ATOM      9  O   UNL A   1     -28.625  -3.079  30.092  0.00  0.00    -0.241 OA
ENDBRANCH   4   7
BRANCH   2  10
ATOM     10  O   UNL A   1     -23.949  -1.388  29.810  0.00  0.00    -0.453 OA
BRANCH  10  11
ATOM     11  C   UNL A   1     -23.682  -0.462  28.735  0.00  0.00    +0.148 A 
ATOM     12  C   UNL A   1     -22.445   0.199  28.754  0.00  0.00    +0.080 A 
ATOM     13  C   UNL A   1     -22.238   1.092  27.703  0.00  0.00    +0.199 A 
ATOM     14  C   UNL A   1     -23.267   1.442  26.790  0.00  0.00    +0.042 A 
ATOM     15  C   UNL A   1     -24.656  -0.135  27.837  0.00  0.00    +0.038 A 
ATOM     16  C   UNL A   1     -24.476   0.828  26.911  0.00  0.00    +0.006 A 
ATOM     17  O   UNL A   1     -21.177   1.971  27.453  0.00  0.00    -0.286 OA
ENDBRANCH  10  11
ENDBRANCH   2  10
TORSDOF 3
ENDMDL
ENDMDL
