REMARK  Name = outputs/IAG933/test6/raw/output_172_IAG933_linker_design_.xyz
REMARK  15 active torsions:
REMARK  status: ('A' for Active; 'I' for Inactive)
REMARK    1  A    between atoms: C_1  and  C_2
REMARK    2  A    between atoms: C_1  and  C_8
REMARK    3  A    between atoms: C_1  and  C_35
REMARK    4  A    between atoms: C_13  and  N_33
REMARK    5  A    between atoms: C_14  and  C_15
REMARK    6  A    between atoms: C_21  and  O_22
REMARK    7  A    between atoms: O_22  and  C_23
REMARK    8  A    between atoms: C_23  and  C_24
REMARK    9  A    between atoms: C_31  and  S_34
REMARK   10  A    between atoms: C_31  and  C_41
REMARK   11  A    between atoms: C_32  and  S_34
REMARK   12  A    between atoms: C_32  and  C_35
REMARK   13  A    between atoms: N_33  and  C_35
REMARK   14  A    between atoms: C_40  and  C_44
REMARK   15  A    between atoms: C_41  and  N_42
REMARK                            x       y       z     vdW  Elec       q    Type
REMARK                         _______ _______ _______ _____ _____    ______ ____
ROOT
ATOM      1  C   UNL A   1     -25.492   0.035  29.127  0.00  0.00    +0.092 C 
ENDROOT
BRANCH   1   3
ATOM      2  O   UNL A   1     -22.866  -0.098  28.346  0.00  0.00    -0.275 OA
ATOM      3  N   UNL A   1     -25.146   0.997  27.702  0.00  0.00    -0.274 N 
ATOM      4  C   UNL A   1     -23.625   0.824  27.742  0.00  0.00    +0.226 C 
BRANCH   3   5
ATOM      5  C   UNL A   1     -25.688   1.614  26.461  0.00  0.00    +0.145 C 
ATOM      6  C   UNL A   1     -26.250   2.920  26.395  0.00  0.00    +0.073 C 
ATOM      7  C   UNL A   1     -27.438   3.091  25.645  0.00  0.00    +0.104 C 
ATOM      8  N   UNL A   1     -28.075   2.089  25.003  0.00  0.00    -0.212 NA
ATOM      9  C   UNL A   1     -27.543   0.849  25.079  0.00  0.00    +0.236 C 
ATOM     10  C   UNL A   1     -26.354   0.576  25.777  0.00  0.00    +0.258 C 
ATOM     11  F   UNL A   1     -25.860  -0.681  25.795  0.00  0.00    -0.225 F 
BRANCH   6  12
ATOM     12  C   UNL A   1     -25.642   4.093  27.123  0.00  0.00    +0.264 C 
ATOM     13  N   UNL A   1     -25.614   5.252  26.449  0.00  0.00    -0.200 NA
ATOM     14  C   UNL A   1     -25.026   6.479  26.963  0.00  0.00    +0.139 C 
ATOM     15  O   UNL A   1     -25.143   3.966  28.243  0.00  0.00    -0.269 OA
ENDBRANCH   6  12
BRANCH   9  16
ATOM     16  O   UNL A   1     -28.193  -0.208  24.477  0.00  0.00    -0.459 OA
BRANCH  16  17
ATOM     17  C   UNL A   1     -29.460   0.005  23.866  0.00  0.00    +0.242 C 
BRANCH  17  18
ATOM     18  C   UNL A   1     -30.065  -1.377  23.573  0.00  0.00    +0.229 C 
ATOM     19  O   UNL A   1     -30.729  -1.878  24.721  0.00  0.00    -0.216 OA
ENDBRANCH  17  18
ENDBRANCH  16  17
ENDBRANCH   9  16
ENDBRANCH   3   5
BRANCH   4  21
ATOM     20  C   UNL A   1     -21.240   1.676  27.391  0.00  0.00    +0.010 C 
ATOM     21  C   UNL A   1     -22.735   1.893  27.027  0.00  0.00    +0.085 C 
ENDBRANCH   4  21
ENDBRANCH   1   3
BRANCH   1  22
ATOM     22  C   UNL A   1     -24.855  -1.012  30.143  0.00  0.00    +0.057 C 
BRANCH  22  23
ATOM     23  C   UNL A   1     -24.973  -2.505  29.788  0.00  0.00    -0.019 C 
ATOM     24  C   UNL A   1     -23.906  -3.173  29.146  0.00  0.00    -0.004 C 
ATOM     25  C   UNL A   1     -23.989  -4.549  28.853  0.00  0.00    -0.000 C 
ATOM     26  C   UNL A   1     -25.137  -5.280  29.205  0.00  0.00    -0.000 C 
ATOM     27  C   UNL A   1     -26.232  -4.611  29.784  0.00  0.00    -0.000 C 
ATOM     28  C   UNL A   1     -26.155  -3.232  30.065  0.00  0.00    -0.004 C 
ENDBRANCH  22  23
BRANCH  22  29
ATOM     29  C   UNL A   1     -25.387  -0.679  31.571  0.00  0.00    +0.078 C 
ATOM     30  C   UNL A   1     -25.189   0.773  32.028  0.00  0.00    +0.019 C 
ATOM     31  C   UNL A   1     -25.336   0.684  33.544  0.00  0.00    +0.020 C 
ATOM     32  C   UNL A   1     -24.829  -0.715  33.905  0.00  0.00    +0.089 C 
ATOM     33  N   UNL A   1     -24.758  -1.481  32.646  0.00  0.00    -0.219 NA
ENDBRANCH  22  29
ENDBRANCH   1  22
BRANCH   1  34
ATOM     34  C   UNL A   1     -27.010  -0.500  28.776  0.00  0.00    +0.078 C 
BRANCH  34  35
ATOM     35  S   UNL A   1     -28.459   0.288  28.206  0.00  0.00    -0.137 S 
BRANCH  35  36
ATOM     36  C   UNL A   1     -29.357   0.705  29.636  0.00  0.00    +0.075 C 
BRANCH  36  37
ATOM     37  C   UNL A   1     -30.262   1.969  29.400  0.00  0.00    +0.086 C 
BRANCH  37  43
ATOM     38  C   UNL A   1     -32.244   3.073  26.482  0.00  0.00    +0.020 C 
ATOM     39  C   UNL A   1     -30.939   2.410  26.886  0.00  0.00    +0.074 C 
ATOM     40  O   UNL A   1     -30.681   5.392  28.107  0.00  0.00    -0.337 OA
ATOM     41  C   UNL A   1     -32.515   4.525  26.844  0.00  0.00    +0.034 C 
ATOM     42  C   UNL A   1     -32.037   5.060  28.193  0.00  0.00    +0.144 C 
ATOM     43  N   UNL A   1     -30.222   2.779  28.159  0.00  0.00    -0.247 NA
ATOM     44  C   UNL A   1     -29.800   4.272  28.404  0.00  0.00    +0.220 C 
ENDBRANCH  37  43
ENDBRANCH  36  37
ENDBRANCH  35  36
ENDBRANCH  34  35
ENDBRANCH   1  34
TORSDOF 15
