MODEL 1720
MODEL 1
REMARK VINA RESULT:    -6.864      0.000      0.000
REMARK INTER + INTRA:          -6.864
REMARK INTER:                  -6.864
REMARK INTRA:                   0.000
REMARK UNBOUND:                 0.000
REMARK  Name = No_1720-gen_results/8p0m/2024-11-27-11-27-31/
REMARK  0 active torsions:
REMARK  status: ('A' for Active; 'I' for Inactive)
REMARK                            x       y       z     vdW  Elec       q    Type
REMARK                         _______ _______ _______ _____ _____    ______ ____
ROOT
ATOM      1  C   UNL A   1     -26.095  -0.916  30.870  0.00  0.00    +0.032 C 
ATOM      2  C   UNL A   1     -25.022  -0.766  30.332  0.00  0.00    -0.007 A 
ATOM      3  C   UNL A   1     -24.872  -0.297  29.028  0.00  0.00    +0.067 A 
ATOM      4  C   UNL A   1     -23.608  -0.096  28.292  0.00  0.00    +0.016 A 
ATOM      5  C   UNL A   1     -22.414  -0.203  29.068  0.00  0.00    +0.001 A 
ATOM      6  C   UNL A   1     -22.522  -0.628  30.396  0.00  0.00    -0.000 A 
ATOM      7  C   UNL A   1     -23.705  -0.878  31.000  0.00  0.00    -0.003 A 
ATOM      8  C   UNL A   1     -26.718  -2.255  30.547  0.00  0.00    +0.032 C 
ATOM      9  C   UNL A   1     -26.100  -3.098  30.026  0.00  0.00    -0.007 A 
ATOM     10  C   UNL A   1     -26.256  -4.259  29.676  0.00  0.00    -0.003 A 
ATOM     11  C   UNL A   1     -25.351  -5.235  29.006  0.00  0.00    -0.000 A 
ATOM     12  C   UNL A   1     -24.063  -4.676  28.681  0.00  0.00    +0.001 A 
ATOM     13  C   UNL A   1     -23.839  -3.347  28.913  0.00  0.00    +0.016 A 
ATOM     14  C   UNL A   1     -24.760  -2.605  29.450  0.00  0.00    +0.067 A 
ATOM     15  N   UNL A   1     -24.540  -1.572  29.228  0.00  0.00    -0.213 NA
ENDROOT
TORSDOF 0
ENDMDL
ENDMDL
