MODEL 1721
MODEL 1
REMARK VINA RESULT:    -7.254      0.000      0.000
REMARK INTER + INTRA:          -8.041
REMARK INTER:                  -7.678
REMARK INTRA:                  -0.363
REMARK UNBOUND:                -0.363
REMARK  Name = No_1721-gen_results/8p0m/2024-11-27-11-27-31/
REMARK  1 active torsions:
REMARK  status: ('A' for Active; 'I' for Inactive)
REMARK    1  A    between atoms: C_4  and  C_11
REMARK                            x       y       z     vdW  Elec       q    Type
REMARK                         _______ _______ _______ _____ _____    ______ ____
ROOT
ATOM      1  C   UNL A   1     -25.495   0.265  25.754  0.00  0.00    +0.000 A 
ATOM      2  C   UNL A   1     -25.325  -0.540  26.640  0.00  0.00    +0.000 A 
ATOM      3  C   UNL A   1     -24.308  -0.376  27.574  0.00  0.00    +0.000 A 
ATOM      4  C   UNL A   1     -23.991  -1.299  28.701  0.00  0.00    +0.002 A 
ATOM      5  C   UNL A   1     -22.922  -1.123  29.647  0.00  0.00    +0.000 A 
ATOM      6  C   UNL A   1     -22.341   0.173  29.570  0.00  0.00    +0.000 A 
ATOM      7  C   UNL A   1     -24.505   1.351  25.545  0.00  0.00    +0.000 A 
ATOM      8  C   UNL A   1     -23.528   1.619  26.476  0.00  0.00    +0.000 A 
ATOM      9  C   UNL A   1     -23.340   0.736  27.532  0.00  0.00    +0.000 A 
ATOM     10  C   UNL A   1     -22.399   0.981  28.549  0.00  0.00    +0.000 A 
ENDROOT
BRANCH   4  11
ATOM     11  C   UNL A   1     -24.800  -2.539  28.907  0.00  0.00    +0.019 A 
ATOM     12  C   UNL A   1     -24.216  -3.727  28.761  0.00  0.00    +0.003 A 
ATOM     13  C   UNL A   1     -25.754  -2.349  29.664  0.00  0.00    +0.099 A 
ATOM     14  N   UNL A   1     -26.518  -3.445  30.066  0.00  0.00    -0.242 NA
ATOM     15  C   UNL A   1     -24.953  -4.884  28.958  0.00  0.00    +0.021 A 
ATOM     16  C   UNL A   1     -26.157  -4.690  29.665  0.00  0.00    +0.099 A 
ENDBRANCH   4  11
TORSDOF 1
ENDMDL
ENDMDL
