MODEL 1722
MODEL 1
REMARK VINA RESULT:    -5.254      0.000      0.000
REMARK INTER + INTRA:          -5.695
REMARK INTER:                  -5.561
REMARK INTRA:                  -0.134
REMARK UNBOUND:                -0.134
REMARK  Name = No_1722-gen_results/8p0m/2024-11-27-11-27-31/
REMARK  1 active torsions:
REMARK  status: ('A' for Active; 'I' for Inactive)
REMARK    1  A    between atoms: C_4  and  C_7
REMARK                            x       y       z     vdW  Elec       q    Type
REMARK                         _______ _______ _______ _____ _____    ______ ____
ROOT
ATOM      1  C   UNL A   1     -24.599  -5.249  28.892  0.00  0.00    -0.000 A 
ATOM      2  C   UNL A   1     -25.584  -5.203  29.265  0.00  0.00    -0.000 A 
ATOM      3  C   UNL A   1     -23.926  -3.962  28.651  0.00  0.00    +0.004 A 
ATOM      4  C   UNL A   1     -24.541  -2.738  29.043  0.00  0.00    +0.071 A 
ATOM      5  C   UNL A   1     -26.414  -4.089  29.798  0.00  0.00    -0.000 A 
ATOM      6  C   UNL A   1     -25.827  -2.878  29.584  0.00  0.00    +0.004 A 
ENDROOT
BRANCH   4   7
ATOM      7  C   UNL A   1     -23.928  -1.467  28.843  0.00  0.00    +0.419 C 
ATOM      8  F   UNL A   1     -24.237  -0.972  27.702  0.00  0.00    -0.166 F 
ATOM      9  F   UNL A   1     -22.572  -1.506  28.805  0.00  0.00    -0.166 F 
ATOM     10  F   UNL A   1     -24.256  -0.563  29.803  0.00  0.00    -0.166 F 
ENDBRANCH   4   7
TORSDOF 1
ENDMDL
ENDMDL
