REMARK  Name = outputs/IAG933/test6/raw/output_1722_IAG933_linker_design_.xyz
REMARK  11 active torsions:
REMARK  status: ('A' for Active; 'I' for Inactive)
REMARK    1  A    between atoms: C_1  and  C_2
REMARK    2  A    between atoms: C_1  and  C_8
REMARK    3  A    between atoms: C_1  and  N_28
REMARK    4  A    between atoms: C_13  and  C_35
REMARK    5  A    between atoms: C_14  and  C_15
REMARK    6  A    between atoms: C_21  and  O_22
REMARK    7  A    between atoms: O_22  and  C_23
REMARK    8  A    between atoms: C_23  and  C_24
REMARK    9  A    between atoms: N_28  and  C_33
REMARK   10  A    between atoms: N_28  and  C_36
REMARK   11  A    between atoms: C_29  and  C_33
REMARK                            x       y       z     vdW  Elec       q    Type
REMARK                         _______ _______ _______ _____ _____    ______ ____
ROOT
ATOM      1  C   UNL A   1     -22.268   2.041  25.928  0.00  0.00    +0.351 C 
ATOM      2  C   UNL A   1     -23.164   1.533  26.841  0.00  0.00    +0.058 C 
ATOM      3  F   UNL A   1     -22.585   2.350  24.675  0.00  0.00    -0.183 F 
ATOM      4  O   UNL A   1     -20.988   2.030  26.409  0.00  0.00    -0.443 OA
ATOM      5  C   UNL A   1     -24.509   1.257  27.128  0.00  0.00    +0.019 C 
ATOM      6  C   UNL A   1     -24.506   0.510  28.290  0.00  0.00    +0.066 C 
ATOM      7  C   UNL A   1     -21.048   1.461  27.683  0.00  0.00    +0.177 C 
ATOM      8  N   UNL A   1     -22.550  -0.032  29.996  0.00  0.00    -0.127 NA
ATOM      9  C   UNL A   1     -23.114   0.459  28.836  0.00  0.00    +0.105 C 
ATOM     10  C   UNL A   1     -22.335   1.113  27.870  0.00  0.00    +0.057 C 
ENDROOT
BRANCH   5  11
ATOM     11  C   UNL A   1     -25.688   1.614  26.461  0.00  0.00    +0.039 C 
ATOM     12  C   UNL A   1     -26.250   2.920  26.395  0.00  0.00    +0.077 C 
ATOM     13  C   UNL A   1     -27.438   3.091  25.645  0.00  0.00    +0.107 C 
ATOM     14  N   UNL A   1     -28.075   2.089  25.003  0.00  0.00    -0.208 NA
ATOM     15  C   UNL A   1     -27.543   0.849  25.079  0.00  0.00    +0.253 C 
ATOM     16  C   UNL A   1     -26.354   0.576  25.777  0.00  0.00    +0.193 C 
ATOM     17  F   UNL A   1     -25.860  -0.681  25.795  0.00  0.00    -0.199 F 
BRANCH  12  18
ATOM     18  C   UNL A   1     -25.642   4.093  27.123  0.00  0.00    +0.266 C 
ATOM     19  N   UNL A   1     -25.614   5.252  26.449  0.00  0.00    -0.200 NA
ATOM     20  C   UNL A   1     -25.026   6.479  26.963  0.00  0.00    +0.139 C 
ATOM     21  O   UNL A   1     -25.143   3.966  28.243  0.00  0.00    -0.268 OA
ENDBRANCH  12  18
BRANCH  15  22
ATOM     22  O   UNL A   1     -28.193  -0.208  24.477  0.00  0.00    -0.456 OA
BRANCH  22  23
ATOM     23  C   UNL A   1     -29.460   0.005  23.866  0.00  0.00    +0.243 C 
BRANCH  23  24
ATOM     24  C   UNL A   1     -30.065  -1.377  23.573  0.00  0.00    +0.229 C 
ATOM     25  O   UNL A   1     -30.729  -1.878  24.721  0.00  0.00    -0.216 OA
ENDBRANCH  23  24
ENDBRANCH  22  23
ENDBRANCH  15  22
ENDBRANCH   5  11
BRANCH   6  26
ATOM     26  N   UNL A   1     -25.435  -0.045  29.083  0.00  0.00    -0.290 N 
BRANCH  26  27
ATOM     27  C   UNL A   1     -24.855  -1.012  30.143  0.00  0.00    +0.112 C 
BRANCH  27  28
ATOM     28  C   UNL A   1     -24.973  -2.505  29.788  0.00  0.00    -0.003 C 
ATOM     29  C   UNL A   1     -23.906  -3.173  29.146  0.00  0.00    -0.003 C 
ATOM     30  C   UNL A   1     -23.989  -4.549  28.853  0.00  0.00    -0.000 C 
ATOM     31  C   UNL A   1     -25.137  -5.280  29.205  0.00  0.00    -0.000 C 
ATOM     32  C   UNL A   1     -26.232  -4.611  29.784  0.00  0.00    -0.000 C 
ATOM     33  C   UNL A   1     -26.155  -3.232  30.065  0.00  0.00    -0.003 C 
ENDBRANCH  27  28
BRANCH  27  34
ATOM     34  C   UNL A   1     -25.387  -0.679  31.571  0.00  0.00    +0.095 C 
ATOM     35  C   UNL A   1     -25.189   0.773  32.028  0.00  0.00    +0.021 C 
ATOM     36  C   UNL A   1     -25.336   0.684  33.544  0.00  0.00    +0.020 C 
ATOM     37  C   UNL A   1     -24.829  -0.715  33.905  0.00  0.00    +0.089 C 
ATOM     38  N   UNL A   1     -24.758  -1.481  32.646  0.00  0.00    -0.217 NA
ENDBRANCH  27  34
ENDBRANCH  26  27
BRANCH  26  39
ATOM     39  C   UNL A   1     -26.810   0.345  28.827  0.00  0.00    +0.199 C 
BRANCH  39  40
ATOM     40  C   UNL A   1     -27.040   1.609  29.458  0.00  0.00    +0.095 C 
ATOM     41  N   UNL A   1     -27.139   2.708  29.780  0.00  0.00    -0.194 NA
ENDBRANCH  39  40
ENDBRANCH  26  39
ENDBRANCH   6  26
TORSDOF 11
