MODEL 1723
MODEL 1
REMARK VINA RESULT:    -6.843      0.000      0.000
REMARK INTER + INTRA:          -7.183
REMARK INTER:                  -7.243
REMARK INTRA:                   0.059
REMARK UNBOUND:                 0.059
REMARK  Name = No_1723-gen_results/8p0m/2024-11-27-11-27-31/
REMARK  1 active torsions:
REMARK  status: ('A' for Active; 'I' for Inactive)
REMARK    1  A    between atoms: C_7  and  C_15
REMARK                            x       y       z     vdW  Elec       q    Type
REMARK                         _______ _______ _______ _____ _____    ______ ____
ROOT
ATOM      1  C   UNL A   1     -23.549   1.546  25.910  0.00  0.00    -0.000 A 
ATOM      2  C   UNL A   1     -24.079   0.692  26.582  0.00  0.00    +0.004 A 
ATOM      3  C   UNL A   1     -23.524   0.280  27.789  0.00  0.00    -0.000 A 
ATOM      4  C   UNL A   1     -22.274   0.825  28.254  0.00  0.00    -0.000 A 
ATOM      5  C   UNL A   1     -21.717   1.789  27.403  0.00  0.00    -0.000 A 
ATOM      6  C   UNL A   1     -22.274   2.132  26.264  0.00  0.00    -0.000 A 
ATOM      7  C   UNL A   1     -25.354   0.004  26.245  0.00  0.00    +0.071 A 
ATOM      8  C   UNL A   1     -26.181  -0.422  27.134  0.00  0.00    +0.004 A 
ATOM      9  C   UNL A   1     -25.610  -0.853  28.481  0.00  0.00    -0.000 A 
ATOM     10  C   UNL A   1     -24.349  -0.387  28.832  0.00  0.00    -0.000 A 
ATOM     11  C   UNL A   1     -26.407  -1.622  29.421  0.00  0.00    -0.000 A 
ATOM     12  C   UNL A   1     -25.718  -2.502  30.299  0.00  0.00    -0.000 A 
ATOM     13  C   UNL A   1     -24.403  -2.144  30.716  0.00  0.00    -0.000 A 
ATOM     14  C   UNL A   1     -24.004  -0.504  30.151  0.00  0.00    -0.000 A 
ENDROOT
BRANCH   7  15
ATOM     15  C   UNL A   1     -25.748   0.125  24.821  0.00  0.00    +0.419 C 
ATOM     16  F   UNL A   1     -26.369   1.145  24.638  0.00  0.00    -0.166 F 
ATOM     17  F   UNL A   1     -24.725   0.088  23.993  0.00  0.00    -0.166 F 
ATOM     18  F   UNL A   1     -26.552  -0.939  24.564  0.00  0.00    -0.166 F 
ENDBRANCH   7  15
TORSDOF 1
ENDMDL
ENDMDL
