MODEL 1724
MODEL 1
REMARK VINA RESULT:    -4.750      0.000      0.000
REMARK INTER + INTRA:          -5.386
REMARK INTER:                  -5.305
REMARK INTRA:                  -0.080
REMARK UNBOUND:                -0.080
REMARK  Name = No_1724-gen_results/8p0m/2024-11-27-11-27-31/
REMARK  2 active torsions:
REMARK  status: ('A' for Active; 'I' for Inactive)
REMARK    1  A    between atoms: C_1  and  C_2
REMARK    2  A    between atoms: C_1  and  C_8
REMARK                            x       y       z     vdW  Elec       q    Type
REMARK                         _______ _______ _______ _____ _____    ______ ____
ROOT
ATOM      1  C   UNL A   1     -24.151  -2.869  29.117  0.00  0.00    -0.021 A 
ATOM      2  C   UNL A   1     -24.044  -4.144  28.874  0.00  0.00    -0.004 A 
ATOM      3  C   UNL A   1     -25.097  -5.169  29.083  0.00  0.00    -0.000 A 
ATOM      4  C   UNL A   1     -26.321  -4.711  29.648  0.00  0.00    -0.000 A 
ATOM      5  C   UNL A   1     -26.416  -3.380  29.962  0.00  0.00    -0.000 A 
ATOM      6  C   UNL A   1     -25.425  -2.478  29.768  0.00  0.00    -0.004 A 
ENDROOT
BRANCH   1   7
ATOM      7  C   UNL A   1     -23.313  -2.011  28.962  0.00  0.00    +0.047 C 
BRANCH   7   8
ATOM      8  C   UNL A   1     -23.099  -1.005  30.096  0.00  0.00    +0.114 C 
ATOM      9  N   UNL A   1     -22.347  -0.128  29.956  0.00  0.00    -0.131 NA
ENDBRANCH   7   8
ENDBRANCH   1   7
TORSDOF 2
ENDMDL
ENDMDL
