MODEL 1725
MODEL 1
REMARK VINA RESULT:    -7.220      0.000      0.000
REMARK INTER + INTRA:         -10.866
REMARK INTER:                  -9.752
REMARK INTRA:                  -1.114
REMARK UNBOUND:                -1.114
REMARK  Name = No_1725-gen_results/8p0m/2024-11-27-11-27-31/
REMARK  6 active torsions:
REMARK  status: ('A' for Active; 'I' for Inactive)
REMARK    1  A    between atoms: C_3  and  C_4
REMARK    2  A    between atoms: C_6  and  O_13
REMARK    3  A    between atoms: O_13  and  C_14
REMARK    4  A    between atoms: C_14  and  C_15
REMARK    5  A    between atoms: C_15  and  C_17
REMARK    6  A    between atoms: N_18  and  C_19
REMARK                            x       y       z     vdW  Elec       q    Type
REMARK                         _______ _______ _______ _____ _____    ______ ____
ROOT
ATOM      1  O   UNL A   1     -30.863 -13.775  26.970  0.00  0.00    -0.470 OA
ENDROOT
BRANCH   1   5
ATOM      2  C   UNL A   1     -29.533 -11.956  28.003  0.00  0.00    +0.037 A 
ATOM      3  C   UNL A   1     -29.073 -11.456  29.003  0.00  0.00    +0.003 A 
ATOM      4  C   UNL A   1     -29.069 -12.143  30.212  0.00  0.00    +0.000 A 
ATOM      5  C   UNL A   1     -30.268 -13.228  28.084  0.00  0.00    +0.139 A 
ATOM      6  C   UNL A   1     -30.257 -14.010  29.201  0.00  0.00    +0.037 A 
ATOM      7  C   UNL A   1     -29.637 -13.480  30.345  0.00  0.00    +0.003 A 
BRANCH   4   8
ATOM      8  C   UNL A   1     -28.544 -11.634  31.512  0.00  0.00    +0.000 A 
ATOM      9  C   UNL A   1     -29.136 -10.584  32.296  0.00  0.00    +0.000 A 
ATOM     10  C   UNL A   1     -28.542 -10.238  33.476  0.00  0.00    +0.000 A 
ATOM     11  C   UNL A   1     -27.593 -10.926  34.162  0.00  0.00    +0.000 A 
ATOM     12  C   UNL A   1     -27.488 -12.355  32.207  0.00  0.00    +0.000 A 
ATOM     13  C   UNL A   1     -27.052 -11.986  33.478  0.00  0.00    +0.000 A 
ENDBRANCH   4   8
ENDBRANCH   1   5
BRANCH   1  14
ATOM     14  C   UNL A   1     -30.156 -14.445  26.017  0.00  0.00    +0.237 C 
BRANCH  14  15
ATOM     15  C   UNL A   1     -30.528 -14.043  24.653  0.00  0.00    +0.076 C 
ATOM     16  C   UNL A   1     -30.821 -12.766  24.503  0.00  0.00    +0.004 C 
BRANCH  15  17
ATOM     17  C   UNL A   1     -30.601 -14.938  23.644  0.00  0.00    +0.269 C 
ATOM     18  N   UNL A   1     -29.674 -15.035  22.706  0.00  0.00    -0.176 NA
ATOM     19  O   UNL A   1     -31.596 -15.646  23.531  0.00  0.00    -0.268 OA
BRANCH  18  20
ATOM     20  C   UNL A   1     -29.694 -14.181  21.649  0.00  0.00    +0.074 A 
ATOM     21  C   UNL A   1     -28.433 -13.823  21.003  0.00  0.00    +0.017 A 
ATOM     22  C   UNL A   1     -28.232 -12.597  20.390  0.00  0.00    +0.001 A 
ATOM     23  C   UNL A   1     -29.349 -11.691  20.312  0.00  0.00    +0.000 A 
ATOM     24  C   UNL A   1     -30.529 -12.025  21.000  0.00  0.00    +0.001 A 
ATOM     25  C   UNL A   1     -30.738 -13.794  20.796  0.00  0.00    +0.017 A 
ENDBRANCH  18  20
ENDBRANCH  15  17
ENDBRANCH  14  15
ENDBRANCH   1  14
TORSDOF 6
ENDMDL
ENDMDL
