REMARK  Name = outputs/IAG933/test6/raw/output_1725_IAG933_linker_design_.xyz
REMARK  13 active torsions:
REMARK  status: ('A' for Active; 'I' for Inactive)
REMARK    1  A    between atoms: C_1  and  C_2
REMARK    2  A    between atoms: C_1  and  C_8
REMARK    3  A    between atoms: C_9  and  C_28
REMARK    4  A    between atoms: C_13  and  N_29
REMARK    5  A    between atoms: C_14  and  C_15
REMARK    6  A    between atoms: C_21  and  O_22
REMARK    7  A    between atoms: O_22  and  C_23
REMARK    8  A    between atoms: C_23  and  C_24
REMARK    9  A    between atoms: C_28  and  N_32
REMARK   10  A    between atoms: C_28  and  C_33
REMARK   11  A    between atoms: N_29  and  C_30
REMARK   12  A    between atoms: C_31  and  N_32
REMARK   13  A    between atoms: C_33  and  C_47
REMARK                            x       y       z     vdW  Elec       q    Type
REMARK                         _______ _______ _______ _____ _____    ______ ____
ROOT
ATOM      1  C   UNL A   1     -25.250   2.251  31.407  0.00  0.00    +0.124 C 
ENDROOT
BRANCH   1   3
ATOM      2  C   UNL A   1     -25.387  -0.679  31.571  0.00  0.00    +0.079 C 
ATOM      3  C   UNL A   1     -25.189   0.773  32.028  0.00  0.00    +0.040 C 
ATOM      4  C   UNL A   1     -25.336   0.684  33.544  0.00  0.00    +0.022 C 
ATOM      5  C   UNL A   1     -24.829  -0.715  33.905  0.00  0.00    +0.089 C 
ATOM      6  N   UNL A   1     -24.758  -1.481  32.646  0.00  0.00    -0.219 NA
BRANCH   2   7
ATOM      7  C   UNL A   1     -24.855  -1.012  30.143  0.00  0.00    +0.044 C 
BRANCH   7   8
ATOM      8  C   UNL A   1     -24.973  -2.505  29.788  0.00  0.00    -0.021 C 
ATOM      9  C   UNL A   1     -23.906  -3.173  29.146  0.00  0.00    -0.004 C 
ATOM     10  C   UNL A   1     -23.989  -4.549  28.853  0.00  0.00    -0.000 C 
ATOM     11  C   UNL A   1     -25.137  -5.280  29.205  0.00  0.00    -0.000 C 
ATOM     12  C   UNL A   1     -26.232  -4.611  29.784  0.00  0.00    -0.000 C 
ATOM     13  C   UNL A   1     -26.155  -3.232  30.065  0.00  0.00    -0.004 C 
ENDBRANCH   7   8
ENDBRANCH   2   7
ENDBRANCH   1   3
BRANCH   1  14
ATOM     14  C   UNL A   1     -26.366   2.983  31.689  0.00  0.00    +0.172 C 
ATOM     15  O   UNL A   1     -27.598   2.371  31.900  0.00  0.00    -0.221 OA
BRANCH  14  24
ATOM     16  C   UNL A   1     -26.838   5.950  34.071  0.00  0.00    +0.026 C 
ATOM     17  C   UNL A   1     -24.796   8.577  30.893  0.00  0.00    -0.022 C 
ATOM     18  C   UNL A   1     -25.806   6.417  31.855  0.00  0.00    -0.026 C 
ATOM     19  C   UNL A   1     -23.971   8.527  33.429  0.00  0.00    -0.022 C 
ATOM     20  C   UNL A   1     -25.917   5.239  31.536  0.00  0.00    +0.029 C 
ATOM     21  C   UNL A   1     -24.114   8.996  32.125  0.00  0.00    +0.052 C 
ATOM     22  C   UNL A   1     -25.769   6.698  33.297  0.00  0.00    -0.026 C 
ATOM     23  C   UNL A   1     -25.554   7.318  30.760  0.00  0.00    -0.009 C 
ATOM     24  C   UNL A   1     -25.989   4.144  32.580  0.00  0.00    +0.037 C 
ATOM     25  C   UNL A   1     -24.821   7.493  34.023  0.00  0.00    -0.009 C 
ATOM     26  C   UNL A   1     -27.097   4.496  33.628  0.00  0.00    +0.008 C 
ENDBRANCH  14  24
ENDBRANCH   1  14
BRANCH   1  27
ATOM     27  N   UNL A   1     -24.319   1.935  29.834  0.00  0.00    -0.235 NA
BRANCH  27  29
ATOM     28  C   UNL A   1     -23.710   1.509  27.544  0.00  0.00    +0.085 C 
ATOM     29  C   UNL A   1     -23.364   1.640  28.842  0.00  0.00    +0.081 C 
ATOM     30  C   UNL A   1     -22.814   1.804  26.491  0.00  0.00    +0.018 C 
ATOM     31  C   UNL A   1     -21.054   1.744  28.127  0.00  0.00    +0.001 C 
ATOM     32  C   UNL A   1     -21.458   1.868  26.796  0.00  0.00    +0.001 C 
ATOM     33  C   UNL A   1     -22.000   1.592  29.142  0.00  0.00    +0.017 C 
BRANCH  28  34
ATOM     34  N   UNL A   1     -24.808   1.085  27.185  0.00  0.00    -0.209 NA
BRANCH  34  35
ATOM     35  C   UNL A   1     -25.688   1.614  26.461  0.00  0.00    +0.108 C 
ATOM     36  C   UNL A   1     -26.250   2.920  26.395  0.00  0.00    +0.092 C 
ATOM     37  C   UNL A   1     -27.438   3.091  25.645  0.00  0.00    +0.108 C 
ATOM     38  N   UNL A   1     -28.075   2.089  25.003  0.00  0.00    -0.208 NA
ATOM     39  C   UNL A   1     -27.543   0.849  25.079  0.00  0.00    +0.255 C 
ATOM     40  C   UNL A   1     -26.354   0.576  25.777  0.00  0.00    +0.208 C 
ATOM     41  F   UNL A   1     -25.860  -0.681  25.795  0.00  0.00    -0.198 F 
BRANCH  36  42
ATOM     42  C   UNL A   1     -25.642   4.093  27.123  0.00  0.00    +0.268 C 
ATOM     43  N   UNL A   1     -25.614   5.252  26.449  0.00  0.00    -0.200 NA
ATOM     44  C   UNL A   1     -25.026   6.479  26.963  0.00  0.00    +0.139 C 
ATOM     45  O   UNL A   1     -25.143   3.966  28.243  0.00  0.00    -0.268 OA
ENDBRANCH  36  42
BRANCH  39  46
ATOM     46  O   UNL A   1     -28.193  -0.208  24.477  0.00  0.00    -0.456 OA
BRANCH  46  47
ATOM     47  C   UNL A   1     -29.460   0.005  23.866  0.00  0.00    +0.243 C 
BRANCH  47  48
ATOM     48  C   UNL A   1     -30.065  -1.377  23.573  0.00  0.00    +0.229 C 
ATOM     49  O   UNL A   1     -30.729  -1.878  24.721  0.00  0.00    -0.216 OA
ENDBRANCH  47  48
ENDBRANCH  46  47
ENDBRANCH  39  46
ENDBRANCH  34  35
ENDBRANCH  28  34
ENDBRANCH  27  29
ENDBRANCH   1  27
TORSDOF 13
