MODEL 1726
MODEL 1
REMARK VINA RESULT:    -3.495      0.000      0.000
REMARK INTER + INTRA:          -4.017
REMARK INTER:                  -3.904
REMARK INTRA:                  -0.113
REMARK UNBOUND:                -0.113
REMARK  Name = No_1726-gen_results/8p0m/2024-11-27-11-27-31/
REMARK  2 active torsions:
REMARK  status: ('A' for Active; 'I' for Inactive)
REMARK    1  A    between atoms: C_1  and  C_2
REMARK    2  A    between atoms: C_3  and  C_4
REMARK                            x       y       z     vdW  Elec       q    Type
REMARK                         _______ _______ _______ _____ _____    ______ ____
ROOT
ATOM      1  C   UNL A   1     -12.252  -2.643  38.797  0.00  0.00    -0.026 C 
ATOM      2  C   UNL A   1     -11.508  -2.386  37.651  0.00  0.00    -0.005 C 
ENDROOT
BRANCH   1   3
ATOM      3  C   UNL A   1     -12.137  -1.952  39.784  0.00  0.00    +0.026 C 
ATOM      4  C   UNL A   1     -11.360  -2.324  40.935  0.00  0.00    +0.005 C 
ENDBRANCH   1   3
BRANCH   2   5
ATOM      5  C   UNL A   1     -10.610  -1.262  37.587  0.00  0.00    -0.000 C 
ATOM      6  C   UNL A   1     -10.825  -0.129  36.864  0.00  0.00    -0.000 C 
ENDBRANCH   2   5
TORSDOF 2
ENDMDL
ENDMDL
