MODEL 1727
MODEL 1
REMARK VINA RESULT:    -7.120      0.000      0.000
REMARK INTER + INTRA:         -12.429
REMARK INTER:                  -9.201
REMARK INTRA:                  -3.228
REMARK UNBOUND:                -3.228
REMARK  Name = No_1727-gen_results/8p0m/2024-11-27-11-27-31/
REMARK  5 active torsions:
REMARK  status: ('A' for Active; 'I' for Inactive)
REMARK    1  A    between atoms: C_4  and  C_15
REMARK    2  A    between atoms: C_5  and  C_8
REMARK    3  A    between atoms: C_6  and  C_16
REMARK    4  A    between atoms: C_16  and  C_17
REMARK    5  A    between atoms: N_23  and  C_25
REMARK                            x       y       z     vdW  Elec       q    Type
REMARK                         _______ _______ _______ _____ _____    ______ ____
ROOT
ATOM      1  C   UNL A   1     -22.431   1.472  27.163  0.00  0.00    +0.023 A 
ATOM      2  C   UNL A   1     -23.346   1.637  26.667  0.00  0.00    +0.058 A 
ATOM      3  C   UNL A   1     -22.401   0.377  28.090  0.00  0.00    +0.063 A 
ATOM      4  C   UNL A   1     -23.493  -0.305  28.448  0.00  0.00    +0.062 A 
ATOM      5  C   UNL A   1     -24.652   1.040  26.909  0.00  0.00    +0.007 A 
ATOM      6  C   UNL A   1     -24.646   0.040  27.780  0.00  0.00    -0.012 A 
ATOM      7 CL   UNL A   1     -20.849  -0.002  28.824  0.00  0.00    -0.082 Cl
ATOM      8 CL   UNL A   1     -23.420   3.031  25.416  0.00  0.00    -0.082 Cl
ENDROOT
BRANCH   5   9
ATOM      9  C   UNL A   1     -25.884   1.506  26.132  0.00  0.00    +0.001 A 
ATOM     10  C   UNL A   1     -26.235   0.797  25.121  0.00  0.00    +0.000 A 
ATOM     11  C   UNL A   1     -27.452   1.165  24.395  0.00  0.00    +0.000 A 
ATOM     12  C   UNL A   1     -28.124   2.300  24.778  0.00  0.00    +0.000 A 
ATOM     13  C   UNL A   1     -26.533   2.674  26.506  0.00  0.00    +0.000 A 
ATOM     14  C   UNL A   1     -27.654   3.070  25.827  0.00  0.00    +0.000 A 
ENDBRANCH   5   9
BRANCH   4  15
ATOM     15  C   UNL A   1     -23.457  -1.400  29.424  0.00  0.00    +0.270 C 
ATOM     16  N   UNL A   1     -23.703  -1.250  30.690  0.00  0.00    -0.175 NA
ATOM     17  O   UNL A   1     -23.116  -2.551  28.930  0.00  0.00    -0.268 OA
BRANCH  16  18
ATOM     18  C   UNL A   1     -24.088  -0.033  31.377  0.00  0.00    +0.074 A 
ATOM     19  C   UNL A   1     -23.889   0.979  31.233  0.00  0.00    +0.017 A 
ATOM     20  C   UNL A   1     -24.219   2.018  31.531  0.00  0.00    +0.001 A 
ATOM     21  C   UNL A   1     -25.195   2.034  32.658  0.00  0.00    +0.000 A 
ATOM     22  C   UNL A   1     -25.583   0.811  33.139  0.00  0.00    +0.001 A 
ATOM     23  C   UNL A   1     -25.102  -0.304  32.443  0.00  0.00    +0.017 A 
ENDBRANCH  16  18
ENDBRANCH   4  15
BRANCH   6  24
ATOM     24  C   UNL A   1     -25.992  -0.428  28.092  0.00  0.00    +0.053 C 
BRANCH  24  25
ATOM     25  C   UNL A   1     -26.544  -0.428  28.950  0.00  0.00    -0.018 A 
ATOM     26  C   UNL A   1     -27.110  -1.589  29.636  0.00  0.00    -0.004 A 
ATOM     27  C   UNL A   1     -27.185   0.788  29.450  0.00  0.00    -0.004 A 
ATOM     28  C   UNL A   1     -28.301   0.808  30.309  0.00  0.00    -0.000 A 
ATOM     29  C   UNL A   1     -28.138  -1.580  30.598  0.00  0.00    -0.000 A 
ATOM     30  C   UNL A   1     -28.670  -0.354  30.967  0.00  0.00    -0.000 A 
ENDBRANCH  24  25
ENDBRANCH   6  24
TORSDOF 5
ENDMDL
ENDMDL
