REMARK  Name = outputs/IAG933/test6/raw/output_1727_IAG933_linker_design_.xyz
REMARK  10 active torsions:
REMARK  status: ('A' for Active; 'I' for Inactive)
REMARK    1  A    between atoms: C_1  and  C_2
REMARK    2  A    between atoms: C_13  and  C_40
REMARK    3  A    between atoms: C_14  and  C_15
REMARK    4  A    between atoms: C_21  and  O_22
REMARK    5  A    between atoms: O_22  and  C_23
REMARK    6  A    between atoms: C_23  and  C_24
REMARK    7  A    between atoms: C_29  and  C_35
REMARK    8  A    between atoms: C_34  and  O_41
REMARK    9  A    between atoms: C_35  and  C_38
REMARK   10  A    between atoms: C_42  and  C_43
REMARK                            x       y       z     vdW  Elec       q    Type
REMARK                         _______ _______ _______ _____ _____    ______ ____
ROOT
ATOM      1  C   UNL A   1     -24.128   0.020  27.276  0.00  0.00    +0.066 C 
ATOM      2  C   UNL A   1     -21.629   1.180  28.727  0.00  0.00    +0.142 C 
ATOM      3  C   UNL A   1     -22.802   0.853  28.910  0.00  0.00    +0.035 C 
ATOM      4  O   UNL A   1     -21.356   1.945  27.497  0.00  0.00    -0.353 OA
ATOM      5  C   UNL A   1     -23.439   1.092  27.500  0.00  0.00    +0.041 C 
ATOM      6  C   UNL A   1     -24.457   1.345  27.010  0.00  0.00    +0.035 C 
ATOM      7  C   UNL A   1     -22.419   1.805  26.797  0.00  0.00    +0.149 C 
ENDROOT
BRANCH   6   8
ATOM      8  C   UNL A   1     -25.688   1.614  26.461  0.00  0.00    +0.016 C 
ATOM      9  C   UNL A   1     -26.250   2.920  26.395  0.00  0.00    +0.073 C 
ATOM     10  C   UNL A   1     -27.438   3.091  25.645  0.00  0.00    +0.106 C 
ATOM     11  N   UNL A   1     -28.075   2.089  25.003  0.00  0.00    -0.208 NA
ATOM     12  C   UNL A   1     -27.543   0.849  25.079  0.00  0.00    +0.253 C 
ATOM     13  C   UNL A   1     -26.354   0.576  25.777  0.00  0.00    +0.189 C 
ATOM     14  F   UNL A   1     -25.860  -0.681  25.795  0.00  0.00    -0.200 F 
BRANCH   9  15
ATOM     15  C   UNL A   1     -25.642   4.093  27.123  0.00  0.00    +0.266 C 
ATOM     16  N   UNL A   1     -25.614   5.252  26.449  0.00  0.00    -0.200 NA
ATOM     17  C   UNL A   1     -25.026   6.479  26.963  0.00  0.00    +0.139 C 
ATOM     18  O   UNL A   1     -25.143   3.966  28.243  0.00  0.00    -0.268 OA
ENDBRANCH   9  15
BRANCH  12  19
ATOM     19  O   UNL A   1     -28.193  -0.208  24.477  0.00  0.00    -0.456 OA
BRANCH  19  20
ATOM     20  C   UNL A   1     -29.460   0.005  23.866  0.00  0.00    +0.243 C 
BRANCH  20  21
ATOM     21  C   UNL A   1     -30.065  -1.377  23.573  0.00  0.00    +0.229 C 
ATOM     22  O   UNL A   1     -30.729  -1.878  24.721  0.00  0.00    -0.216 OA
ENDBRANCH  20  21
ENDBRANCH  19  20
ENDBRANCH  12  19
ENDBRANCH   6   8
BRANCH   1  24
ATOM     23  O   UNL A   1     -25.943  -1.001  27.892  0.00  0.00    -0.295 OA
ATOM     24  C   UNL A   1     -25.427  -0.101  28.135  0.00  0.00    +0.167 C 
BRANCH  24  33
ATOM     25  C   UNL A   1     -24.855  -1.012  30.143  0.00  0.00    +0.062 C 
ATOM     26  C   UNL A   1     -25.387  -0.679  31.571  0.00  0.00    +0.085 C 
ATOM     27  C   UNL A   1     -25.189   0.773  32.028  0.00  0.00    +0.089 C 
ATOM     28  C   UNL A   1     -25.336   0.684  33.544  0.00  0.00    +0.027 C 
ATOM     29  C   UNL A   1     -24.829  -0.715  33.905  0.00  0.00    +0.089 C 
ATOM     30  N   UNL A   1     -24.758  -1.481  32.646  0.00  0.00    -0.219 NA
ATOM     31  O   UNL A   1     -26.479   2.960  31.686  0.00  0.00    -0.176 OA
ATOM     32  C   UNL A   1     -25.328   2.193  31.349  0.00  0.00    +0.286 C 
ATOM     33  C   UNL A   1     -25.338   0.303  29.669  0.00  0.00    +0.140 C 
ATOM     34  N   UNL A   1     -25.195   1.829  29.983  0.00  0.00    -0.162 NA
BRANCH  25  35
ATOM     35  C   UNL A   1     -24.973  -2.505  29.788  0.00  0.00    -0.019 C 
ATOM     36  C   UNL A   1     -23.906  -3.173  29.146  0.00  0.00    -0.004 C 
ATOM     37  C   UNL A   1     -23.989  -4.549  28.853  0.00  0.00    -0.000 C 
ATOM     38  C   UNL A   1     -25.137  -5.280  29.205  0.00  0.00    -0.000 C 
ATOM     39  C   UNL A   1     -26.232  -4.611  29.784  0.00  0.00    -0.000 C 
ATOM     40  C   UNL A   1     -26.155  -3.232  30.065  0.00  0.00    -0.004 C 
ENDBRANCH  25  35
BRANCH  32  42
ATOM     41  C   UNL A   1     -24.686   4.248  32.623  0.00  0.00    +0.178 C 
ATOM     42  O   UNL A   1     -24.353   3.061  31.822  0.00  0.00    -0.317 OA
ENDBRANCH  32  42
ENDBRANCH  24  33
ENDBRANCH   1  24
BRANCH   7  44
ATOM     43  O   UNL A   1     -23.486   3.128  25.211  0.00  0.00    -0.218 OA
ATOM     44  C   UNL A   1     -22.567   2.143  25.358  0.00  0.00    +0.211 C 
ENDBRANCH   7  44
TORSDOF 10
