MODEL 1728
MODEL 1
REMARK VINA RESULT:    -7.455      0.000      0.000
REMARK INTER + INTRA:          -8.076
REMARK INTER:                  -7.891
REMARK INTRA:                  -0.186
REMARK UNBOUND:                -0.186
REMARK  Name = No_1728-gen_results/8p0m/2024-11-27-11-27-31/
REMARK  1 active torsions:
REMARK  status: ('A' for Active; 'I' for Inactive)
REMARK    1  A    between atoms: C_7  and  N_12
REMARK                            x       y       z     vdW  Elec       q    Type
REMARK                         _______ _______ _______ _____ _____    ______ ____
ROOT
ATOM      1  O   UNL A   1     -27.136  -0.123  31.415  0.00  0.00    -0.273 OA
ATOM      2  C   UNL A   1     -26.370  -0.637  30.724  0.00  0.00    +0.247 C 
ATOM      3  N   UNL A   1     -25.327  -0.524  30.244  0.00  0.00    -0.186 NA
ATOM      4  C   UNL A   1     -26.704  -2.214  30.617  0.00  0.00    +0.113 C 
ATOM      5  C   UNL A   1     -25.911  -3.057  29.849  0.00  0.00    -0.014 A 
ATOM      6  C   UNL A   1     -24.739  -2.561  29.335  0.00  0.00    +0.009 A 
ATOM      7  C   UNL A   1     -24.420  -1.253  29.525  0.00  0.00    +0.177 C 
ATOM      8  C   UNL A   1     -26.253  -4.452  29.657  0.00  0.00    -0.004 A 
ATOM      9  C   UNL A   1     -25.274  -5.300  29.058  0.00  0.00    -0.000 A 
ATOM     10  C   UNL A   1     -24.049  -4.704  28.553  0.00  0.00    -0.000 A 
ATOM     11  C   UNL A   1     -23.819  -3.481  28.690  0.00  0.00    -0.002 A 
ENDROOT
BRANCH   7  12
ATOM     12  N   UNL A   1     -23.278  -0.677  29.060  0.00  0.00    -0.254 NA
ATOM     13  C   UNL A   1     -22.155  -0.753  29.301  0.00  0.00    +0.074 C 
ATOM     14  C   UNL A   1     -21.188   0.021  28.705  0.00  0.00    +0.017 C 
ATOM     15  C   UNL A   1     -21.726   0.964  27.801  0.00  0.00    +0.003 C 
ATOM     16  C   UNL A   1     -23.003   1.168  27.483  0.00  0.00    +0.017 C 
ATOM     17  C   UNL A   1     -23.826   0.366  28.112  0.00  0.00    +0.074 C 
ENDBRANCH   7  12
TORSDOF 1
ENDMDL
ENDMDL
