REMARK  Name = outputs/IAG933/test6/raw/output_1728_IAG933_linker_design_.xyz
REMARK  10 active torsions:
REMARK  status: ('A' for Active; 'I' for Inactive)
REMARK    1  A    between atoms: C_1  and  C_2
REMARK    2  A    between atoms: C_1  and  C_8
REMARK    3  A    between atoms: C_1  and  N_32
REMARK    4  A    between atoms: C_13  and  N_35
REMARK    5  A    between atoms: C_14  and  C_15
REMARK    6  A    between atoms: C_21  and  O_22
REMARK    7  A    between atoms: O_22  and  C_23
REMARK    8  A    between atoms: C_23  and  C_24
REMARK    9  A    between atoms: N_32  and  C_37
REMARK   10  A    between atoms: N_35  and  C_37
REMARK                            x       y       z     vdW  Elec       q    Type
REMARK                         _______ _______ _______ _____ _____    ______ ____
ROOT
ATOM      1  F   UNL A   1     -23.652   2.342  25.211  0.00  0.00    -0.196 F 
ATOM      2  N   UNL A   1     -22.514   1.183  28.222  0.00  0.00    -0.034 NA
ATOM      3  C   UNL A   1     -21.369   1.175  28.320  0.00  0.00    +0.236 C 
ATOM      4  C   UNL A   1     -20.766   1.766  27.181  0.00  0.00    +0.053 C 
ATOM      5  C   UNL A   1     -22.864   2.049  26.185  0.00  0.00    +0.222 C 
ATOM      6  N   UNL A   1     -24.775   1.426  27.498  0.00  0.00    -0.167 N 
ATOM      7  C   UNL A   1     -21.495   2.212  26.102  0.00  0.00    +0.041 C 
ATOM      8  C   UNL A   1     -23.523   1.464  27.305  0.00  0.00    +0.353 C 
ENDROOT
BRANCH   6   9
ATOM      9  C   UNL A   1     -25.688   1.614  26.461  0.00  0.00    +0.232 C 
ATOM     10  C   UNL A   1     -26.250   2.920  26.395  0.00  0.00    +0.097 C 
ATOM     11  C   UNL A   1     -27.438   3.091  25.645  0.00  0.00    +0.106 C 
ATOM     12  N   UNL A   1     -28.075   2.089  25.003  0.00  0.00    -0.212 NA
ATOM     13  C   UNL A   1     -27.543   0.849  25.079  0.00  0.00    +0.238 C 
ATOM     14  C   UNL A   1     -26.354   0.576  25.777  0.00  0.00    +0.282 C 
ATOM     15  F   UNL A   1     -25.860  -0.681  25.795  0.00  0.00    -0.223 F 
BRANCH  10  16
ATOM     16  C   UNL A   1     -25.642   4.093  27.123  0.00  0.00    +0.266 C 
ATOM     17  N   UNL A   1     -25.614   5.252  26.449  0.00  0.00    -0.200 NA
ATOM     18  C   UNL A   1     -25.026   6.479  26.963  0.00  0.00    +0.139 C 
ATOM     19  O   UNL A   1     -25.143   3.966  28.243  0.00  0.00    -0.269 OA
ENDBRANCH  10  16
BRANCH  13  20
ATOM     20  O   UNL A   1     -28.193  -0.208  24.477  0.00  0.00    -0.458 OA
BRANCH  20  21
ATOM     21  C   UNL A   1     -29.460   0.005  23.866  0.00  0.00    +0.242 C 
BRANCH  21  22
ATOM     22  C   UNL A   1     -30.065  -1.377  23.573  0.00  0.00    +0.229 C 
ATOM     23  O   UNL A   1     -30.729  -1.878  24.721  0.00  0.00    -0.216 OA
ENDBRANCH  21  22
ENDBRANCH  20  21
ENDBRANCH  13  20
ENDBRANCH   6   9
BRANCH   6  24
ATOM     24  C   UNL A   1     -24.874   1.342  29.011  0.00  0.00    +0.308 C 
BRANCH  24  26
ATOM     25  O   UNL A   1     -27.452  -0.767  28.566  0.00  0.00    -0.249 OA
ATOM     26  N   UNL A   1     -25.537   0.047  29.361  0.00  0.00    -0.218 N 
ATOM     27  N   UNL A   1     -27.437   1.252  29.534  0.00  0.00    -0.069 NA
ATOM     28  C   UNL A   1     -26.871   0.117  29.182  0.00  0.00    +0.346 C 
BRANCH  26  29
ATOM     29  C   UNL A   1     -24.855  -1.012  30.143  0.00  0.00    +0.119 C 
BRANCH  29  30
ATOM     30  C   UNL A   1     -24.973  -2.505  29.788  0.00  0.00    -0.003 C 
ATOM     31  C   UNL A   1     -23.906  -3.173  29.146  0.00  0.00    -0.003 C 
ATOM     32  C   UNL A   1     -23.989  -4.549  28.853  0.00  0.00    -0.000 C 
ATOM     33  C   UNL A   1     -25.137  -5.280  29.205  0.00  0.00    -0.000 C 
ATOM     34  C   UNL A   1     -26.232  -4.611  29.784  0.00  0.00    -0.000 C 
ATOM     35  C   UNL A   1     -26.155  -3.232  30.065  0.00  0.00    -0.003 C 
ENDBRANCH  29  30
BRANCH  29  36
ATOM     36  C   UNL A   1     -25.387  -0.679  31.571  0.00  0.00    +0.095 C 
ATOM     37  C   UNL A   1     -25.189   0.773  32.028  0.00  0.00    +0.021 C 
ATOM     38  C   UNL A   1     -25.336   0.684  33.544  0.00  0.00    +0.020 C 
ATOM     39  C   UNL A   1     -24.829  -0.715  33.905  0.00  0.00    +0.089 C 
ATOM     40  N   UNL A   1     -24.758  -1.481  32.646  0.00  0.00    -0.217 NA
ENDBRANCH  29  36
ENDBRANCH  26  29
ENDBRANCH  24  26
ENDBRANCH   6  24
TORSDOF 10
