REMARK  Name = outputs/IAG933/test6/raw/output_173_IAG933_linker_design_.xyz
REMARK  8 active torsions:
REMARK  status: ('A' for Active; 'I' for Inactive)
REMARK    1  A    between atoms: C_1  and  C_2
REMARK    2  A    between atoms: C_13  and  N_32
REMARK    3  A    between atoms: C_14  and  C_15
REMARK    4  A    between atoms: C_21  and  O_22
REMARK    5  A    between atoms: O_22  and  C_23
REMARK    6  A    between atoms: C_23  and  C_24
REMARK    7  A    between atoms: C_28  and  C_35
REMARK    8  A    between atoms: N_32  and  C_33
REMARK                            x       y       z     vdW  Elec       q    Type
REMARK                         _______ _______ _______ _____ _____    ______ ____
ROOT
ATOM      1  C   UNL A   1     -24.855  -1.012  30.143  0.00  0.00    +0.115 C 
ATOM      2  C   UNL A   1     -25.387  -0.679  31.571  0.00  0.00    +0.096 C 
ATOM      3  C   UNL A   1     -25.189   0.773  32.028  0.00  0.00    +0.029 C 
ATOM      4  C   UNL A   1     -25.336   0.684  33.544  0.00  0.00    +0.021 C 
ATOM      5  C   UNL A   1     -24.829  -0.715  33.905  0.00  0.00    +0.089 C 
ATOM      6  N   UNL A   1     -24.758  -1.481  32.646  0.00  0.00    -0.217 NA
ATOM      7  C   UNL A   1     -24.852   2.053  31.341  0.00  0.00    +0.086 C 
ATOM      8  C   UNL A   1     -25.098   0.571  28.435  0.00  0.00    +0.315 C 
ATOM      9  N   UNL A   1     -24.626   1.144  27.372  0.00  0.00    -0.217 N 
ATOM     10  N   UNL A   1     -24.413   0.295  29.565  0.00  0.00    -0.260 N 
ATOM     11  O   UNL A   1     -26.213  -0.172  28.279  0.00  0.00    -0.252 OA
ATOM     12  C   UNL A   1     -24.173   1.690  30.015  0.00  0.00    +0.103 C 
ENDROOT
BRANCH   9  13
ATOM     13  C   UNL A   1     -25.688   1.614  26.461  0.00  0.00    +0.098 C 
ATOM     14  C   UNL A   1     -26.250   2.920  26.395  0.00  0.00    +0.091 C 
ATOM     15  C   UNL A   1     -27.438   3.091  25.645  0.00  0.00    +0.108 C 
ATOM     16  N   UNL A   1     -28.075   2.089  25.003  0.00  0.00    -0.208 NA
ATOM     17  C   UNL A   1     -27.543   0.849  25.079  0.00  0.00    +0.255 C 
ATOM     18  C   UNL A   1     -26.354   0.576  25.777  0.00  0.00    +0.207 C 
ATOM     19  F   UNL A   1     -25.860  -0.681  25.795  0.00  0.00    -0.198 F 
BRANCH  14  20
ATOM     20  C   UNL A   1     -25.642   4.093  27.123  0.00  0.00    +0.268 C 
ATOM     21  N   UNL A   1     -25.614   5.252  26.449  0.00  0.00    -0.200 NA
ATOM     22  C   UNL A   1     -25.026   6.479  26.963  0.00  0.00    +0.139 C 
ATOM     23  O   UNL A   1     -25.143   3.966  28.243  0.00  0.00    -0.268 OA
ENDBRANCH  14  20
BRANCH  17  24
ATOM     24  O   UNL A   1     -28.193  -0.208  24.477  0.00  0.00    -0.456 OA
BRANCH  24  25
ATOM     25  C   UNL A   1     -29.460   0.005  23.866  0.00  0.00    +0.243 C 
BRANCH  25  26
ATOM     26  C   UNL A   1     -30.065  -1.377  23.573  0.00  0.00    +0.229 C 
ATOM     27  O   UNL A   1     -30.729  -1.878  24.721  0.00  0.00    -0.216 OA
ENDBRANCH  25  26
ENDBRANCH  24  25
ENDBRANCH  17  24
ENDBRANCH   9  13
BRANCH   1  28
ATOM     28  C   UNL A   1     -24.973  -2.505  29.788  0.00  0.00    -0.003 C 
ATOM     29  C   UNL A   1     -23.906  -3.173  29.146  0.00  0.00    -0.003 C 
ATOM     30  C   UNL A   1     -23.989  -4.549  28.853  0.00  0.00    -0.000 C 
ATOM     31  C   UNL A   1     -25.137  -5.280  29.205  0.00  0.00    -0.000 C 
ATOM     32  C   UNL A   1     -26.232  -4.611  29.784  0.00  0.00    -0.000 C 
ATOM     33  C   UNL A   1     -26.155  -3.232  30.065  0.00  0.00    -0.003 C 
ENDBRANCH   1  28
BRANCH   9  35
ATOM     34  N   UNL A   1     -20.989   2.086  26.874  0.00  0.00    -0.156 NA
ATOM     35  C   UNL A   1     -22.865   1.160  27.602  0.00  0.00    +0.093 C 
ATOM     36  C   UNL A   1     -21.570  -0.635  29.223  0.00  0.00    +0.052 C 
ATOM     37  C   UNL A   1     -21.710   0.542  28.313  0.00  0.00    +0.085 C 
ATOM     38  C   UNL A   1     -22.331   2.063  26.782  0.00  0.00    +0.136 C 
ATOM     39  N   UNL A   1     -20.631   1.142  27.808  0.00  0.00    -0.120 NA
ENDBRANCH   9  35
BRANCH   7  41
ATOM     40  O   UNL A   1     -26.807   3.327  32.189  0.00  0.00    -0.288 OA
ATOM     41  C   UNL A   1     -26.063   2.980  31.265  0.00  0.00    +0.209 C 
ENDBRANCH   7  41
TORSDOF 8
