MODEL 1731
MODEL 1
REMARK VINA RESULT:    -7.229      0.000      0.000
REMARK INTER + INTRA:          -9.981
REMARK INTER:                 -10.187
REMARK INTRA:                   0.206
REMARK UNBOUND:                 0.206
REMARK  Name = No_1731-gen_results/8p0m/2024-11-27-11-27-31/
REMARK  8 active torsions:
REMARK  status: ('A' for Active; 'I' for Inactive)
REMARK    1  A    between atoms: C_3  and  C_4
REMARK    2  A    between atoms: C_12  and  O_13
REMARK    3  A    between atoms: O_13  and  C_14
REMARK    4  A    between atoms: C_14  and  C_16
REMARK    5  A    between atoms: C_14  and  O_17
REMARK    6  A    between atoms: C_16  and  C_19
REMARK    7  A    between atoms: C_24  and  O_25
REMARK    8  A    between atoms: O_25  and  P_26
REMARK                            x       y       z     vdW  Elec       q    Type
REMARK                         _______ _______ _______ _____ _____    ______ ____
ROOT
ATOM      1  O   UNL A   1     -24.622   2.028  28.655  0.00  0.00    -0.451 OA
ENDROOT
BRANCH   1   7
ATOM      2  C   UNL A   1     -23.667  -1.509  29.208  0.00  0.00    +0.013 A 
ATOM      3  C   UNL A   1     -22.520  -1.337  29.162  0.00  0.00    +0.001 A 
ATOM      4  C   UNL A   1     -21.812  -0.060  29.218  0.00  0.00    +0.003 A 
ATOM      5  C   UNL A   1     -22.620   1.082  28.916  0.00  0.00    +0.038 A 
ATOM      6  C   UNL A   1     -24.317  -0.177  28.987  0.00  0.00    +0.092 A 
ATOM      7  C   UNL A   1     -23.847   0.942  28.880  0.00  0.00    +0.152 A 
ATOM      8 CL   UNL A   1     -26.087  -0.234  28.996  0.00  0.00    -0.079 Cl
BRANCH   2  11
ATOM      9  C   UNL A   1     -25.827  -2.666  30.061  0.00  0.00    +0.000 A 
ATOM     10  C   UNL A   1     -26.335  -3.589  30.041  0.00  0.00    +0.000 A 
ATOM     11  C   UNL A   1     -24.521  -2.702  29.402  0.00  0.00    +0.001 A 
ATOM     12  C   UNL A   1     -26.045  -4.913  29.508  0.00  0.00    +0.000 A 
ATOM     13  C   UNL A   1     -24.814  -4.991  28.889  0.00  0.00    +0.000 A 
ATOM     14  C   UNL A   1     -24.054  -3.887  28.776  0.00  0.00    +0.000 A 
ENDBRANCH   2  11
ENDBRANCH   1   7
BRANCH   1  15
ATOM     15  C   UNL A   1     -24.670   2.280  27.344  0.00  0.00    +0.292 C 
BRANCH  15  16
ATOM     16  O   UNL A   1     -24.738   3.103  27.945  0.00  0.00    -0.318 OA
ATOM     17  C   UNL A   1     -25.767   3.281  28.602  0.00  0.00    +0.178 C 
ENDBRANCH  15  16
BRANCH  15  18
ATOM     18  C   UNL A   1     -25.577   2.866  26.502  0.00  0.00    +0.106 C 
BRANCH  18  19
ATOM     19  C   UNL A   1     -25.857   2.089  25.410  0.00  0.00    +0.019 A 
ATOM     20  C   UNL A   1     -25.060   0.874  25.289  0.00  0.00    -0.001 A 
ATOM     21  C   UNL A   1     -25.692  -0.347  25.232  0.00  0.00    -0.000 A 
ATOM     22  C   UNL A   1     -26.878  -0.399  24.584  0.00  0.00    +0.003 A 
ATOM     23  C   UNL A   1     -27.523   0.810  24.199  0.00  0.00    +0.037 A 
ATOM     24  C   UNL A   1     -27.330   1.707  25.219  0.00  0.00    +0.143 A 
BRANCH  24  25
ATOM     25  O   UNL A   1     -27.732   1.301  26.255  0.00  0.00    -0.413 OA
BRANCH  25  26
ATOM     26  P   UNL A   1     -29.402   1.429  26.610  0.00  0.00    +0.533 P 
ATOM     27  O   UNL A   1     -29.518   2.202  27.791  0.00  0.00    -0.228 OA
ATOM     28  O   UNL A   1     -29.822  -0.066  26.885  0.00  0.00    -0.120 OA
ENDBRANCH  25  26
ENDBRANCH  24  25
ENDBRANCH  18  19
ENDBRANCH  15  18
ENDBRANCH   1  15
TORSDOF 8
ENDMDL
ENDMDL
