REMARK  Name = outputs/IAG933/test6/raw/output_1731_IAG933_linker_design_.xyz
REMARK  9 active torsions:
REMARK  status: ('A' for Active; 'I' for Inactive)
REMARK    1  A    between atoms: C_1  and  C_2
REMARK    2  A    between atoms: C_1  and  C_8
REMARK    3  A    between atoms: C_1  and  N_34
REMARK    4  A    between atoms: C_13  and  C_32
REMARK    5  A    between atoms: C_14  and  C_15
REMARK    6  A    between atoms: C_21  and  O_22
REMARK    7  A    between atoms: O_22  and  C_23
REMARK    8  A    between atoms: C_23  and  C_24
REMARK    9  A    between atoms: C_28  and  N_39
REMARK                            x       y       z     vdW  Elec       q    Type
REMARK                         _______ _______ _______ _____ _____    ______ ____
ROOT
ATOM      1  C   UNL A   1     -24.750   1.068  28.625  0.00  0.00    +0.311 C 
ATOM      2  O   UNL A   1     -21.352   1.784  26.122  0.00  0.00    -0.246 OA
ATOM      3  F   UNL A   1     -20.677   0.903  28.228  0.00  0.00    -0.212 F 
ATOM      4  C   UNL A   1     -24.525   1.438  27.240  0.00  0.00    +0.256 C 
ATOM      5  C   UNL A   1     -22.075   0.809  28.073  0.00  0.00    +0.366 C 
ATOM      6  N   UNL A   1     -24.137   0.012  29.300  0.00  0.00    -0.170 N 
ATOM      7  C   UNL A   1     -22.344   1.539  26.955  0.00  0.00    +0.363 C 
ATOM      8  O   UNL A   1     -23.557   1.868  26.574  0.00  0.00    -0.439 OA
ATOM      9  N   UNL A   1     -22.048  -0.822  29.837  0.00  0.00    +0.192 NA
ATOM     10  C   UNL A   1     -22.792  -0.032  29.117  0.00  0.00    +0.398 C 
ENDROOT
BRANCH   4  11
ATOM     11  C   UNL A   1     -25.688   1.614  26.461  0.00  0.00    +0.061 C 
ATOM     12  C   UNL A   1     -26.250   2.920  26.395  0.00  0.00    +0.076 C 
ATOM     13  C   UNL A   1     -27.438   3.091  25.645  0.00  0.00    +0.106 C 
ATOM     14  N   UNL A   1     -28.075   2.089  25.003  0.00  0.00    -0.208 NA
ATOM     15  C   UNL A   1     -27.543   0.849  25.079  0.00  0.00    +0.253 C 
ATOM     16  C   UNL A   1     -26.354   0.576  25.777  0.00  0.00    +0.193 C 
ATOM     17  F   UNL A   1     -25.860  -0.681  25.795  0.00  0.00    -0.200 F 
BRANCH  12  18
ATOM     18  C   UNL A   1     -25.642   4.093  27.123  0.00  0.00    +0.266 C 
ATOM     19  N   UNL A   1     -25.614   5.252  26.449  0.00  0.00    -0.200 NA
ATOM     20  C   UNL A   1     -25.026   6.479  26.963  0.00  0.00    +0.139 C 
ATOM     21  O   UNL A   1     -25.143   3.966  28.243  0.00  0.00    -0.268 OA
ENDBRANCH  12  18
BRANCH  15  22
ATOM     22  O   UNL A   1     -28.193  -0.208  24.477  0.00  0.00    -0.456 OA
BRANCH  22  23
ATOM     23  C   UNL A   1     -29.460   0.005  23.866  0.00  0.00    +0.243 C 
BRANCH  23  24
ATOM     24  C   UNL A   1     -30.065  -1.377  23.573  0.00  0.00    +0.229 C 
ATOM     25  O   UNL A   1     -30.729  -1.878  24.721  0.00  0.00    -0.216 OA
ENDBRANCH  23  24
ENDBRANCH  22  23
ENDBRANCH  15  22
ENDBRANCH   4  11
BRANCH   1  27
ATOM     26  O   UNL A   1     -26.958   1.761  29.014  0.00  0.00    -0.096 OA
ATOM     27  N   UNL A   1     -25.718   1.748  29.224  0.00  0.00    +0.002 NA
ENDBRANCH   1  27
BRANCH   6  28
ATOM     28  C   UNL A   1     -24.855  -1.012  30.143  0.00  0.00    +0.200 C 
BRANCH  28  29
ATOM     29  C   UNL A   1     -24.973  -2.505  29.788  0.00  0.00    +0.021 C 
ATOM     30  C   UNL A   1     -23.906  -3.173  29.146  0.00  0.00    -0.000 C 
ATOM     31  C   UNL A   1     -23.989  -4.549  28.853  0.00  0.00    -0.000 C 
ATOM     32  C   UNL A   1     -25.137  -5.280  29.205  0.00  0.00    -0.000 C 
ATOM     33  C   UNL A   1     -26.232  -4.611  29.784  0.00  0.00    -0.000 C 
ATOM     34  C   UNL A   1     -26.155  -3.232  30.065  0.00  0.00    -0.000 C 
ENDBRANCH  28  29
BRANCH  28  35
ATOM     35  C   UNL A   1     -25.387  -0.679  31.571  0.00  0.00    +0.120 C 
ATOM     36  C   UNL A   1     -25.189   0.773  32.028  0.00  0.00    +0.023 C 
ATOM     37  C   UNL A   1     -25.336   0.684  33.544  0.00  0.00    +0.020 C 
ATOM     38  C   UNL A   1     -24.829  -0.715  33.905  0.00  0.00    +0.089 C 
ATOM     39  N   UNL A   1     -24.758  -1.481  32.646  0.00  0.00    -0.215 NA
ENDBRANCH  28  35
ENDBRANCH   6  28
TORSDOF 9
