MODEL 1732
MODEL 1
REMARK VINA RESULT:    -6.986      0.000      0.000
REMARK INTER + INTRA:          -9.297
REMARK INTER:                  -8.211
REMARK INTRA:                  -1.086
REMARK UNBOUND:                -1.086
REMARK  Name = No_1732-gen_results/8p0m/2024-11-27-11-27-31/
REMARK  3 active torsions:
REMARK  status: ('A' for Active; 'I' for Inactive)
REMARK    1  A    between atoms: C_2  and  C_5
REMARK    2  A    between atoms: C_5  and  C_6
REMARK    3  A    between atoms: C_9  and  C_10
REMARK                            x       y       z     vdW  Elec       q    Type
REMARK                         _______ _______ _______ _____ _____    ______ ____
ROOT
ATOM      1  C   UNL A   1     -23.508  -0.007  28.626  0.00  0.00    +0.043 A 
ATOM      2  C   UNL A   1     -23.241   1.075  27.908  0.00  0.00    +0.003 A 
ATOM      3  C   UNL A   1     -24.503  -0.970  28.166  0.00  0.00    +0.003 A 
ATOM      4  C   UNL A   1     -25.275  -0.603  26.999  0.00  0.00    +0.000 A 
ATOM      5  C   UNL A   1     -24.767   0.382  26.084  0.00  0.00    +0.000 A 
ATOM      6  C   UNL A   1     -23.899   1.352  26.685  0.00  0.00    +0.000 A 
ENDROOT
BRANCH   3   7
ATOM      7  C   UNL A   1     -24.744  -2.192  28.706  0.00  0.00    +0.000 A 
ATOM      8  C   UNL A   1     -25.938  -2.419  29.541  0.00  0.00    +0.000 A 
ATOM      9  C   UNL A   1     -26.288  -3.549  29.868  0.00  0.00    +0.000 A 
ATOM     10  C   UNL A   1     -25.592  -4.708  29.470  0.00  0.00    +0.000 A 
ATOM     11  C   UNL A   1     -24.377  -4.556  28.958  0.00  0.00    +0.000 A 
ATOM     12  C   UNL A   1     -24.008  -3.306  28.490  0.00  0.00    +0.000 A 
ENDBRANCH   3   7
BRANCH   1  13
ATOM     13  C   UNL A   1     -23.011  -0.127  29.941  0.00  0.00    +0.267 C 
ATOM     14  O   UNL A   1     -21.920  -0.738  30.217  0.00  0.00    -0.282 OA
BRANCH  13  16
ATOM     15  F   UNL A   1     -24.918   0.628  30.639  0.00  0.00    -0.163 F 
ATOM     16  C   UNL A   1     -23.814   0.685  30.938  0.00  0.00    +0.455 C 
ATOM     17  F   UNL A   1     -23.361   1.761  31.102  0.00  0.00    -0.163 F 
ATOM     18  F   UNL A   1     -23.708  -0.042  32.162  0.00  0.00    -0.163 F 
ENDBRANCH  13  16
ENDBRANCH   1  13
TORSDOF 3
ENDMDL
ENDMDL
