REMARK  Name = outputs/IAG933/test6/raw/output_1733_IAG933_linker_design_.xyz
REMARK  13 active torsions:
REMARK  status: ('A' for Active; 'I' for Inactive)
REMARK    1  A    between atoms: C_1  and  C_2
REMARK    2  A    between atoms: C_1  and  C_8
REMARK    3  A    between atoms: C_1  and  N_39
REMARK    4  A    between atoms: C_13  and  C_28
REMARK    5  A    between atoms: C_14  and  C_15
REMARK    6  A    between atoms: C_21  and  O_22
REMARK    7  A    between atoms: O_22  and  C_23
REMARK    8  A    between atoms: C_23  and  C_24
REMARK    9  A    between atoms: C_30  and  O_36
REMARK   10  A    between atoms: C_30  and  C_43
REMARK   11  A    between atoms: C_31  and  N_42
REMARK   12  A    between atoms: C_34  and  C_41
REMARK   13  A    between atoms: N_42  and  C_43
REMARK                            x       y       z     vdW  Elec       q    Type
REMARK                         _______ _______ _______ _____ _____    ______ ____
ROOT
ATOM      1  C   UNL A   1     -25.068   1.157  27.501  0.00  0.00    +0.019 A 
ATOM      2  C   UNL A   1     -23.694   1.234  27.638  0.00  0.00    +0.028 A 
ATOM      3  C   UNL A   1     -25.771   0.257  28.347  0.00  0.00    +0.132 A 
ATOM      4  C   UNL A   1     -22.625   1.801  27.012  0.00  0.00    +0.089 C 
ATOM      5  C   UNL A   1     -22.178   0.335  29.154  0.00  0.00    +0.116 C 
ATOM      6  N   UNL A   1     -24.584   0.015  29.147  0.00  0.00    -0.310 N 
ATOM      7  C   UNL A   1     -21.352   1.568  27.391  0.00  0.00    +0.109 C 
ATOM      8  N   UNL A   1     -21.161   0.916  28.470  0.00  0.00    -0.240 NA
ATOM      9  C   UNL A   1     -23.467   0.500  28.703  0.00  0.00    +0.081 A 
ENDROOT
BRANCH   1  10
ATOM     10  C   UNL A   1     -25.688   1.614  26.461  0.00  0.00    +0.095 C 
ATOM     11  C   UNL A   1     -26.250   2.920  26.395  0.00  0.00    +0.059 C 
ATOM     12  C   UNL A   1     -27.438   3.091  25.645  0.00  0.00    +0.102 C 
ATOM     13  N   UNL A   1     -28.075   2.089  25.003  0.00  0.00    -0.212 NA
ATOM     14  C   UNL A   1     -27.543   0.849  25.079  0.00  0.00    +0.234 C 
ATOM     15  C   UNL A   1     -26.354   0.576  25.777  0.00  0.00    +0.244 C 
ATOM     16  F   UNL A   1     -25.860  -0.681  25.795  0.00  0.00    -0.227 F 
BRANCH  11  17
ATOM     17  C   UNL A   1     -25.642   4.093  27.123  0.00  0.00    +0.263 C 
ATOM     18  N   UNL A   1     -25.614   5.252  26.449  0.00  0.00    -0.200 NA
ATOM     19  C   UNL A   1     -25.026   6.479  26.963  0.00  0.00    +0.139 C 
ATOM     20  O   UNL A   1     -25.143   3.966  28.243  0.00  0.00    -0.269 OA
ENDBRANCH  11  17
BRANCH  14  21
ATOM     21  O   UNL A   1     -28.193  -0.208  24.477  0.00  0.00    -0.459 OA
BRANCH  21  22
ATOM     22  C   UNL A   1     -29.460   0.005  23.866  0.00  0.00    +0.242 C 
BRANCH  22  23
ATOM     23  C   UNL A   1     -30.065  -1.377  23.573  0.00  0.00    +0.229 C 
ATOM     24  O   UNL A   1     -30.729  -1.878  24.721  0.00  0.00    -0.216 OA
ENDBRANCH  22  23
ENDBRANCH  21  22
ENDBRANCH  14  21
ENDBRANCH   1  10
BRANCH   4  26
ATOM     25  N   UNL A   1     -22.550   3.389  25.115  0.00  0.00    -0.191 NA
ATOM     26  C   UNL A   1     -22.647   2.666  25.963  0.00  0.00    +0.102 C 
ENDBRANCH   4  26
BRANCH   6  27
ATOM     27  C   UNL A   1     -24.855  -1.012  30.143  0.00  0.00    +0.125 C 
BRANCH  27  28
ATOM     28  C   UNL A   1     -24.973  -2.505  29.788  0.00  0.00    -0.000 C 
ATOM     29  C   UNL A   1     -23.906  -3.173  29.146  0.00  0.00    -0.002 C 
ATOM     30  C   UNL A   1     -23.989  -4.549  28.853  0.00  0.00    -0.000 C 
ATOM     31  C   UNL A   1     -25.137  -5.280  29.205  0.00  0.00    -0.000 C 
ATOM     32  C   UNL A   1     -26.232  -4.611  29.784  0.00  0.00    -0.000 C 
ATOM     33  C   UNL A   1     -26.155  -3.232  30.065  0.00  0.00    -0.002 C 
ENDBRANCH  27  28
BRANCH  27  34
ATOM     34  C   UNL A   1     -25.387  -0.679  31.571  0.00  0.00    +0.098 C 
ATOM     35  C   UNL A   1     -25.189   0.773  32.028  0.00  0.00    +0.021 C 
ATOM     36  C   UNL A   1     -25.336   0.684  33.544  0.00  0.00    +0.020 C 
ATOM     37  C   UNL A   1     -24.829  -0.715  33.905  0.00  0.00    +0.089 C 
ATOM     38  N   UNL A   1     -24.758  -1.481  32.646  0.00  0.00    -0.217 NA
ENDBRANCH  27  34
ENDBRANCH   6  27
BRANCH   3  39
ATOM     39  N   UNL A   1     -27.346   0.115  28.762  0.00  0.00    -0.144 NA
BRANCH  39  42
ATOM     40  O   UNL A   1     -28.961  -1.423  29.318  0.00  0.00    -0.249 OA
ATOM     41  O   UNL A   1     -29.591  -0.002  27.685  0.00  0.00    -0.249 OA
ATOM     42  C   UNL A   1     -28.918  -0.090  28.927  0.00  0.00    +0.458 C 
BRANCH  42  43
ATOM     43  C   UNL A   1     -29.363   0.978  29.919  0.00  0.00    +0.221 C 
ATOM     44  C   UNL A   1     -30.790   0.927  30.355  0.00  0.00    +0.042 C 
BRANCH  43  45
ATOM     45  O   UNL A   1     -29.169   2.439  29.675  0.00  0.00    -0.344 OA
ATOM     46  C   UNL A   1     -29.290   2.780  28.313  0.00  0.00    +0.174 C 
ENDBRANCH  43  45
ENDBRANCH  42  43
ENDBRANCH  39  42
ENDBRANCH   3  39
TORSDOF 13
