MODEL 1734
MODEL 1
REMARK VINA RESULT:    -7.935      0.000      0.000
REMARK INTER + INTRA:          -7.935
REMARK INTER:                  -7.935
REMARK INTRA:                   0.000
REMARK UNBOUND:                 0.000
REMARK  Name = No_1734-gen_results/8p0m/2024-11-27-11-27-31/
REMARK  0 active torsions:
REMARK  status: ('A' for Active; 'I' for Inactive)
REMARK                            x       y       z     vdW  Elec       q    Type
REMARK                         _______ _______ _______ _____ _____    ______ ____
ROOT
ATOM      1  C   UNL A   1     -24.635  -1.570  29.773  0.00  0.00    -0.017 A 
ATOM      2  C   UNL A   1     -23.926  -2.088  29.189  0.00  0.00    +0.050 A 
ATOM      3  C   UNL A   1     -25.889  -2.281  30.069  0.00  0.00    -0.008 A 
ATOM      4  C   UNL A   1     -26.054  -3.647  29.697  0.00  0.00    -0.001 A 
ATOM      5  C   UNL A   1     -23.828  -3.502  28.734  0.00  0.00    +0.004 A 
ATOM      6  C   UNL A   1     -24.977  -4.191  28.983  0.00  0.00    +0.000 A 
ATOM      7  C   UNL A   1     -22.674  -1.184  28.907  0.00  0.00    +0.249 C 
ATOM      8  O   UNL A   1     -21.579  -1.504  29.176  0.00  0.00    -0.270 OA
ATOM      9  N   UNL A   1     -22.957  -0.010  28.319  0.00  0.00    -0.277 N 
ATOM     10  C   UNL A   1     -22.283   0.883  28.082  0.00  0.00    +0.094 C 
ATOM     11  C   UNL A   1     -22.742   2.020  27.810  0.00  0.00    +0.022 C 
ATOM     12  C   UNL A   1     -24.169   2.173  27.665  0.00  0.00    +0.004 C 
ATOM     13  C   UNL A   1     -25.017   1.169  27.958  0.00  0.00    +0.020 C 
ATOM     14  C   UNL A   1     -24.466   0.060  28.335  0.00  0.00    +0.080 C 
ATOM     15  C   UNL A   1     -25.347  -0.813  29.013  0.00  0.00    +0.041 C 
ATOM     16  C   UNL A   1     -27.039  -1.716  30.795  0.00  0.00    -0.023 A 
ATOM     17  C   UNL A   1     -28.186  -2.589  30.760  0.00  0.00    -0.004 A 
ATOM     18  C   UNL A   1     -26.777  -0.787  28.626  0.00  0.00    +0.010 C 
ATOM     19  C   UNL A   1     -27.134  -4.357  30.066  0.00  0.00    -0.000 A 
ATOM     20  C   UNL A   1     -28.222  -3.908  30.700  0.00  0.00    -0.000 A 
ATOM     21  C   UNL A   1     -27.402  -0.413  30.195  0.00  0.00    +0.019 C 
ATOM     22  C   UNL A   1     -28.862  -0.087  30.072  0.00  0.00    +0.004 C 
ATOM     23  C   UNL A   1     -26.858   0.791  30.922  0.00  0.00    +0.004 C 
ENDROOT
TORSDOF 0
ENDMDL
ENDMDL
