REMARK  Name = outputs/IAG933/test6/raw/output_1735_IAG933_linker_design_.xyz
REMARK  12 active torsions:
REMARK  status: ('A' for Active; 'I' for Inactive)
REMARK    1  A    between atoms: C_1  and  C_2
REMARK    2  A    between atoms: C_1  and  C_8
REMARK    3  A    between atoms: C_1  and  N_32
REMARK    4  A    between atoms: C_13  and  C_41
REMARK    5  A    between atoms: C_14  and  C_15
REMARK    6  A    between atoms: C_21  and  O_22
REMARK    7  A    between atoms: O_22  and  C_23
REMARK    8  A    between atoms: C_23  and  C_24
REMARK    9  A    between atoms: C_28  and  N_32
REMARK   10  A    between atoms: C_30  and  O_44
REMARK   11  A    between atoms: N_32  and  C_37
REMARK   12  A    between atoms: C_38  and  C_43
REMARK                            x       y       z     vdW  Elec       q    Type
REMARK                         _______ _______ _______ _____ _____    ______ ____
ROOT
ATOM      1  C   UNL A   1     -24.488   0.486  28.339  0.00  0.00    +0.025 C 
ATOM      2  C   UNL A   1     -22.528   1.512  27.063  0.00  0.00    +0.120 C 
ATOM      3  C   UNL A   1     -23.126   0.102  28.818  0.00  0.00    +0.044 C 
ATOM      4  C   UNL A   1     -23.286   1.795  27.001  0.00  0.00    +0.057 C 
ATOM      5  C   UNL A   1     -24.530   1.310  27.291  0.00  0.00    -0.008 C 
ATOM      6  C   UNL A   1     -21.954   0.870  28.039  0.00  0.00    +0.036 C 
ENDROOT
BRANCH   5   7
ATOM      7  C   UNL A   1     -25.688   1.614  26.461  0.00  0.00    +0.035 C 
ATOM      8  C   UNL A   1     -26.250   2.920  26.395  0.00  0.00    +0.076 C 
ATOM      9  C   UNL A   1     -27.438   3.091  25.645  0.00  0.00    +0.107 C 
ATOM     10  N   UNL A   1     -28.075   2.089  25.003  0.00  0.00    -0.208 NA
ATOM     11  C   UNL A   1     -27.543   0.849  25.079  0.00  0.00    +0.253 C 
ATOM     12  C   UNL A   1     -26.354   0.576  25.777  0.00  0.00    +0.193 C 
ATOM     13  F   UNL A   1     -25.860  -0.681  25.795  0.00  0.00    -0.199 F 
BRANCH   8  14
ATOM     14  C   UNL A   1     -25.642   4.093  27.123  0.00  0.00    +0.266 C 
ATOM     15  N   UNL A   1     -25.614   5.252  26.449  0.00  0.00    -0.200 NA
ATOM     16  C   UNL A   1     -25.026   6.479  26.963  0.00  0.00    +0.139 C 
ATOM     17  O   UNL A   1     -25.143   3.966  28.243  0.00  0.00    -0.268 OA
ENDBRANCH   8  14
BRANCH  11  18
ATOM     18  O   UNL A   1     -28.193  -0.208  24.477  0.00  0.00    -0.456 OA
BRANCH  18  19
ATOM     19  C   UNL A   1     -29.460   0.005  23.866  0.00  0.00    +0.243 C 
BRANCH  19  20
ATOM     20  C   UNL A   1     -30.065  -1.377  23.573  0.00  0.00    +0.229 C 
ATOM     21  O   UNL A   1     -30.729  -1.878  24.721  0.00  0.00    -0.216 OA
ENDBRANCH  19  20
ENDBRANCH  18  19
ENDBRANCH  11  18
ENDBRANCH   5   7
BRANCH   2  23
ATOM     22  C   UNL A   1     -22.556   1.956  24.723  0.00  0.00    +0.174 C 
ATOM     23  O   UNL A   1     -22.237   1.554  26.104  0.00  0.00    -0.353 OA
ENDBRANCH   2  23
BRANCH   1  24
ATOM     24  N   UNL A   1     -25.526  -0.194  29.069  0.00  0.00    -0.287 N 
BRANCH  24  28
ATOM     25  C   UNL A   1     -27.979  -0.497  28.956  0.00  0.00    +0.015 C 
ATOM     26  C   UNL A   1     -26.986   1.558  29.801  0.00  0.00    +0.013 C 
ATOM     27  C   UNL A   1     -29.223  -0.106  29.494  0.00  0.00    +0.001 C 
ATOM     28  C   UNL A   1     -26.819   0.299  29.225  0.00  0.00    +0.051 C 
ATOM     29  C   UNL A   1     -29.352   1.113  30.182  0.00  0.00    -0.002 C 
ATOM     30  C   UNL A   1     -28.200   1.921  30.396  0.00  0.00    +0.012 C 
BRANCH  30  32
ATOM     31  O   UNL A   1     -26.780   3.360  31.689  0.00  0.00    -0.215 OA
ATOM     32  C   UNL A   1     -28.153   3.035  31.398  0.00  0.00    +0.209 C 
ENDBRANCH  30  32
ENDBRANCH  24  28
BRANCH  24  33
ATOM     33  C   UNL A   1     -24.855  -1.012  30.143  0.00  0.00    +0.115 C 
BRANCH  33  34
ATOM     34  C   UNL A   1     -24.973  -2.505  29.788  0.00  0.00    -0.003 C 
ATOM     35  C   UNL A   1     -23.906  -3.173  29.146  0.00  0.00    -0.003 C 
ATOM     36  C   UNL A   1     -23.989  -4.549  28.853  0.00  0.00    -0.000 C 
ATOM     37  C   UNL A   1     -25.137  -5.280  29.205  0.00  0.00    -0.000 C 
ATOM     38  C   UNL A   1     -26.232  -4.611  29.784  0.00  0.00    -0.000 C 
ATOM     39  C   UNL A   1     -26.155  -3.232  30.065  0.00  0.00    -0.003 C 
ENDBRANCH  33  34
BRANCH  33  40
ATOM     40  C   UNL A   1     -25.387  -0.679  31.571  0.00  0.00    +0.095 C 
ATOM     41  C   UNL A   1     -25.189   0.773  32.028  0.00  0.00    +0.021 C 
ATOM     42  C   UNL A   1     -25.336   0.684  33.544  0.00  0.00    +0.020 C 
ATOM     43  C   UNL A   1     -24.829  -0.715  33.905  0.00  0.00    +0.089 C 
ATOM     44  N   UNL A   1     -24.758  -1.481  32.646  0.00  0.00    -0.217 NA
ENDBRANCH  33  40
ENDBRANCH  24  33
ENDBRANCH   1  24
TORSDOF 12
