MODEL 1735
MODEL 1
REMARK VINA RESULT:    -4.908      0.000      0.000
REMARK INTER + INTRA:          -5.265
REMARK INTER:                  -5.195
REMARK INTRA:                  -0.070
REMARK UNBOUND:                -0.070
REMARK  Name = No_1735-gen_results/8p0m/2024-11-27-11-27-31/
REMARK  1 active torsions:
REMARK  status: ('A' for Active; 'I' for Inactive)
REMARK    1  A    between atoms: C_2  and  C_7
REMARK                            x       y       z     vdW  Elec       q    Type
REMARK                         _______ _______ _______ _____ _____    ______ ____
ROOT
ATOM      1  C   UNL A   1     -23.882  -3.553  28.570  0.00  0.00    -0.000 A 
ATOM      2  C   UNL A   1     -24.667  -2.717  28.953  0.00  0.00    -0.000 A 
ATOM      3  C   UNL A   1     -25.864  -3.081  29.561  0.00  0.00    -0.000 A 
ATOM      4  C   UNL A   1     -26.226  -4.466  29.714  0.00  0.00    -0.000 A 
ATOM      5  C   UNL A   1     -25.271  -5.366  29.223  0.00  0.00    -0.000 A 
ATOM      6  C   UNL A   1     -24.163  -4.971  28.640  0.00  0.00    -0.000 A 
ENDROOT
BRANCH   2   7
ATOM      7  C   UNL A   1     -24.471  -1.246  28.852  0.00  0.00    -0.005 C 
ATOM      8  C   UNL A   1     -23.680  -0.587  29.623  0.00  0.00    -0.026 C 
ATOM      9  C   UNL A   1     -23.460  -1.121  31.033  0.00  0.00    +0.031 C 
ENDBRANCH   2   7
TORSDOF 1
ENDMDL
ENDMDL
