MODEL 1736
MODEL 1
REMARK VINA RESULT:    -6.437      0.000      0.000
REMARK INTER + INTRA:          -9.744
REMARK INTER:                  -9.071
REMARK INTRA:                  -0.673
REMARK UNBOUND:                -0.673
REMARK  Name = No_1736-gen_results/8p0m/2024-11-27-11-27-31/
REMARK  7 active torsions:
REMARK  status: ('A' for Active; 'I' for Inactive)
REMARK    1  A    between atoms: C_1  and  C_2
REMARK    2  A    between atoms: C_1  and  C_8
REMARK    3  A    between atoms: C_5  and  C_10
REMARK    4  A    between atoms: C_8  and  C_9
REMARK    5  A    between atoms: C_13  and  C_14
REMARK    6  A    between atoms: C_15  and  C_16
REMARK    7  A    between atoms: C_17  and  C_18
REMARK                            x       y       z     vdW  Elec       q    Type
REMARK                         _______ _______ _______ _____ _____    ______ ____
ROOT
ATOM      1  C   UNL A   1     -29.921 -10.958  28.930  0.00  0.00    +0.031 C 
ENDROOT
BRANCH   1   2
ATOM      2  C   UNL A   1     -29.498 -11.101  30.054  0.00  0.00    -0.022 A 
ATOM      3  C   UNL A   1     -29.786 -10.272  31.125  0.00  0.00    -0.004 A 
ATOM      4  C   UNL A   1     -29.232 -10.371  32.455  0.00  0.00    +0.008 A 
ATOM      5  C   UNL A   1     -28.399 -11.039  32.663  0.00  0.00    +0.098 A 
ATOM      6  C   UNL A   1     -27.862 -12.060  31.737  0.00  0.00    +0.008 A 
ATOM      7  C   UNL A   1     -28.419 -11.974  30.486  0.00  0.00    -0.004 A 
BRANCH   5   8
ATOM      8  C   UNL A   1     -27.701 -11.281  34.072  0.00  0.00    +0.477 C 
ATOM      9  N   UNL A   1     -26.805 -10.501  34.555  0.00  0.00    +0.205 NA
ATOM     10  N   UNL A   1     -27.821 -12.531  34.557  0.00  0.00    +0.205 NA
ENDBRANCH   5   8
ENDBRANCH   1   2
BRANCH   1  11
ATOM     11  C   UNL A   1     -29.196 -11.851  27.907  0.00  0.00    +0.031 C 
BRANCH  11  12
ATOM     12  C   UNL A   1     -29.527 -11.697  26.511  0.00  0.00    -0.026 C 
ATOM     13  C   UNL A   1     -30.200 -12.625  26.013  0.00  0.00    -0.005 C 
BRANCH  13  14
ATOM     14  C   UNL A   1     -30.461 -12.416  24.560  0.00  0.00    -0.000 C 
ATOM     15  C   UNL A   1     -30.640 -13.598  23.781  0.00  0.00    -0.000 C 
BRANCH  15  16
ATOM     16  C   UNL A   1     -30.004 -14.175  23.096  0.00  0.00    -0.000 C 
ATOM     17  C   UNL A   1     -29.774 -13.949  21.632  0.00  0.00    -0.000 C 
BRANCH  17  18
ATOM     18  C   UNL A   1     -30.517 -12.916  21.083  0.00  0.00    +0.000 C 
ATOM     19  C   UNL A   1     -29.936 -11.755  20.687  0.00  0.00    +0.000 C 
ENDBRANCH  17  18
ENDBRANCH  15  16
ENDBRANCH  13  14
ENDBRANCH  11  12
ENDBRANCH   1  11
TORSDOF 7
ENDMDL
ENDMDL
