MODEL 1737
MODEL 1
REMARK VINA RESULT:    -7.256      0.000      0.000
REMARK INTER + INTRA:          -8.523
REMARK INTER:                  -8.104
REMARK INTRA:                  -0.420
REMARK UNBOUND:                -0.420
REMARK  Name = No_1737-gen_results/8p0m/2024-11-27-11-27-31/
REMARK  2 active torsions:
REMARK  status: ('A' for Active; 'I' for Inactive)
REMARK    1  A    between atoms: C_3  and  C_21
REMARK    2  A    between atoms: C_5  and  C_10
REMARK                            x       y       z     vdW  Elec       q    Type
REMARK                         _______ _______ _______ _____ _____    ______ ____
ROOT
ATOM      1  C   UNL A   1     -26.297   2.025  25.366  0.00  0.00    +0.070 A 
ATOM      2  C   UNL A   1     -25.478   1.642  26.170  0.00  0.00    +0.019 A 
ATOM      3  C   UNL A   1     -24.526   2.463  26.742  0.00  0.00    +0.056 A 
ATOM      4  C   UNL A   1     -23.477   2.037  27.649  0.00  0.00    +0.009 A 
ATOM      5  C   UNL A   1     -23.400   0.674  28.008  0.00  0.00    +0.072 A 
ATOM      6  C   UNL A   1     -24.379  -0.196  27.407  0.00  0.00    +0.004 A 
ATOM      7  C   UNL A   1     -25.343   0.224  26.520  0.00  0.00    +0.001 A 
ATOM      8  N   UNL A   1     -27.112   3.044  25.771  0.00  0.00    -0.177 NA
ATOM      9  C   UNL A   1     -28.257   3.308  25.112  0.00  0.00    +0.276 C 
ATOM     10  C   UNL A   1     -28.710   2.392  24.199  0.00  0.00    +0.234 C 
ATOM     11  C   UNL A   1     -27.983   1.228  23.873  0.00  0.00    +0.070 C 
ATOM     12  C   UNL A   1     -26.912   0.943  24.625  0.00  0.00    -0.004 A 
ATOM     13  O   UNL A   1     -28.884   4.375  25.324  0.00  0.00    -0.270 OA
ATOM     14  C   UNL A   1     -26.219  -0.322  24.497  0.00  0.00    -0.003 A 
ATOM     15  C   UNL A   1     -25.450  -0.752  25.479  0.00  0.00    -0.000 A 
ATOM     16  O   UNL A   1     -29.828   2.688  23.480  0.00  0.00    -0.213 OA
ENDROOT
BRANCH   5  17
ATOM     17  C   UNL A   1     -22.402   0.170  28.897  0.00  0.00    +0.419 C 
ATOM     18  F   UNL A   1     -22.384   0.573  29.927  0.00  0.00    -0.166 F 
ATOM     19  F   UNL A   1     -21.127   0.368  28.321  0.00  0.00    -0.166 F 
ATOM     20  F   UNL A   1     -22.485  -1.206  28.867  0.00  0.00    -0.166 F 
ENDBRANCH   5  17
BRANCH   3  21
ATOM     21  C   UNL A   1     -24.500   3.924  26.453  0.00  0.00    +0.265 C 
ATOM     22  O   UNL A   1     -24.047   4.405  25.454  0.00  0.00    -0.268 OA
ATOM     23  N   UNL A   1     -24.814   4.789  27.484  0.00  0.00    -0.200 NA
ATOM     24  C   UNL A   1     -24.813   6.221  27.340  0.00  0.00    +0.139 C 
ENDBRANCH   3  21
TORSDOF 2
ENDMDL
ENDMDL
