REMARK  Name = outputs/IAG933/test6/raw/output_1737_IAG933_linker_design_.xyz
REMARK  11 active torsions:
REMARK  status: ('A' for Active; 'I' for Inactive)
REMARK    1  A    between atoms: C_1  and  C_2
REMARK    2  A    between atoms: C_1  and  C_8
REMARK    3  A    between atoms: C_1  and  C_45
REMARK    4  A    between atoms: C_13  and  N_41
REMARK    5  A    between atoms: C_14  and  C_15
REMARK    6  A    between atoms: C_21  and  O_22
REMARK    7  A    between atoms: O_22  and  C_23
REMARK    8  A    between atoms: C_23  and  C_24
REMARK    9  A    between atoms: C_28  and  N_34
REMARK   10  A    between atoms: C_30  and  N_34
REMARK   11  A    between atoms: O_36  and  C_44
REMARK                            x       y       z     vdW  Elec       q    Type
REMARK                         _______ _______ _______ _____ _____    ______ ____
ROOT
ATOM      1  C   UNL A   1     -25.252   0.611  28.442  0.00  0.00    +0.183 C 
ATOM      2  C   UNL A   1     -21.087   1.280  27.775  0.00  0.00    +0.257 C 
ATOM      3  C   UNL A   1     -22.915   0.101  29.088  0.00  0.00    +0.363 C 
ATOM      4  N   UNL A   1     -22.505   0.917  28.020  0.00  0.00    -0.146 N 
ATOM      5  C   UNL A   1     -23.459   1.566  27.256  0.00  0.00    +0.395 C 
ATOM      6  F   UNL A   1     -23.049   2.430  26.349  0.00  0.00    -0.169 F 
ATOM      7  N   UNL A   1     -24.739   1.284  27.438  0.00  0.00    -0.182 NA
ATOM      8  N   UNL A   1     -22.100  -0.510  29.825  0.00  0.00    +0.209 NA
ATOM      9  C   UNL A   1     -24.373  -0.088  29.193  0.00  0.00    +0.080 C 
ENDROOT
BRANCH   7  10
ATOM     10  C   UNL A   1     -25.688   1.614  26.461  0.00  0.00    +0.136 C 
ATOM     11  C   UNL A   1     -26.250   2.920  26.395  0.00  0.00    +0.070 C 
ATOM     12  C   UNL A   1     -27.438   3.091  25.645  0.00  0.00    +0.103 C 
ATOM     13  N   UNL A   1     -28.075   2.089  25.003  0.00  0.00    -0.212 NA
ATOM     14  C   UNL A   1     -27.543   0.849  25.079  0.00  0.00    +0.235 C 
ATOM     15  C   UNL A   1     -26.354   0.576  25.777  0.00  0.00    +0.255 C 
ATOM     16  F   UNL A   1     -25.860  -0.681  25.795  0.00  0.00    -0.225 F 
BRANCH  11  17
ATOM     17  C   UNL A   1     -25.642   4.093  27.123  0.00  0.00    +0.264 C 
ATOM     18  N   UNL A   1     -25.614   5.252  26.449  0.00  0.00    -0.200 NA
ATOM     19  C   UNL A   1     -25.026   6.479  26.963  0.00  0.00    +0.139 C 
ATOM     20  O   UNL A   1     -25.143   3.966  28.243  0.00  0.00    -0.269 OA
ENDBRANCH  11  17
BRANCH  14  21
ATOM     21  O   UNL A   1     -28.193  -0.208  24.477  0.00  0.00    -0.459 OA
BRANCH  21  22
ATOM     22  C   UNL A   1     -29.460   0.005  23.866  0.00  0.00    +0.242 C 
BRANCH  22  23
ATOM     23  C   UNL A   1     -30.065  -1.377  23.573  0.00  0.00    +0.229 C 
ATOM     24  O   UNL A   1     -30.729  -1.878  24.721  0.00  0.00    -0.216 OA
ENDBRANCH  22  23
ENDBRANCH  21  22
ENDBRANCH  14  21
ENDBRANCH   7  10
BRANCH   9  25
ATOM     25  C   UNL A   1     -24.855  -1.012  30.143  0.00  0.00    +0.067 C 
BRANCH  25  26
ATOM     26  C   UNL A   1     -24.973  -2.505  29.788  0.00  0.00    -0.017 C 
ATOM     27  C   UNL A   1     -23.906  -3.173  29.146  0.00  0.00    -0.004 C 
ATOM     28  C   UNL A   1     -23.989  -4.549  28.853  0.00  0.00    -0.000 C 
ATOM     29  C   UNL A   1     -25.137  -5.280  29.205  0.00  0.00    -0.000 C 
ATOM     30  C   UNL A   1     -26.232  -4.611  29.784  0.00  0.00    -0.000 C 
ATOM     31  C   UNL A   1     -26.155  -3.232  30.065  0.00  0.00    -0.004 C 
ENDBRANCH  25  26
BRANCH  25  32
ATOM     32  C   UNL A   1     -25.387  -0.679  31.571  0.00  0.00    +0.081 C 
ATOM     33  C   UNL A   1     -25.189   0.773  32.028  0.00  0.00    +0.019 C 
ATOM     34  C   UNL A   1     -25.336   0.684  33.544  0.00  0.00    +0.020 C 
ATOM     35  C   UNL A   1     -24.829  -0.715  33.905  0.00  0.00    +0.089 C 
ATOM     36  N   UNL A   1     -24.758  -1.481  32.646  0.00  0.00    -0.219 NA
ENDBRANCH  25  32
ENDBRANCH   9  25
BRANCH   1  37
ATOM     37  N   UNL A   1     -26.547   0.919  28.810  0.00  0.00    -0.223 NA
BRANCH  37  38
ATOM     38  C   UNL A   1     -27.657   0.415  29.410  0.00  0.00    +0.043 C 
ATOM     39  C   UNL A   1     -30.160  -0.489  30.457  0.00  0.00    +0.035 C 
ATOM     40  C   UNL A   1     -28.443  -0.550  28.812  0.00  0.00    +0.072 C 
ATOM     41  C   UNL A   1     -28.163   0.847  30.680  0.00  0.00    -0.014 C 
ATOM     42  C   UNL A   1     -29.329   0.323  31.227  0.00  0.00    +0.029 C 
ATOM     43  C   UNL A   1     -29.750  -0.657  29.143  0.00  0.00    +0.121 C 
BRANCH  43  44
ATOM     44  O   UNL A   1     -30.615  -0.658  28.078  0.00  0.00    -0.353 OA
ATOM     45  C   UNL A   1     -31.741  -1.525  28.093  0.00  0.00    +0.174 C 
ENDBRANCH  43  44
ENDBRANCH  37  38
ENDBRANCH   1  37
TORSDOF 11
