MODEL 1738
MODEL 1
REMARK VINA RESULT:    -4.642      0.000      0.000
REMARK INTER + INTRA:          -4.937
REMARK INTER:                  -4.913
REMARK INTRA:                  -0.024
REMARK UNBOUND:                -0.024
REMARK  Name = No_1738-gen_results/8p0m/2024-11-27-11-27-31/
REMARK  1 active torsions:
REMARK  status: ('A' for Active; 'I' for Inactive)
REMARK    1  A    between atoms: C_2  and  O_7
REMARK                            x       y       z     vdW  Elec       q    Type
REMARK                         _______ _______ _______ _____ _____    ______ ____
ROOT
ATOM      1  C   UNL A   1     -24.989  -2.531  29.660  0.00  0.00    +0.037 A 
ATOM      2  C   UNL A   1     -24.229  -3.048  29.145  0.00  0.00    +0.139 A 
ATOM      3  C   UNL A   1     -26.243  -3.330  29.940  0.00  0.00    +0.003 A 
ATOM      4  C   UNL A   1     -26.267  -4.708  29.639  0.00  0.00    +0.000 A 
ATOM      5  C   UNL A   1     -23.992  -4.457  28.756  0.00  0.00    +0.037 A 
ATOM      6  C   UNL A   1     -25.122  -5.223  29.004  0.00  0.00    +0.003 A 
ENDROOT
BRANCH   2   7
ATOM      7  O   UNL A   1     -23.008  -2.277  28.869  0.00  0.00    -0.471 OA
ATOM      8  C   UNL A   1     -22.765  -1.086  29.113  0.00  0.00    +0.253 C 
ENDBRANCH   2   7
TORSDOF 1
ENDMDL
ENDMDL
