MODEL 1739
MODEL 1
REMARK VINA RESULT:    -4.874      0.000      0.000
REMARK INTER + INTRA:          -5.637
REMARK INTER:                  -5.443
REMARK INTRA:                  -0.193
REMARK UNBOUND:                -0.193
REMARK  Name = No_1739-gen_results/8p0m/2024-11-27-11-27-31/
REMARK  2 active torsions:
REMARK  status: ('A' for Active; 'I' for Inactive)
REMARK    1  A    between atoms: C_2  and  C_8
REMARK    2  A    between atoms: N_9  and  C_11
REMARK                            x       y       z     vdW  Elec       q    Type
REMARK                         _______ _______ _______ _____ _____    ______ ____
ROOT
ATOM      1  C   UNL A   1     -22.554   0.828  28.294  0.00  0.00    +0.008 A 
ATOM      2  C   UNL A   1     -23.384  -0.035  28.126  0.00  0.00    +0.055 A 
ATOM      3  C   UNL A   1     -24.398   0.006  27.184  0.00  0.00    +0.008 A 
ATOM      4  C   UNL A   1     -24.441   1.146  26.327  0.00  0.00    +0.042 A 
ATOM      5  C   UNL A   1     -23.414   2.014  26.442  0.00  0.00    +0.196 A 
ATOM      6  C   UNL A   1     -22.436   1.832  27.331  0.00  0.00    +0.042 A 
ATOM      7  O   UNL A   1     -23.428   3.059  25.569  0.00  0.00    -0.287 OA
ENDROOT
BRANCH   2   8
ATOM      8  C   UNL A   1     -23.729  -1.270  29.029  0.00  0.00    +0.265 C 
ATOM      9  N   UNL A   1     -24.460  -2.179  28.580  0.00  0.00    -0.202 NA
ATOM     10  O   UNL A   1     -23.386  -1.402  30.231  0.00  0.00    -0.268 OA
BRANCH   9  11
ATOM     11  C   UNL A   1     -24.891  -3.389  29.286  0.00  0.00    +0.116 C 
ATOM     12  C   UNL A   1     -24.417  -4.567  28.883  0.00  0.00    +0.025 C 
ENDBRANCH   9  11
ENDBRANCH   2   8
TORSDOF 2
ENDMDL
ENDMDL
