REMARK  Name = No_1739-gen_results/8p0m/2024-11-27-11-27-31/
REMARK  2 active torsions:
REMARK  status: ('A' for Active; 'I' for Inactive)
REMARK    1  A    between atoms: C_2  and  C_8
REMARK    2  A    between atoms: N_9  and  C_11
REMARK                            x       y       z     vdW  Elec       q    Type
REMARK                         _______ _______ _______ _____ _____    ______ ____
ROOT
ATOM      1  C   UNL A   1     -28.016  -0.814  28.878  0.00  0.00    +0.008 A 
ATOM      2  C   UNL A   1     -27.064  -0.119  28.608  0.00  0.00    +0.055 A 
ATOM      3  C   UNL A   1     -26.972   0.714  27.506  0.00  0.00    +0.008 A 
ATOM      4  C   UNL A   1     -28.105   0.774  26.642  0.00  0.00    +0.042 A 
ATOM      5  C   UNL A   1     -29.201   0.104  27.053  0.00  0.00    +0.196 A 
ATOM      6  C   UNL A   1     -29.210  -0.603  28.185  0.00  0.00    +0.042 A 
ATOM      7  O   UNL A   1     -30.299   0.228  26.257  0.00  0.00    -0.287 OA
ENDROOT
BRANCH   2   8
ATOM      8  C   UNL A   1     -25.621  -0.131  29.221  0.00  0.00    +0.265 C 
ATOM      9  N   UNL A   1     -25.315  -1.001  30.065  0.00  0.00    -0.202 NA
ATOM     10  O   UNL A   1     -24.732   0.727  28.989  0.00  0.00    -0.268 OA
BRANCH   9  11
ATOM     11  C   UNL A   1     -24.025  -1.150  30.745  0.00  0.00    +0.116 C 
ATOM     12  C   UNL A   1     -23.132  -0.167  30.644  0.00  0.00    +0.025 C 
ENDBRANCH   9  11
ENDBRANCH   2   8
TORSDOF 2
