MODEL 173
MODEL 1
REMARK VINA RESULT:    -7.637      0.000      0.000
REMARK INTER + INTRA:         -12.073
REMARK INTER:                  -9.870
REMARK INTRA:                  -2.203
REMARK UNBOUND:                -2.203
REMARK  Name = No_173-gen_results/8p0m/2024-11-27-11-27-31/
REMARK  5 active torsions:
REMARK  status: ('A' for Active; 'I' for Inactive)
REMARK    1  A    between atoms: C_6  and  C_20
REMARK    2  A    between atoms: C_19  and  C_21
REMARK    3  A    between atoms: C_20  and  O_31
REMARK    4  A    between atoms: C_22  and  C_27
REMARK    5  A    between atoms: O_31  and  C_32
REMARK                            x       y       z     vdW  Elec       q    Type
REMARK                         _______ _______ _______ _____ _____    ______ ____
ROOT
ATOM      1  C   UNL A   1     -10.439   1.341  38.208  0.00  0.00    +0.001 A 
ATOM      2  C   UNL A   1     -10.878   0.395  38.361  0.00  0.00    +0.011 A 
ATOM      3  C   UNL A   1      -9.487   1.432  37.138  0.00  0.00    -0.004 A 
ATOM      4  C   UNL A   1      -9.039   0.367  36.468  0.00  0.00    +0.006 A 
ATOM      5  C   UNL A   1     -11.974   0.161  39.480  0.00  0.00    +0.058 A 
ATOM      6  C   UNL A   1      -8.100   0.500  35.421  0.00  0.00    +0.076 A 
ATOM      7  C   UNL A   1     -12.437  -1.116  39.864  0.00  0.00    +0.011 A 
ATOM      8  C   UNL A   1      -7.512   1.801  35.145  0.00  0.00    +0.002 A 
ATOM      9  C   UNL A   1      -7.892   2.887  35.882  0.00  0.00    -0.026 A 
ATOM     10  C   UNL A   1      -8.895   2.786  36.889  0.00  0.00    -0.022 A 
ATOM     11  C   UNL A   1     -12.018  -2.195  39.076  0.00  0.00    +0.001 A 
ATOM     12  C   UNL A   1     -11.152  -2.041  38.059  0.00  0.00    +0.000 A 
ATOM     13  C   UNL A   1     -10.635  -0.850  37.738  0.00  0.00    +0.001 A 
ATOM     14  C   UNL A   1      -9.649  -0.739  36.728  0.00  0.00    +0.000 A 
ATOM     15 CL   UNL A   1     -12.508   1.517  40.385  0.00  0.00    -0.082 Cl
ATOM     16  C   UNL A   1      -7.363   4.232  35.627  0.00  0.00    +0.026 C 
ATOM     17  C   UNL A   1      -8.211   5.279  35.875  0.00  0.00    +0.005 C 
ATOM     18  C   UNL A   1      -9.683   4.961  35.769  0.00  0.00    +0.009 C 
ATOM     19  C   UNL A   1     -10.086   3.926  36.662  0.00  0.00    +0.044 C 
ENDROOT
BRANCH  19  20
ATOM     20  C   UNL A   1     -11.419   3.492  36.228  0.00  0.00    -0.014 A 
ATOM     21  C   UNL A   1     -12.470   3.768  36.768  0.00  0.00    +0.053 A 
ATOM     22  C   UNL A   1     -13.756   3.346  36.190  0.00  0.00    +0.004 A 
ATOM     23  C   UNL A   1     -13.764   2.399  35.185  0.00  0.00    -0.004 A 
ATOM     24  C   UNL A   1     -11.547   2.582  35.067  0.00  0.00    -0.008 A 
ATOM     25  C   UNL A   1     -12.627   2.131  34.556  0.00  0.00    -0.022 A 
ATOM     26  C   UNL A   1     -12.661   1.197  33.403  0.00  0.00    +0.031 C 
BRANCH  21  27
ATOM     27  C   UNL A   1     -12.705   4.697  37.969  0.00  0.00    +0.284 C 
ATOM     28  O   UNL A   1     -12.405   4.425  39.062  0.00  0.00    -0.267 OA
ATOM     29  N   UNL A   1     -12.907   6.050  37.618  0.00  0.00    -0.084 NA
ENDBRANCH  21  27
ENDBRANCH  19  20
BRANCH   6  30
ATOM     30  C   UNL A   1      -7.545  -0.668  34.725  0.00  0.00    +0.346 C 
ATOM     31  O   UNL A   1      -7.761  -1.090  33.742  0.00  0.00    -0.244 OA
BRANCH  30  32
ATOM     32  O   UNL A   1      -6.240  -0.892  35.239  0.00  0.00    -0.418 OA
BRANCH  32  33
ATOM     33  C   UNL A   1      -5.397  -1.731  34.593  0.00  0.00    +0.178 C 
ATOM     34  C   UNL A   1      -4.236  -1.487  34.486  0.00  0.00    +0.015 C 
ATOM     35  C   UNL A   1      -3.306  -2.315  33.774  0.00  0.00    +0.034 C 
ENDBRANCH  32  33
ENDBRANCH  30  32
ENDBRANCH   6  30
TORSDOF 5
ENDMDL
ENDMDL
