MODEL 1740
MODEL 1
REMARK VINA RESULT:    -6.456      0.000      0.000
REMARK INTER + INTRA:         -14.849
REMARK INTER:                 -11.363
REMARK INTRA:                  -3.486
REMARK UNBOUND:                -3.486
REMARK  Name = No_1740-gen_results/8p0m/2024-11-27-11-27-31/
REMARK  13 active torsions:
REMARK  status: ('A' for Active; 'I' for Inactive)
REMARK    1  A    between atoms: C_1  and  C_2
REMARK    2  A    between atoms: C_1  and  O_9
REMARK    3  A    between atoms: C_3  and  O_17
REMARK    4  A    between atoms: C_5  and  C_6
REMARK    5  A    between atoms: O_9  and  C_29
REMARK    6  A    between atoms: N_11  and  C_13
REMARK    7  A    between atoms: C_13  and  C_14
REMARK    8  A    between atoms: O_17  and  C_18
REMARK    9  A    between atoms: C_18  and  C_19
REMARK   10  A    between atoms: C_21  and  C_26
REMARK   11  A    between atoms: C_26  and  C_28
REMARK   12  A    between atoms: C_28  and  C_34
REMARK   13  A    between atoms: C_29  and  C_30
REMARK                            x       y       z     vdW  Elec       q    Type
REMARK                         _______ _______ _______ _____ _____    ______ ____
ROOT
ATOM      1  C   UNL A   1     -24.204   0.092  29.680  0.00  0.00    +0.111 A 
ATOM      2  C   UNL A   1     -25.569  -0.098  29.775  0.00  0.00    +0.155 A 
ATOM      3  C   UNL A   1     -26.249  -1.380  29.753  0.00  0.00    +0.040 A 
ATOM      4  C   UNL A   1     -25.479  -2.555  29.611  0.00  0.00    +0.031 A 
ATOM      5  C   UNL A   1     -23.395  -1.164  29.560  0.00  0.00    +0.010 A 
ATOM      6  C   UNL A   1     -24.005  -2.460  29.534  0.00  0.00    +0.003 A 
ENDROOT
BRANCH   4   7
ATOM      7  C   UNL A   1     -25.992  -3.874  29.599  0.00  0.00    +0.134 C 
ATOM      8  N   UNL A   1     -27.162  -4.163  29.544  0.00  0.00    -0.247 NA
ATOM      9 CL   UNL A   1     -24.771  -5.109  29.193  0.00  0.00    -0.062 Cl
BRANCH   8  10
ATOM     10  C   UNL A   1     -27.988  -4.353  30.628  0.00  0.00    +0.240 C 
BRANCH  10  11
ATOM     11  C   UNL A   1     -28.786  -3.691  31.085  0.00  0.00    +0.389 C 
ATOM     12  O   UNL A   1     -29.117  -3.357  32.283  0.00  0.00    -0.243 OA
ATOM     13  O   UNL A   1     -29.639  -3.063  30.187  0.00  0.00    -0.243 OA
ENDBRANCH  10  11
ENDBRANCH   8  10
ENDBRANCH   4   7
BRANCH   1  14
ATOM     14  C   UNL A   1     -23.671   1.174  29.768  0.00  0.00    +0.351 C 
ATOM     15  O   UNL A   1     -23.373   1.717  30.843  0.00  0.00    -0.244 OA
BRANCH  14  16
ATOM     16  O   UNL A   1     -23.683   1.933  28.716  0.00  0.00    -0.386 OA
BRANCH  16  17
ATOM     17  C   UNL A   1     -22.798   1.701  27.556  0.00  0.00    +0.373 C 
ATOM     18  O   UNL A   1     -21.656   1.593  27.664  0.00  0.00    -0.245 OA
BRANCH  17  19
ATOM     19  C   UNL A   1     -23.520   1.695  26.369  0.00  0.00    +0.338 C 
ATOM     20 CL   UNL A   1     -24.497   0.451  25.821  0.00  0.00    -0.065 Cl
ATOM     21  F   UNL A   1     -23.660   2.769  25.581  0.00  0.00    -0.207 F 
ENDBRANCH  17  19
ENDBRANCH  16  17
ENDBRANCH  14  16
ENDBRANCH   1  14
BRANCH   2  22
ATOM     22  O   UNL A   1     -26.347   0.922  29.959  0.00  0.00    -0.421 OA
BRANCH  22  23
ATOM     23  C   UNL A   1     -27.492   1.060  29.189  0.00  0.00    +0.346 C 
ATOM     24  O   UNL A   1     -28.643   0.889  29.635  0.00  0.00    -0.244 OA
BRANCH  23  25
ATOM     25  C   UNL A   1     -27.218   1.646  27.948  0.00  0.00    +0.076 A 
ATOM     26  C   UNL A   1     -27.791   1.070  26.901  0.00  0.00    +0.003 A 
ATOM     27  C   UNL A   1     -27.796   1.950  25.790  0.00  0.00    -0.007 A 
ATOM     28  C   UNL A   1     -27.073   3.135  25.748  0.00  0.00    -0.003 A 
ATOM     29  C   UNL A   1     -26.644   3.643  26.884  0.00  0.00    -0.000 A 
ATOM     30  C   UNL A   1     -26.755   2.966  28.007  0.00  0.00    +0.006 A 
BRANCH  27  31
ATOM     31  C   UNL A   1     -28.242   1.322  24.410  0.00  0.00    +0.106 C 
ATOM     32 CL   UNL A   1     -28.914   2.059  23.270  0.00  0.00    -0.110 Cl
BRANCH  31  33
ATOM     33  C   UNL A   1     -28.000  -0.098  24.327  0.00  0.00    +0.047 C 
BRANCH  33  34
ATOM     34  C   UNL A   1     -28.903  -0.752  23.433  0.00  0.00    -0.025 C 
ATOM     35  C   UNL A   1     -29.897  -1.510  23.913  0.00  0.00    -0.005 C 
ENDBRANCH  33  34
ENDBRANCH  31  33
ENDBRANCH  27  31
ENDBRANCH  23  25
ENDBRANCH  22  23
ENDBRANCH   2  22
TORSDOF 13
ENDMDL
ENDMDL
