REMARK  Name = No_1740-gen_results/8p0m/2024-11-27-11-27-31/
REMARK  13 active torsions:
REMARK  status: ('A' for Active; 'I' for Inactive)
REMARK    1  A    between atoms: C_1  and  C_2
REMARK    2  A    between atoms: C_1  and  O_9
REMARK    3  A    between atoms: C_3  and  O_17
REMARK    4  A    between atoms: C_5  and  C_6
REMARK    5  A    between atoms: O_9  and  C_29
REMARK    6  A    between atoms: N_11  and  C_13
REMARK    7  A    between atoms: C_13  and  C_14
REMARK    8  A    between atoms: O_17  and  C_18
REMARK    9  A    between atoms: C_18  and  C_19
REMARK   10  A    between atoms: C_21  and  C_26
REMARK   11  A    between atoms: C_26  and  C_28
REMARK   12  A    between atoms: C_28  and  C_34
REMARK   13  A    between atoms: C_29  and  C_30
REMARK                            x       y       z     vdW  Elec       q    Type
REMARK                         _______ _______ _______ _____ _____    ______ ____
ROOT
ATOM      1  C   UNL A   1     -27.064  -0.119  28.608  0.00  0.00    +0.111 A 
ATOM      2  C   UNL A   1     -27.001   0.691  27.491  0.00  0.00    +0.155 A 
ATOM      3  C   UNL A   1     -25.855   1.482  27.083  0.00  0.00    +0.040 A 
ATOM      4  C   UNL A   1     -24.690   1.453  27.881  0.00  0.00    +0.031 A 
ATOM      5  C   UNL A   1     -25.812  -0.166  29.430  0.00  0.00    +0.010 A 
ATOM      6  C   UNL A   1     -24.646   0.589  29.081  0.00  0.00    +0.003 A 
ENDROOT
BRANCH   4   7
ATOM      7  C   UNL A   1     -23.488   2.145  27.601  0.00  0.00    +0.134 C 
ATOM      8  N   UNL A   1     -22.461   1.630  27.230  0.00  0.00    -0.247 NA
ATOM      9 CL   UNL A   1     -23.713   3.899  27.372  0.00  0.00    -0.062 Cl
BRANCH   8  10
ATOM     10  C   UNL A   1     -21.456   1.174  28.053  0.00  0.00    +0.240 C 
BRANCH  10  11
ATOM     11  C   UNL A   1     -21.227   0.138  28.449  0.00  0.00    +0.389 C 
ATOM     12  O   UNL A   1     -20.304  -0.734  28.240  0.00  0.00    -0.243 OA
ATOM     13  O   UNL A   1     -22.119  -0.362  29.389  0.00  0.00    -0.243 OA
ENDBRANCH  10  11
ENDBRANCH   8  10
ENDBRANCH   4   7
BRANCH   1  14
ATOM     14  C   UNL A   1     -28.016  -0.814  28.878  0.00  0.00    +0.351 C 
ATOM     15  O   UNL A   1     -29.176  -0.583  28.502  0.00  0.00    -0.244 OA
BRANCH  14  16
ATOM     16  O   UNL A   1     -27.877  -1.667  29.846  0.00  0.00    -0.386 OA
BRANCH  16  17
ATOM     17  C   UNL A   1     -28.982  -2.530  30.313  0.00  0.00    +0.373 C 
ATOM     18  O   UNL A   1     -30.001  -2.103  30.639  0.00  0.00    -0.245 OA
BRANCH  17  19
ATOM     19  C   UNL A   1     -28.593  -3.863  30.352  0.00  0.00    +0.338 C 
ATOM     20 CL   UNL A   1     -29.614  -5.186  30.251  0.00  0.00    -0.065 Cl
ATOM     21  F   UNL A   1     -27.317  -4.265  30.308  0.00  0.00    -0.207 F 
ENDBRANCH  17  19
ENDBRANCH  16  17
ENDBRANCH  14  16
ENDBRANCH   1  14
BRANCH   2  22
ATOM     22  O   UNL A   1     -28.007   0.738  26.676  0.00  0.00    -0.421 OA
BRANCH  22  23
ATOM     23  C   UNL A   1     -27.800   0.549  25.318  0.00  0.00    +0.346 C 
ATOM     24  O   UNL A   1     -26.673   0.556  24.788  0.00  0.00    -0.244 OA
BRANCH  23  25
ATOM     25  C   UNL A   1     -28.961   0.109  24.671  0.00  0.00    +0.076 A 
ATOM     26  C   UNL A   1     -29.911  -0.372  25.460  0.00  0.00    +0.003 A 
ATOM     27  C   UNL A   1     -31.156  -0.396  24.782  0.00  0.00    -0.007 A 
ATOM     28  C   UNL A   1     -31.288  -0.187  23.416  0.00  0.00    -0.003 A 
ATOM     29  C   UNL A   1     -30.294   0.391  22.775  0.00  0.00    -0.000 A 
ATOM     30  C   UNL A   1     -29.146   0.615  23.379  0.00  0.00    +0.006 A 
BRANCH  27  31
ATOM     31  C   UNL A   1     -32.332  -1.153  25.518  0.00  0.00    +0.106 C 
ATOM     32 CL   UNL A   1     -32.188  -2.356  26.427  0.00  0.00    -0.110 Cl
BRANCH  31  33
ATOM     33  C   UNL A   1     -33.636  -0.621  25.202  0.00  0.00    +0.047 C 
BRANCH  33  34
ATOM     34  C   UNL A   1     -33.994   0.476  26.045  0.00  0.00    -0.025 C 
ATOM     35  C   UNL A   1     -33.602   0.499  27.325  0.00  0.00    -0.005 C 
ENDBRANCH  33  34
ENDBRANCH  31  33
ENDBRANCH  27  31
ENDBRANCH  23  25
ENDBRANCH  22  23
ENDBRANCH   2  22
TORSDOF 13
