MODEL 1741
MODEL 1
REMARK VINA RESULT:    -7.152      0.000      0.000
REMARK INTER + INTRA:         -11.454
REMARK INTER:                  -9.660
REMARK INTRA:                  -1.794
REMARK UNBOUND:                -1.794
REMARK  Name = No_1741-gen_results/8p0m/2024-11-27-11-27-31/
REMARK  6 active torsions:
REMARK  status: ('A' for Active; 'I' for Inactive)
REMARK    1  A    between atoms: C_2  and  C_7
REMARK    2  A    between atoms: C_7  and  C_8
REMARK    3  A    between atoms: C_8  and  C_10
REMARK    4  A    between atoms: C_10  and  C_11
REMARK    5  A    between atoms: C_12  and  C_13
REMARK    6  A    between atoms: C_13  and  C_14
REMARK                            x       y       z     vdW  Elec       q    Type
REMARK                         _______ _______ _______ _____ _____    ______ ____
ROOT
ATOM      1  C   UNL A   1     -23.167   1.292  27.281  0.00  0.00    +0.018 C 
ATOM      2  C   UNL A   1     -21.766   1.763  27.160  0.00  0.00    +0.004 C 
ENDROOT
BRANCH   1   3
ATOM      3  C   UNL A   1     -23.510   0.582  28.453  0.00  0.00    -0.048 C 
ATOM      4  C   UNL A   1     -23.134  -0.614  28.774  0.00  0.00    -0.030 C 
ATOM      5  C   UNL A   1     -24.432   1.277  29.361  0.00  0.00    +0.026 C 
BRANCH   4   6
ATOM      6  C   UNL A   1     -23.681  -1.397  29.824  0.00  0.00    +0.052 C 
BRANCH   6   7
ATOM      7  C   UNL A   1     -24.442  -2.552  29.542  0.00  0.00    -0.018 A 
ATOM      8  C   UNL A   1     -25.752  -2.652  29.927  0.00  0.00    -0.004 A 
ATOM      9  C   UNL A   1     -26.440  -3.860  29.911  0.00  0.00    -0.000 A 
ATOM     10  C   UNL A   1     -25.845  -4.942  29.259  0.00  0.00    -0.000 A 
ATOM     11  C   UNL A   1     -24.580  -4.858  28.780  0.00  0.00    -0.000 A 
ATOM     12  C   UNL A   1     -23.838  -3.688  28.972  0.00  0.00    -0.004 A 
ENDBRANCH   6   7
ENDBRANCH   4   6
ENDBRANCH   1   3
BRANCH   1  13
ATOM     13  C   UNL A   1     -23.928   1.692  26.158  0.00  0.00    +0.008 C 
ATOM     14  C   UNL A   1     -24.147   2.940  25.907  0.00  0.00    +0.001 C 
BRANCH  13  15
ATOM     15  C   UNL A   1     -24.561   0.625  25.300  0.00  0.00    +0.027 C 
BRANCH  15  17
ATOM     16  C   UNL A   1     -26.613   0.428  26.533  0.00  0.00    -0.001 A 
ATOM     17  C   UNL A   1     -26.072   0.512  25.455  0.00  0.00    -0.022 A 
ATOM     18  C   UNL A   1     -26.737   0.534  24.272  0.00  0.00    -0.001 A 
ATOM     19  C   UNL A   1     -28.143   0.455  24.294  0.00  0.00    +0.042 A 
ATOM     20  C   UNL A   1     -28.050   0.440  26.636  0.00  0.00    +0.042 A 
ATOM     21  C   UNL A   1     -28.764   0.432  25.475  0.00  0.00    +0.196 A 
ATOM     22  O   UNL A   1     -30.147   0.370  25.594  0.00  0.00    -0.287 OA
ENDBRANCH  15  17
ENDBRANCH  13  15
ENDBRANCH   1  13
TORSDOF 6
ENDMDL
ENDMDL
