MODEL 1742
MODEL 1
REMARK VINA RESULT:    -5.213      0.000      0.000
REMARK INTER + INTRA:          -5.689
REMARK INTER:                  -5.518
REMARK INTRA:                  -0.172
REMARK UNBOUND:                -0.172
REMARK  Name = No_1742-gen_results/8p0m/2024-11-27-11-27-31/
REMARK  1 active torsions:
REMARK  status: ('A' for Active; 'I' for Inactive)
REMARK    1  A    between atoms: C_1  and  C_8
REMARK                            x       y       z     vdW  Elec       q    Type
REMARK                         _______ _______ _______ _____ _____    ______ ____
ROOT
ATOM      1  C   UNL A   1     -23.210  -1.982  29.032  0.00  0.00    +0.036 C 
ATOM      2  C   UNL A   1     -24.080  -2.791  29.259  0.00  0.00    -0.043 C 
ATOM      3  C   UNL A   1     -25.339  -2.452  29.752  0.00  0.00    +0.022 C 
ATOM      4  C   UNL A   1     -26.450  -3.370  30.068  0.00  0.00    +0.004 C 
ATOM      5  C   UNL A   1     -26.282  -4.721  29.635  0.00  0.00    +0.001 C 
ATOM      6  C   UNL A   1     -25.049  -5.095  29.092  0.00  0.00    +0.004 C 
ATOM      7  C   UNL A   1     -24.031  -4.226  28.899  0.00  0.00    +0.022 C 
ENDROOT
BRANCH   1   8
ATOM      8  C   UNL A   1     -23.191  -0.718  29.830  0.00  0.00    +0.340 C 
ATOM      9  F   UNL A   1     -22.773  -0.908  31.128  0.00  0.00    -0.193 F 
ATOM     10  F   UNL A   1     -22.308   0.195  29.359  0.00  0.00    -0.193 F 
ENDBRANCH   1   8
TORSDOF 1
ENDMDL
ENDMDL
