MODEL 1743
MODEL 1
REMARK VINA RESULT:    -5.224      0.000      0.000
REMARK INTER + INTRA:          -6.042
REMARK INTER:                  -5.835
REMARK INTRA:                  -0.206
REMARK UNBOUND:                -0.206
REMARK  Name = No_1743-gen_results/8p0m/2024-11-27-11-27-31/
REMARK  2 active torsions:
REMARK  status: ('A' for Active; 'I' for Inactive)
REMARK    1  A    between atoms: C_2  and  C_7
REMARK    2  A    between atoms: C_7  and  C_9
REMARK                            x       y       z     vdW  Elec       q    Type
REMARK                         _______ _______ _______ _____ _____    ______ ____
ROOT
ATOM      1  C   UNL A   1     -23.824  -3.506  28.719  0.00  0.00    -0.003 A 
ATOM      2  C   UNL A   1     -24.364  -2.681  29.092  0.00  0.00    +0.001 A 
ATOM      3  C   UNL A   1     -24.469  -4.856  28.936  0.00  0.00    -0.000 A 
ATOM      4  C   UNL A   1     -25.772  -4.922  29.472  0.00  0.00    -0.000 A 
ATOM      5  C   UNL A   1     -25.721  -2.475  29.645  0.00  0.00    -0.003 A 
ATOM      6  C   UNL A   1     -26.348  -3.695  29.853  0.00  0.00    -0.000 A 
ENDROOT
BRANCH   2   7
ATOM      7  C   UNL A   1     -23.709  -1.232  28.863  0.00  0.00    +0.180 C 
ATOM      8  N   UNL A   1     -24.164  -0.468  28.070  0.00  0.00    -0.122 NA
BRANCH   7   9
ATOM      9  C   UNL A   1     -22.476  -0.980  29.545  0.00  0.00    +0.340 C 
ATOM     10  F   UNL A   1     -21.497  -1.019  28.899  0.00  0.00    -0.196 F 
ATOM     11  F   UNL A   1     -22.628   0.251  30.153  0.00  0.00    -0.196 F 
ENDBRANCH   7   9
ENDBRANCH   2   7
TORSDOF 2
ENDMDL
ENDMDL
