REMARK  Name = No_1743-gen_results/8p0m/2024-11-27-11-27-31/
REMARK  2 active torsions:
REMARK  status: ('A' for Active; 'I' for Inactive)
REMARK    1  A    between atoms: C_2  and  C_7
REMARK    2  A    between atoms: C_7  and  C_9
REMARK                            x       y       z     vdW  Elec       q    Type
REMARK                         _______ _______ _______ _____ _____    ______ ____
ROOT
ATOM      1  C   UNL A   1     -28.016  -0.814  28.878  0.00  0.00    -0.003 A 
ATOM      2  C   UNL A   1     -28.469  -0.785  29.829  0.00  0.00    +0.001 A 
ATOM      3  C   UNL A   1     -26.504  -0.778  28.877  0.00  0.00    -0.000 A 
ATOM      4  C   UNL A   1     -25.810  -0.853  30.103  0.00  0.00    -0.000 A 
ATOM      5  C   UNL A   1     -27.991  -0.892  31.226  0.00  0.00    -0.003 A 
ATOM      6  C   UNL A   1     -26.604  -0.868  31.265  0.00  0.00    -0.000 A 
ENDROOT
BRANCH   2   7
ATOM      7  C   UNL A   1     -30.074  -0.836  29.861  0.00  0.00    +0.180 C 
ATOM      8  N   UNL A   1     -30.653  -1.794  30.268  0.00  0.00    -0.122 NA
BRANCH   7   9
ATOM      9  C   UNL A   1     -30.755   0.259  29.238  0.00  0.00    +0.340 C 
ATOM     10  F   UNL A   1     -30.094   1.167  28.898  0.00  0.00    -0.196 F 
ATOM     11  F   UNL A   1     -31.448  -0.286  28.174  0.00  0.00    -0.196 F 
ENDBRANCH   7   9
ENDBRANCH   2   7
TORSDOF 2
