MODEL 1744
MODEL 1
REMARK VINA RESULT:    -6.064      0.000      0.000
REMARK INTER + INTRA:          -8.150
REMARK INTER:                  -7.837
REMARK INTRA:                  -0.313
REMARK UNBOUND:                -0.313
REMARK  Name = No_1744-gen_results/8p0m/2024-11-27-11-27-31/
REMARK  5 active torsions:
REMARK  status: ('A' for Active; 'I' for Inactive)
REMARK    1  A    between atoms: C_1  and  C_2
REMARK    2  A    between atoms: C_1  and  N_8
REMARK    3  A    between atoms: N_8  and  C_9
REMARK    4  A    between atoms: C_10  and  C_11
REMARK    5  A    between atoms: C_12  and  C_13
REMARK                            x       y       z     vdW  Elec       q    Type
REMARK                         _______ _______ _______ _____ _____    ______ ____
ROOT
ATOM      1  N   UNL A   1     -22.965  -1.118  29.550  0.00  0.00    -0.232 NA
ENDROOT
BRANCH   1   2
ATOM      2  C   UNL A   1     -22.047  -0.704  29.551  0.00  0.00    +0.081 C 
ATOM      3  C   UNL A   1     -21.660   0.298  28.773  0.00  0.00    +0.017 C 
BRANCH   3   4
ATOM      4  C   UNL A   1     -22.507   1.218  28.359  0.00  0.00    +0.001 C 
ATOM      5  C   UNL A   1     -22.561   1.449  27.182  0.00  0.00    -0.000 C 
BRANCH   5   6
ATOM      6  C   UNL A   1     -23.410   2.574  26.683  0.00  0.00    -0.005 C 
ATOM      7  C   UNL A   1     -24.454   2.261  25.827  0.00  0.00    -0.026 C 
ATOM      8  C   UNL A   1     -24.725   1.001  25.513  0.00  0.00    +0.031 C 
ENDBRANCH   5   6
ENDBRANCH   3   4
ENDBRANCH   1   2
BRANCH   1   9
ATOM      9  C   UNL A   1     -23.699  -1.816  28.590  0.00  0.00    +0.139 C 
BRANCH   9  10
ATOM     10  C   UNL A   1     -24.417  -2.714  28.963  0.00  0.00    -0.001 A 
ATOM     11  C   UNL A   1     -24.132  -4.052  28.770  0.00  0.00    -0.003 A 
ATOM     12  C   UNL A   1     -24.995  -5.162  29.128  0.00  0.00    -0.000 A 
ATOM     13  C   UNL A   1     -26.239  -4.886  29.740  0.00  0.00    -0.000 A 
ATOM     14  C   UNL A   1     -26.554  -3.494  29.934  0.00  0.00    -0.000 A 
ATOM     15  C   UNL A   1     -25.736  -2.457  29.552  0.00  0.00    -0.003 A 
ENDBRANCH   9  10
ENDBRANCH   1   9
TORSDOF 5
ENDMDL
ENDMDL
