REMARK  Name = outputs/IAG933/test6/raw/output_1744_IAG933_linker_design_.xyz
REMARK  10 active torsions:
REMARK  status: ('A' for Active; 'I' for Inactive)
REMARK    1  A    between atoms: C_1  and  C_2
REMARK    2  A    between atoms: C_1  and  C_8
REMARK    3  A    between atoms: C_1  and  N_32
REMARK    4  A    between atoms: C_13  and  N_30
REMARK    5  A    between atoms: C_14  and  C_15
REMARK    6  A    between atoms: C_21  and  O_22
REMARK    7  A    between atoms: O_22  and  C_23
REMARK    8  A    between atoms: C_23  and  C_24
REMARK    9  A    between atoms: C_33  and  C_36
REMARK   10  A    between atoms: C_33  and  C_40
REMARK                            x       y       z     vdW  Elec       q    Type
REMARK                         _______ _______ _______ _____ _____    ______ ____
ROOT
ATOM      1  F   UNL A   1     -20.275   1.737  27.317  0.00  0.00    -0.160 F 
ATOM      2  C   UNL A   1     -25.396   0.522  28.470  0.00  0.00    +0.313 C 
ATOM      3  N   UNL A   1     -24.784   1.152  27.282  0.00  0.00    -0.211 N 
ATOM      4  N   UNL A   1     -24.364  -0.098  29.080  0.00  0.00    -0.258 N 
ATOM      5  O   UNL A   1     -26.551   0.264  28.491  0.00  0.00    -0.252 OA
ATOM      6  O   UNL A   1     -21.834   2.276  25.715  0.00  0.00    -0.302 OA
ATOM      7  C   UNL A   1     -23.499   1.477  26.843  0.00  0.00    +0.274 C 
ATOM      8  O   UNL A   1     -23.151   2.229  25.741  0.00  0.00    -0.147 OA
ATOM      9  C   UNL A   1     -21.424   1.650  26.875  0.00  0.00    +0.318 C 
ATOM     10  C   UNL A   1     -23.032   0.178  28.803  0.00  0.00    +0.105 C 
ATOM     11  C   UNL A   1     -22.618   0.974  27.613  0.00  0.00    +0.091 C 
ENDROOT
BRANCH   3  12
ATOM     12  C   UNL A   1     -25.688   1.614  26.461  0.00  0.00    +0.096 C 
ATOM     13  C   UNL A   1     -26.250   2.920  26.395  0.00  0.00    +0.090 C 
ATOM     14  C   UNL A   1     -27.438   3.091  25.645  0.00  0.00    +0.108 C 
ATOM     15  N   UNL A   1     -28.075   2.089  25.003  0.00  0.00    -0.208 NA
ATOM     16  C   UNL A   1     -27.543   0.849  25.079  0.00  0.00    +0.255 C 
ATOM     17  C   UNL A   1     -26.354   0.576  25.777  0.00  0.00    +0.207 C 
ATOM     18  F   UNL A   1     -25.860  -0.681  25.795  0.00  0.00    -0.198 F 
BRANCH  13  19
ATOM     19  C   UNL A   1     -25.642   4.093  27.123  0.00  0.00    +0.268 C 
ATOM     20  N   UNL A   1     -25.614   5.252  26.449  0.00  0.00    -0.200 NA
ATOM     21  C   UNL A   1     -25.026   6.479  26.963  0.00  0.00    +0.139 C 
ATOM     22  O   UNL A   1     -25.143   3.966  28.243  0.00  0.00    -0.268 OA
ENDBRANCH  13  19
BRANCH  16  23
ATOM     23  O   UNL A   1     -28.193  -0.208  24.477  0.00  0.00    -0.456 OA
BRANCH  23  24
ATOM     24  C   UNL A   1     -29.460   0.005  23.866  0.00  0.00    +0.243 C 
BRANCH  24  25
ATOM     25  C   UNL A   1     -30.065  -1.377  23.573  0.00  0.00    +0.229 C 
ATOM     26  O   UNL A   1     -30.729  -1.878  24.721  0.00  0.00    -0.216 OA
ENDBRANCH  24  25
ENDBRANCH  23  24
ENDBRANCH  16  23
ENDBRANCH   3  12
BRANCH   4  27
ATOM     27  C   UNL A   1     -24.855  -1.012  30.143  0.00  0.00    +0.116 C 
BRANCH  27  28
ATOM     28  C   UNL A   1     -24.973  -2.505  29.788  0.00  0.00    -0.003 C 
ATOM     29  C   UNL A   1     -23.906  -3.173  29.146  0.00  0.00    -0.003 C 
ATOM     30  C   UNL A   1     -23.989  -4.549  28.853  0.00  0.00    -0.000 C 
ATOM     31  C   UNL A   1     -25.137  -5.280  29.205  0.00  0.00    -0.000 C 
ATOM     32  C   UNL A   1     -26.232  -4.611  29.784  0.00  0.00    -0.000 C 
ATOM     33  C   UNL A   1     -26.155  -3.232  30.065  0.00  0.00    -0.003 C 
ENDBRANCH  27  28
BRANCH  27  34
ATOM     34  C   UNL A   1     -25.387  -0.679  31.571  0.00  0.00    +0.095 C 
ATOM     35  C   UNL A   1     -25.189   0.773  32.028  0.00  0.00    +0.021 C 
ATOM     36  C   UNL A   1     -25.336   0.684  33.544  0.00  0.00    +0.020 C 
ATOM     37  C   UNL A   1     -24.829  -0.715  33.905  0.00  0.00    +0.089 C 
ATOM     38  N   UNL A   1     -24.758  -1.481  32.646  0.00  0.00    -0.217 NA
ENDBRANCH  27  34
ENDBRANCH   4  27
BRANCH  10  39
ATOM     39  C   UNL A   1     -21.997  -0.243  29.745  0.00  0.00    +0.024 C 
BRANCH  39  41
ATOM     40  C   UNL A   1     -20.755  -0.844  28.009  0.00  0.00    +0.000 C 
ATOM     41  C   UNL A   1     -20.820   0.028  28.981  0.00  0.00    +0.002 C 
ENDBRANCH  39  41
ENDBRANCH  10  39
TORSDOF 10
