MODEL 1745
MODEL 1
REMARK VINA RESULT:    -4.231      0.000      0.000
REMARK INTER + INTRA:          -4.231
REMARK INTER:                  -4.231
REMARK INTRA:                   0.000
REMARK UNBOUND:                 0.000
REMARK  Name = No_1745-gen_results/8p0m/2024-11-27-11-27-31/
REMARK  0 active torsions:
REMARK  status: ('A' for Active; 'I' for Inactive)
REMARK                            x       y       z     vdW  Elec       q    Type
REMARK                         _______ _______ _______ _____ _____    ______ ____
ROOT
ATOM      1  C   UNL A   1     -24.148  -4.889  28.661  0.00  0.00    +0.000 A 
ATOM      2  C   UNL A   1     -25.057  -5.307  28.992  0.00  0.00    +0.000 A 
ATOM      3  C   UNL A   1     -24.041  -3.422  28.708  0.00  0.00    +0.000 A 
ATOM      4  C   UNL A   1     -25.071  -2.639  29.306  0.00  0.00    +0.000 A 
ATOM      5  C   UNL A   1     -26.237  -4.735  29.697  0.00  0.00    +0.000 A 
ATOM      6  C   UNL A   1     -26.178  -3.374  29.751  0.00  0.00    +0.000 A 
ENDROOT
TORSDOF 0
ENDMDL
ENDMDL
