MODEL 1746
MODEL 1
REMARK VINA RESULT:    -5.246      0.000      0.000
REMARK INTER + INTRA:          -5.614
REMARK INTER:                  -5.553
REMARK INTRA:                  -0.061
REMARK UNBOUND:                -0.061
REMARK  Name = No_1746-gen_results/8p0m/2024-11-27-11-27-31/
REMARK  1 active torsions:
REMARK  status: ('A' for Active; 'I' for Inactive)
REMARK    1  A    between atoms: C_2  and  C_5
REMARK                            x       y       z     vdW  Elec       q    Type
REMARK                         _______ _______ _______ _____ _____    ______ ____
ROOT
ATOM      1  C   UNL A   1     -25.531  -2.474  29.624  0.00  0.00    +0.005 A 
ATOM      2  C   UNL A   1     -24.623  -2.738  29.159  0.00  0.00    +0.055 A 
ATOM      3  C   UNL A   1     -26.411  -3.614  29.880  0.00  0.00    +0.000 A 
ATOM      4  C   UNL A   1     -26.056  -4.899  29.553  0.00  0.00    +0.000 A 
ATOM      5  C   UNL A   1     -24.792  -5.091  28.963  0.00  0.00    +0.000 A 
ATOM      6  C   UNL A   1     -23.959  -3.986  28.779  0.00  0.00    +0.005 A 
ENDROOT
BRANCH   2   7
ATOM      7  C   UNL A   1     -23.606  -1.589  28.887  0.00  0.00    +0.265 C 
ATOM      8  O   UNL A   1     -22.382  -1.678  28.962  0.00  0.00    -0.268 OA
ATOM      9  N   UNL A   1     -24.012  -0.465  28.166  0.00  0.00    -0.200 NA
ATOM     10  C   UNL A   1     -23.118   0.612  27.901  0.00  0.00    +0.139 C 
ENDBRANCH   2   7
TORSDOF 1
ENDMDL
ENDMDL
