REMARK  Name = outputs/IAG933/test6/raw/output_1747_IAG933_linker_design_.xyz
REMARK  11 active torsions:
REMARK  status: ('A' for Active; 'I' for Inactive)
REMARK    1  A    between atoms: C_1  and  C_2
REMARK    2  A    between atoms: C_1  and  C_8
REMARK    3  A    between atoms: C_1  and  C_39
REMARK    4  A    between atoms: C_13  and  C_46
REMARK    5  A    between atoms: C_14  and  C_15
REMARK    6  A    between atoms: C_21  and  O_22
REMARK    7  A    between atoms: O_22  and  C_23
REMARK    8  A    between atoms: C_23  and  C_24
REMARK    9  A    between atoms: C_32  and  C_39
REMARK   10  A    between atoms: C_32  and  C_44
REMARK   11  A    between atoms: C_39  and  N_42
REMARK                            x       y       z     vdW  Elec       q    Type
REMARK                         _______ _______ _______ _____ _____    ______ ____
ROOT
ATOM      1  F   UNL A   1     -20.052   1.625  28.312  0.00  0.00    -0.229 F 
ATOM      2  C   UNL A   1     -21.195   0.749  28.537  0.00  0.00    +0.228 C 
ATOM      3  C   UNL A   1     -22.086   0.162  29.700  0.00  0.00    +0.150 C 
ATOM      4  O   UNL A   1     -19.006  -0.316  28.631  0.00  0.00    -0.219 OA
ATOM      5  O   UNL A   1     -23.838   1.832  29.805  0.00  0.00    -0.274 OA
ATOM      6  O   UNL A   1     -22.378   2.401  25.332  0.00  0.00    -0.257 OA
ATOM      7  O   UNL A   1     -21.625   2.094  26.566  0.00  0.00    -0.285 OA
ATOM      8  F   UNL A   1     -23.958   1.257  24.108  0.00  0.00    -0.159 F 
ATOM      9  C   UNL A   1     -23.557   1.824  25.219  0.00  0.00    +0.331 C 
ATOM     10  C   UNL A   1     -20.655  -0.787  28.906  0.00  0.00    +0.201 C 
ATOM     11  C   UNL A   1     -23.584   0.741  29.317  0.00  0.00    +0.235 C 
ATOM     12  C   UNL A   1     -23.514   1.126  27.411  0.00  0.00    +0.093 C 
ATOM     13  N   UNL A   1     -24.193   0.308  28.392  0.00  0.00    -0.257 N 
ATOM     14  C   UNL A   1     -22.168   1.329  27.470  0.00  0.00    +0.219 C 
ATOM     15  C   UNL A   1     -24.229   1.569  26.366  0.00  0.00    +0.069 C 
ENDROOT
BRANCH  15  16
ATOM     16  C   UNL A   1     -25.688   1.614  26.461  0.00  0.00    +0.099 C 
ATOM     17  C   UNL A   1     -26.250   2.920  26.395  0.00  0.00    +0.059 C 
ATOM     18  C   UNL A   1     -27.438   3.091  25.645  0.00  0.00    +0.102 C 
ATOM     19  N   UNL A   1     -28.075   2.089  25.003  0.00  0.00    -0.212 NA
ATOM     20  C   UNL A   1     -27.543   0.849  25.079  0.00  0.00    +0.234 C 
ATOM     21  C   UNL A   1     -26.354   0.576  25.777  0.00  0.00    +0.244 C 
ATOM     22  F   UNL A   1     -25.860  -0.681  25.795  0.00  0.00    -0.227 F 
BRANCH  17  23
ATOM     23  C   UNL A   1     -25.642   4.093  27.123  0.00  0.00    +0.263 C 
ATOM     24  N   UNL A   1     -25.614   5.252  26.449  0.00  0.00    -0.200 NA
ATOM     25  C   UNL A   1     -25.026   6.479  26.963  0.00  0.00    +0.139 C 
ATOM     26  O   UNL A   1     -25.143   3.966  28.243  0.00  0.00    -0.269 OA
ENDBRANCH  17  23
BRANCH  20  27
ATOM     27  O   UNL A   1     -28.193  -0.208  24.477  0.00  0.00    -0.459 OA
BRANCH  27  28
ATOM     28  C   UNL A   1     -29.460   0.005  23.866  0.00  0.00    +0.242 C 
BRANCH  28  29
ATOM     29  C   UNL A   1     -30.065  -1.377  23.573  0.00  0.00    +0.229 C 
ATOM     30  O   UNL A   1     -30.729  -1.878  24.721  0.00  0.00    -0.216 OA
ENDBRANCH  28  29
ENDBRANCH  27  28
ENDBRANCH  20  27
ENDBRANCH  15  16
BRANCH  13  31
ATOM     31  C   UNL A   1     -25.299  -0.347  28.859  0.00  0.00    +0.093 C 
BRANCH  31  32
ATOM     32  C   UNL A   1     -24.855  -1.012  30.143  0.00  0.00    +0.057 C 
BRANCH  32  33
ATOM     33  C   UNL A   1     -24.973  -2.505  29.788  0.00  0.00    -0.019 C 
ATOM     34  C   UNL A   1     -23.906  -3.173  29.146  0.00  0.00    -0.004 C 
ATOM     35  C   UNL A   1     -23.989  -4.549  28.853  0.00  0.00    -0.000 C 
ATOM     36  C   UNL A   1     -25.137  -5.280  29.205  0.00  0.00    -0.000 C 
ATOM     37  C   UNL A   1     -26.232  -4.611  29.784  0.00  0.00    -0.000 C 
ATOM     38  C   UNL A   1     -26.155  -3.232  30.065  0.00  0.00    -0.004 C 
ENDBRANCH  32  33
BRANCH  32  39
ATOM     39  C   UNL A   1     -25.387  -0.679  31.571  0.00  0.00    +0.078 C 
ATOM     40  C   UNL A   1     -25.189   0.773  32.028  0.00  0.00    +0.019 C 
ATOM     41  C   UNL A   1     -25.336   0.684  33.544  0.00  0.00    +0.020 C 
ATOM     42  C   UNL A   1     -24.829  -0.715  33.905  0.00  0.00    +0.089 C 
ATOM     43  N   UNL A   1     -24.758  -1.481  32.646  0.00  0.00    -0.219 NA
ENDBRANCH  32  39
ENDBRANCH  31  32
BRANCH  31  44
ATOM     44  C   UNL A   1     -26.519   0.265  28.894  0.00  0.00    +0.093 C 
BRANCH  44  46
ATOM     45  O   UNL A   1     -28.227  -1.230  29.128  0.00  0.00    -0.288 OA
ATOM     46  C   UNL A   1     -27.870  -0.078  28.685  0.00  0.00    +0.209 C 
ENDBRANCH  44  46
ENDBRANCH  31  44
ENDBRANCH  13  31
TORSDOF 11
