MODEL 1747
MODEL 1
REMARK VINA RESULT:    -5.428      0.000      0.000
REMARK INTER + INTRA:          -6.226
REMARK INTER:                  -6.063
REMARK INTRA:                  -0.163
REMARK UNBOUND:                -0.163
REMARK  Name = No_1747-gen_results/8p0m/2024-11-27-11-27-31/
REMARK  2 active torsions:
REMARK  status: ('A' for Active; 'I' for Inactive)
REMARK    1  A    between atoms: C_3  and  O_13
REMARK    2  A    between atoms: C_5  and  C_8
REMARK                            x       y       z     vdW  Elec       q    Type
REMARK                         _______ _______ _______ _____ _____    ______ ____
ROOT
ATOM      1 CL   UNL A   1     -27.305  -4.331  30.002  0.00  0.00    -0.078 Cl
ATOM      2  C   UNL A   1     -26.120  -3.515  29.914  0.00  0.00    +0.102 A 
ATOM      3  C   UNL A   1     -26.166  -2.153  30.173  0.00  0.00    +0.150 A 
ATOM      4  C   UNL A   1     -25.120  -1.257  29.854  0.00  0.00    +0.040 A 
ATOM      5  C   UNL A   1     -23.952  -1.714  29.283  0.00  0.00    +0.057 A 
ATOM      6  C   UNL A   1     -23.883  -3.050  28.982  0.00  0.00    +0.015 A 
ATOM      7  C   UNL A   1     -24.906  -3.875  29.221  0.00  0.00    +0.071 A 
ATOM      8 CL   UNL A   1     -24.739  -5.568  28.775  0.00  0.00    -0.081 Cl
ENDROOT
BRANCH   5   9
ATOM      9  C   UNL A   1     -22.897  -0.745  29.028  0.00  0.00    +0.350 C 
ATOM     10 CL   UNL A   1     -22.870   0.328  28.135  0.00  0.00    -0.042 Cl
ATOM     11  F   UNL A   1     -21.834  -1.441  28.888  0.00  0.00    -0.182 F 
ATOM     12  F   UNL A   1     -22.607  -0.306  30.363  0.00  0.00    -0.182 F 
ENDBRANCH   5   9
BRANCH   3  13
ATOM     13  O   UNL A   1     -27.234  -1.595  30.748  0.00  0.00    -0.471 OA
ATOM     14  C   UNL A   1     -27.019  -0.880  31.879  0.00  0.00    +0.253 C 
ENDBRANCH   3  13
TORSDOF 2
ENDMDL
ENDMDL
