MODEL 1749
MODEL 1
REMARK VINA RESULT:    -8.729      0.000      0.000
REMARK INTER + INTRA:         -16.633
REMARK INTER:                 -12.811
REMARK INTRA:                  -3.822
REMARK UNBOUND:                -3.822
REMARK  Name = No_1749-gen_results/8p0m/2024-11-27-11-27-31/
REMARK  8 active torsions:
REMARK  status: ('A' for Active; 'I' for Inactive)
REMARK    1  A    between atoms: C_2  and  C_21
REMARK    2  A    between atoms: C_3  and  C_4
REMARK    3  A    between atoms: C_5  and  C_6
REMARK    4  A    between atoms: C_6  and  C_15
REMARK    5  A    between atoms: C_7  and  C_11
REMARK    6  A    between atoms: C_11  and  C_24
REMARK    7  A    between atoms: C_12  and  C_31
REMARK    8  A    between atoms: C_31  and  O_33
REMARK                            x       y       z     vdW  Elec       q    Type
REMARK                         _______ _______ _______ _____ _____    ______ ____
ROOT
ATOM      1  C   UNL A   1     -24.062  -0.213  28.622  0.00  0.00    +0.002 C 
ATOM      2  C   UNL A   1     -23.979   0.338  27.706  0.00  0.00    -0.018 C 
ATOM      3  C   UNL A   1     -23.233   0.187  29.823  0.00  0.00    +0.071 C 
ATOM      4  C   UNL A   1     -22.112   0.690  29.353  0.00  0.00    -0.015 C 
ATOM      5  C   UNL A   1     -22.413   0.658  27.755  0.00  0.00    +0.052 C 
ENDROOT
BRANCH   1   8
ATOM      6  C   UNL A   1     -24.382  -2.753  28.683  0.00  0.00    +0.007 A 
ATOM      7  C   UNL A   1     -24.977  -3.511  29.109  0.00  0.00    +0.080 A 
ATOM      8  C   UNL A   1     -24.872  -1.398  28.966  0.00  0.00    +0.000 A 
ATOM      9  C   UNL A   1     -26.288  -3.534  29.686  0.00  0.00    +0.007 A 
ATOM     10  C   UNL A   1     -26.104  -1.261  29.537  0.00  0.00    -0.000 A 
ATOM     11  C   UNL A   1     -26.788  -2.338  29.911  0.00  0.00    +0.000 A 
BRANCH   7  12
ATOM     12  C   UNL A   1     -24.434  -5.071  28.934  0.00  0.00    +0.388 C 
ATOM     13  O   UNL A   1     -23.762  -5.253  28.041  0.00  0.00    -0.241 OA
ATOM     14  O   UNL A   1     -25.115  -5.999  29.622  0.00  0.00    -0.241 OA
ENDBRANCH   7  12
ENDBRANCH   1   8
BRANCH   2  15
ATOM     15  C   UNL A   1     -24.523   1.045  26.778  0.00  0.00    -0.008 C 
ATOM     16  C   UNL A   1     -25.105   0.542  25.625  0.00  0.00    -0.022 C 
BRANCH  15  17
ATOM     17  C   UNL A   1     -24.644   2.523  26.878  0.00  0.00    -0.001 A 
ATOM     18  C   UNL A   1     -24.068   3.319  25.841  0.00  0.00    -0.000 A 
ATOM     19  C   UNL A   1     -24.522   4.704  25.837  0.00  0.00    -0.000 A 
ATOM     20  C   UNL A   1     -25.192   5.157  26.945  0.00  0.00    -0.000 A 
ATOM     21  C   UNL A   1     -25.649   4.410  27.953  0.00  0.00    -0.000 A 
ATOM     22  C   UNL A   1     -25.420   3.020  27.853  0.00  0.00    -0.000 A 
ENDBRANCH  15  17
BRANCH  16  23
ATOM     23  C   UNL A   1     -25.721  -0.188  25.028  0.00  0.00    +0.052 C 
BRANCH  23  24
ATOM     24  C   UNL A   1     -27.049   0.409  24.439  0.00  0.00    -0.018 A 
ATOM     25  C   UNL A   1     -28.229  -0.362  24.167  0.00  0.00    -0.003 A 
ATOM     26  C   UNL A   1     -29.296   0.282  23.551  0.00  0.00    +0.011 A 
ATOM     27  C   UNL A   1     -29.423   1.682  23.568  0.00  0.00    +0.058 A 
ATOM     28  C   UNL A   1     -28.331   2.428  24.110  0.00  0.00    +0.011 A 
ATOM     29  C   UNL A   1     -27.183   1.836  24.522  0.00  0.00    -0.003 A 
ATOM     30 CL   UNL A   1     -30.810   2.436  23.000  0.00  0.00    -0.082 Cl
ENDBRANCH  23  24
ENDBRANCH  16  23
ENDBRANCH   2  15
BRANCH   3  31
ATOM     31  C   UNL A   1     -23.280  -0.287  31.206  0.00  0.00    +0.341 C 
ATOM     32  O   UNL A   1     -22.471  -0.995  31.620  0.00  0.00    -0.245 OA
BRANCH  31  33
ATOM     33  O   UNL A   1     -24.103   0.297  31.973  0.00  0.00    -0.441 OA
ATOM     34  C   UNL A   1     -24.639  -0.628  32.915  0.00  0.00    +0.256 C 
ENDBRANCH  31  33
ENDBRANCH   3  31
TORSDOF 8
ENDMDL
ENDMDL
