MODEL 174
MODEL 1
REMARK VINA RESULT:    -6.392      0.000      0.000
REMARK INTER + INTRA:          -8.798
REMARK INTER:                  -8.260
REMARK INTRA:                  -0.537
REMARK UNBOUND:                -0.537
REMARK  Name = No_174-gen_results/8p0m/2024-11-27-11-27-31/
REMARK  5 active torsions:
REMARK  status: ('A' for Active; 'I' for Inactive)
REMARK    1  A    between atoms: C_2  and  C_13
REMARK    2  A    between atoms: C_4  and  C_7
REMARK    3  A    between atoms: C_13  and  O_15
REMARK    4  A    between atoms: O_15  and  C_16
REMARK    5  A    between atoms: C_16  and  C_17
REMARK                            x       y       z     vdW  Elec       q    Type
REMARK                         _______ _______ _______ _____ _____    ______ ____
ROOT
ATOM      1  C   UNL A   1      -9.823   1.933  34.870  0.00  0.00    +0.076 C 
ATOM      2  C   UNL A   1     -10.400   1.575  35.676  0.00  0.00    +0.106 C 
ATOM      3  C   UNL A   1      -8.503   1.313  34.677  0.00  0.00    +0.155 C 
ATOM      4  C   UNL A   1      -8.108   0.192  35.464  0.00  0.00    +0.080 C 
ATOM      5  C   UNL A   1      -8.991  -0.202  36.438  0.00  0.00    +0.012 C 
ATOM      6  C   UNL A   1     -10.179   0.421  36.587  0.00  0.00    +0.012 C 
ATOM      7  O   UNL A   1      -7.665   1.795  33.750  0.00  0.00    -0.296 OA
ENDROOT
BRANCH   4   8
ATOM      8  C   UNL A   1      -6.827  -0.441  35.278  0.00  0.00    -0.015 A 
ATOM      9  C   UNL A   1      -5.903  -0.056  35.457  0.00  0.00    -0.004 A 
ATOM     10  C   UNL A   1      -4.537  -0.655  35.059  0.00  0.00    -0.000 A 
ATOM     11  C   UNL A   1      -4.670  -1.899  34.473  0.00  0.00    -0.000 A 
ATOM     12  C   UNL A   1      -6.747  -1.741  34.456  0.00  0.00    -0.004 A 
ATOM     13  C   UNL A   1      -5.743  -2.351  34.107  0.00  0.00    -0.000 A 
ENDBRANCH   4   8
BRANCH   2  14
ATOM     14  C   UNL A   1     -11.822   2.247  35.954  0.00  0.00    +0.317 C 
ATOM     15  O   UNL A   1     -12.510   1.975  36.845  0.00  0.00    -0.250 OA
BRANCH  14  16
ATOM     16  O   UNL A   1     -12.335   2.780  34.834  0.00  0.00    -0.436 OA
BRANCH  16  17
ATOM     17  C   UNL A   1     -13.475   2.471  34.403  0.00  0.00    +0.321 C 
BRANCH  17  18
ATOM     18  C   UNL A   1     -13.525   2.089  33.120  0.00  0.00    +0.408 C 
ATOM     19  O   UNL A   1     -14.050   2.702  32.309  0.00  0.00    -0.241 OA
ATOM     20  O   UNL A   1     -12.568   1.200  32.733  0.00  0.00    -0.241 OA
ENDBRANCH  17  18
ENDBRANCH  16  17
ENDBRANCH  14  16
ENDBRANCH   2  14
TORSDOF 5
ENDMDL
ENDMDL
