REMARK  Name = outputs/IAG933/test6/raw/output_175_IAG933_linker_design_.xyz
REMARK  14 active torsions:
REMARK  status: ('A' for Active; 'I' for Inactive)
REMARK    1  A    between atoms: C_1  and  C_2
REMARK    2  A    between atoms: C_1  and  C_8
REMARK    3  A    between atoms: C_1  and  C_39
REMARK    4  A    between atoms: C_14  and  C_15
REMARK    5  A    between atoms: C_15  and  O_18
REMARK    6  A    between atoms: O_18  and  C_30
REMARK    7  A    between atoms: C_21  and  O_22
REMARK    8  A    between atoms: O_22  and  C_23
REMARK    9  A    between atoms: C_23  and  C_24
REMARK   10  A    between atoms: N_28  and  C_41
REMARK   11  A    between atoms: N_28  and  C_43
REMARK   12  A    between atoms: C_29  and  O_34
REMARK   13  A    between atoms: O_34  and  C_37
REMARK   14  A    between atoms: C_35  and  C_43
REMARK                            x       y       z     vdW  Elec       q    Type
REMARK                         _______ _______ _______ _____ _____    ______ ____
ROOT
ATOM      1  C   UNL A   1     -25.595   3.134  29.212  0.00  0.00    +0.207 C 
ATOM      2  S   UNL A   1     -27.268   0.044  29.286  0.00  0.00    -0.135 S 
ATOM      3  C   UNL A   1     -27.987   1.492  29.931  0.00  0.00    +0.088 C 
ATOM      4  N   UNL A   1     -24.929   1.970  29.316  0.00  0.00    -0.224 NA
ATOM      5  C   UNL A   1     -27.680   2.808  30.656  0.00  0.00    +0.135 C 
ATOM      6  C   UNL A   1     -25.608  -0.353  28.935  0.00  0.00    +0.092 C 
ATOM      7  C   UNL A   1     -24.625   0.822  28.814  0.00  0.00    +0.189 C 
ATOM      8  C   UNL A   1     -26.671   3.747  30.092  0.00  0.00    +0.115 C 
ENDROOT
BRANCH   6   9
ATOM      9  C   UNL A   1     -24.855  -1.012  30.143  0.00  0.00    +0.052 C 
BRANCH   9  10
ATOM     10  C   UNL A   1     -24.973  -2.505  29.788  0.00  0.00    -0.020 C 
ATOM     11  C   UNL A   1     -23.906  -3.173  29.146  0.00  0.00    -0.004 C 
ATOM     12  C   UNL A   1     -23.989  -4.549  28.853  0.00  0.00    -0.000 C 
ATOM     13  C   UNL A   1     -25.137  -5.280  29.205  0.00  0.00    -0.000 C 
ATOM     14  C   UNL A   1     -26.232  -4.611  29.784  0.00  0.00    -0.000 C 
ATOM     15  C   UNL A   1     -26.155  -3.232  30.065  0.00  0.00    -0.004 C 
ENDBRANCH   9  10
BRANCH   9  16
ATOM     16  C   UNL A   1     -25.387  -0.679  31.571  0.00  0.00    +0.078 C 
ATOM     17  C   UNL A   1     -25.189   0.773  32.028  0.00  0.00    +0.019 C 
ATOM     18  C   UNL A   1     -25.336   0.684  33.544  0.00  0.00    +0.020 C 
ATOM     19  C   UNL A   1     -24.829  -0.715  33.905  0.00  0.00    +0.089 C 
ATOM     20  N   UNL A   1     -24.758  -1.481  32.646  0.00  0.00    -0.219 NA
ENDBRANCH   9  16
ENDBRANCH   6   9
BRANCH   1  21
ATOM     21  O   UNL A   1     -25.143   3.966  28.243  0.00  0.00    -0.423 OA
BRANCH  21  22
ATOM     22  C   UNL A   1     -25.642   4.093  27.123  0.00  0.00    +0.228 C 
ATOM     23  N   UNL A   1     -25.614   5.252  26.449  0.00  0.00    -0.235 NA
ATOM     24  C   UNL A   1     -25.026   6.479  26.963  0.00  0.00    +0.155 C 
BRANCH  22  26
ATOM     25  C   UNL A   1     -25.688   1.614  26.461  0.00  0.00    +0.041 C 
ATOM     26  C   UNL A   1     -26.250   2.920  26.395  0.00  0.00    +0.075 C 
ATOM     27  C   UNL A   1     -27.438   3.091  25.645  0.00  0.00    +0.107 C 
ATOM     28  N   UNL A   1     -28.075   2.089  25.003  0.00  0.00    -0.208 NA
ATOM     29  C   UNL A   1     -27.543   0.849  25.079  0.00  0.00    +0.253 C 
ATOM     30  C   UNL A   1     -26.354   0.576  25.777  0.00  0.00    +0.193 C 
ATOM     31  F   UNL A   1     -25.860  -0.681  25.795  0.00  0.00    -0.199 F 
BRANCH  29  32
ATOM     32  O   UNL A   1     -28.193  -0.208  24.477  0.00  0.00    -0.456 OA
BRANCH  32  33
ATOM     33  C   UNL A   1     -29.460   0.005  23.866  0.00  0.00    +0.243 C 
BRANCH  33  34
ATOM     34  C   UNL A   1     -30.065  -1.377  23.573  0.00  0.00    +0.229 C 
ATOM     35  O   UNL A   1     -30.729  -1.878  24.721  0.00  0.00    -0.216 OA
ENDBRANCH  33  34
ENDBRANCH  32  33
ENDBRANCH  29  32
ENDBRANCH  22  26
ENDBRANCH  21  22
ENDBRANCH   1  21
BRANCH   7  36
ATOM     36  N   UNL A   1     -23.627   0.409  28.167  0.00  0.00    -0.184 NA
BRANCH  36  37
ATOM     37  C   UNL A   1     -22.184   0.391  28.627  0.00  0.00    +0.204 C 
BRANCH  37  38
ATOM     38  C   UNL A   1     -21.586   1.280  27.745  0.00  0.00    +0.382 C 
ATOM     39  O   UNL A   1     -20.662   2.089  27.974  0.00  0.00    -0.244 OA
ATOM     40  O   UNL A   1     -22.094   1.437  26.599  0.00  0.00    -0.244 OA
ENDBRANCH  37  38
ENDBRANCH  36  37
ENDBRANCH   7  36
BRANCH   5  41
ATOM     41  O   UNL A   1     -28.676   3.089  31.514  0.00  0.00    -0.355 OA
BRANCH  41  42
ATOM     42  C   UNL A   1     -29.337   4.209  31.246  0.00  0.00    +0.142 C 
ATOM     43  C   UNL A   1     -30.131   4.787  32.374  0.00  0.00    +0.035 C 
ENDBRANCH  41  42
ENDBRANCH   5  41
TORSDOF 14
