REMARK  Name = outputs/IAG933/test6/raw/output_1750_IAG933_linker_design_.xyz
REMARK  17 active torsions:
REMARK  status: ('A' for Active; 'I' for Inactive)
REMARK    1  A    between atoms: C_1  and  C_2
REMARK    2  A    between atoms: C_1  and  C_8
REMARK    3  A    between atoms: C_1  and  C_42
REMARK    4  A    between atoms: C_13  and  N_43
REMARK    5  A    between atoms: C_14  and  C_15
REMARK    6  A    between atoms: C_21  and  O_22
REMARK    7  A    between atoms: O_22  and  C_23
REMARK    8  A    between atoms: C_23  and  C_24
REMARK    9  A    between atoms: C_29  and  N_39
REMARK   10  A    between atoms: C_29  and  O_41
REMARK   11  A    between atoms: C_30  and  C_38
REMARK   12  A    between atoms: C_32  and  C_35
REMARK   13  A    between atoms: C_32  and  N_39
REMARK   14  A    between atoms: C_35  and  C_36
REMARK   15  A    between atoms: C_36  and  C_45
REMARK   16  A    between atoms: C_40  and  O_41
REMARK   17  A    between atoms: C_40  and  C_42
REMARK                            x       y       z     vdW  Elec       q    Type
REMARK                         _______ _______ _______ _____ _____    ______ ____
ROOT
ATOM      1  C   UNL A   1     -23.634   0.192  28.492  0.00  0.00    +0.015 C 
ATOM      2  C   UNL A   1     -25.115   0.036  29.059  0.00  0.00    -0.010 C 
ENDROOT
BRANCH   1   4
ATOM      3  C   UNL A   1     -23.004   2.896  25.397  0.00  0.00    +0.022 C 
ATOM      4  C   UNL A   1     -23.238   1.123  27.491  0.00  0.00    +0.206 C 
ATOM      5  O   UNL A   1     -21.729   1.360  27.700  0.00  0.00    -0.203 OA
ATOM      6  C   UNL A   1     -23.529   1.768  26.263  0.00  0.00    +0.107 C 
ATOM      7  N   UNL A   1     -24.395   1.346  26.752  0.00  0.00    -0.239 NA
BRANCH   7   8
ATOM      8  C   UNL A   1     -25.688   1.614  26.461  0.00  0.00    +0.130 C 
ATOM      9  C   UNL A   1     -26.250   2.920  26.395  0.00  0.00    +0.070 C 
ATOM     10  C   UNL A   1     -27.438   3.091  25.645  0.00  0.00    +0.103 C 
ATOM     11  N   UNL A   1     -28.075   2.089  25.003  0.00  0.00    -0.212 NA
ATOM     12  C   UNL A   1     -27.543   0.849  25.079  0.00  0.00    +0.235 C 
ATOM     13  C   UNL A   1     -26.354   0.576  25.777  0.00  0.00    +0.255 C 
ATOM     14  F   UNL A   1     -25.860  -0.681  25.795  0.00  0.00    -0.225 F 
BRANCH   9  15
ATOM     15  C   UNL A   1     -25.642   4.093  27.123  0.00  0.00    +0.264 C 
ATOM     16  N   UNL A   1     -25.614   5.252  26.449  0.00  0.00    -0.200 NA
ATOM     17  C   UNL A   1     -25.026   6.479  26.963  0.00  0.00    +0.139 C 
ATOM     18  O   UNL A   1     -25.143   3.966  28.243  0.00  0.00    -0.269 OA
ENDBRANCH   9  15
BRANCH  12  19
ATOM     19  O   UNL A   1     -28.193  -0.208  24.477  0.00  0.00    -0.459 OA
BRANCH  19  20
ATOM     20  C   UNL A   1     -29.460   0.005  23.866  0.00  0.00    +0.242 C 
BRANCH  20  21
ATOM     21  C   UNL A   1     -30.065  -1.377  23.573  0.00  0.00    +0.229 C 
ATOM     22  O   UNL A   1     -30.729  -1.878  24.721  0.00  0.00    -0.216 OA
ENDBRANCH  20  21
ENDBRANCH  19  20
ENDBRANCH  12  19
ENDBRANCH   7   8
ENDBRANCH   1   4
BRANCH   2  23
ATOM     23  C   UNL A   1     -24.855  -1.012  30.143  0.00  0.00    +0.059 C 
BRANCH  23  24
ATOM     24  C   UNL A   1     -24.973  -2.505  29.788  0.00  0.00    -0.017 C 
ATOM     25  C   UNL A   1     -23.906  -3.173  29.146  0.00  0.00    -0.004 C 
ATOM     26  C   UNL A   1     -23.989  -4.549  28.853  0.00  0.00    -0.000 C 
ATOM     27  C   UNL A   1     -25.137  -5.280  29.205  0.00  0.00    -0.000 C 
ATOM     28  C   UNL A   1     -26.232  -4.611  29.784  0.00  0.00    -0.000 C 
ATOM     29  C   UNL A   1     -26.155  -3.232  30.065  0.00  0.00    -0.004 C 
ENDBRANCH  23  24
BRANCH  23  30
ATOM     30  C   UNL A   1     -25.387  -0.679  31.571  0.00  0.00    +0.081 C 
ATOM     31  C   UNL A   1     -25.189   0.773  32.028  0.00  0.00    +0.019 C 
ATOM     32  C   UNL A   1     -25.336   0.684  33.544  0.00  0.00    +0.020 C 
ATOM     33  C   UNL A   1     -24.829  -0.715  33.905  0.00  0.00    +0.089 C 
ATOM     34  N   UNL A   1     -24.758  -1.481  32.646  0.00  0.00    -0.219 NA
ENDBRANCH  23  30
ENDBRANCH   2  23
BRANCH   2  35
ATOM     35  C   UNL A   1     -26.675   0.547  29.192  0.00  0.00    +0.166 C 
BRANCH  35  36
ATOM     36  O   UNL A   1     -27.819  -0.364  28.677  0.00  0.00    -0.333 OA
BRANCH  36  37
ATOM     37  C   UNL A   1     -28.601  -1.318  29.243  0.00  0.00    +0.220 C 
BRANCH  37  38
ATOM     38  N   UNL A   1     -29.880  -0.859  29.766  0.00  0.00    -0.246 NA
ATOM     39  C   UNL A   1     -30.203   0.521  29.383  0.00  0.00    +0.092 C 
BRANCH  38  40
ATOM     40  C   UNL A   1     -30.865  -1.756  29.073  0.00  0.00    +0.077 C 
BRANCH  40  41
ATOM     41  C   UNL A   1     -31.318  -3.069  29.764  0.00  0.00    +0.053 C 
BRANCH  41  42
ATOM     42  C   UNL A   1     -30.266  -3.779  30.662  0.00  0.00    +0.186 C 
ATOM     43  O   UNL A   1     -29.264  -4.251  29.789  0.00  0.00    -0.220 OA
BRANCH  42  45
ATOM     44  O   UNL A   1     -28.346  -2.798  31.927  0.00  0.00    -0.218 OA
ATOM     45  C   UNL A   1     -29.729  -2.897  31.782  0.00  0.00    +0.215 C 
ENDBRANCH  42  45
ENDBRANCH  41  42
ENDBRANCH  40  41
ENDBRANCH  38  40
ENDBRANCH  37  38
ENDBRANCH  36  37
ENDBRANCH  35  36
ENDBRANCH   2  35
TORSDOF 17
