MODEL 1751
MODEL 1
REMARK VINA RESULT:    -4.563      0.000      0.000
REMARK INTER + INTRA:          -4.563
REMARK INTER:                  -4.563
REMARK INTRA:                   0.000
REMARK UNBOUND:                 0.000
REMARK  Name = No_1751-gen_results/8p0m/2024-11-27-11-27-31/
REMARK  0 active torsions:
REMARK  status: ('A' for Active; 'I' for Inactive)
REMARK                            x       y       z     vdW  Elec       q    Type
REMARK                         _______ _______ _______ _____ _____    ______ ____
ROOT
ATOM      1  C   UNL A   1     -10.148  -9.780  18.331  0.00  0.00    +0.030 A 
ATOM      2  C   UNL A   1      -9.088 -10.294  18.056  0.00  0.00    +0.140 A 
ATOM      3  C   UNL A   1      -8.042 -10.317  18.971  0.00  0.00    +0.030 A 
ATOM      4  C   UNL A   1      -8.171  -9.688  20.260  0.00  0.00    +0.002 A 
ATOM      5  C   UNL A   1      -9.421  -9.097  20.487  0.00  0.00    +0.000 A 
ATOM      6  C   UNL A   1     -10.372  -9.088  19.582  0.00  0.00    +0.002 A 
ATOM      7  F   UNL A   1      -8.814 -10.855  16.877  0.00  0.00    -0.204 F 
ENDROOT
TORSDOF 0
ENDMDL
ENDMDL
