MODEL 1752
MODEL 1
REMARK VINA RESULT:    -8.501      0.000      0.000
REMARK INTER + INTRA:          -8.501
REMARK INTER:                  -8.501
REMARK INTRA:                   0.000
REMARK UNBOUND:                 0.000
REMARK  Name = No_1752-gen_results/8p0m/2024-11-27-11-27-31/
REMARK  0 active torsions:
REMARK  status: ('A' for Active; 'I' for Inactive)
REMARK                            x       y       z     vdW  Elec       q    Type
REMARK                         _______ _______ _______ _____ _____    ______ ____
ROOT
ATOM      1  C   UNL A   1     -28.108   1.210  29.639  0.00  0.00    +0.011 A 
ATOM      2  C   UNL A   1     -27.019   1.733  29.593  0.00  0.00    +0.058 A 
ATOM      3  C   UNL A   1     -25.848   1.059  29.716  0.00  0.00    +0.011 A 
ATOM      4  C   UNL A   1     -25.897  -0.335  29.911  0.00  0.00    -0.001 A 
ATOM      5  C   UNL A   1     -28.231  -0.222  29.739  0.00  0.00    -0.003 A 
ATOM      6  C   UNL A   1     -27.085  -0.943  29.895  0.00  0.00    -0.018 A 
ATOM      7 CL   UNL A   1     -26.847   3.449  29.346  0.00  0.00    -0.082 Cl
ATOM      8  C   UNL A   1     -27.195  -2.425  30.054  0.00  0.00    +0.052 C 
ATOM      9  C   UNL A   1     -26.204  -3.127  29.619  0.00  0.00    -0.022 A 
ATOM     10  C   UNL A   1     -26.193  -4.579  29.668  0.00  0.00    -0.004 A 
ATOM     11  C   UNL A   1     -25.118  -5.325  29.160  0.00  0.00    -0.000 A 
ATOM     12  C   UNL A   1     -24.001  -4.647  28.625  0.00  0.00    -0.000 A 
ATOM     13  C   UNL A   1     -23.973  -3.242  28.544  0.00  0.00    -0.004 A 
ATOM     14  C   UNL A   1     -25.035  -2.521  28.997  0.00  0.00    -0.024 A 
ATOM     15  C   UNL A   1     -24.860  -1.057  29.080  0.00  0.00    +0.057 C 
ATOM     16  C   UNL A   1     -23.382  -0.660  29.503  0.00  0.00    +0.205 C 
ATOM     17  C   UNL A   1     -25.360  -0.513  31.464  0.00  0.00    +0.019 C 
ATOM     18  C   UNL A   1     -25.093  -0.610  27.519  0.00  0.00    +0.007 C 
ATOM     19  C   UNL A   1     -23.893  -0.978  29.437  0.00  0.00    +0.269 C 
ATOM     20  N   UNL A   1     -23.682  -2.254  30.348  0.00  0.00    -0.154 NA
ATOM     21  O   UNL A   1     -23.317  -0.154  28.989  0.00  0.00    -0.218 OA
ATOM     22  N   UNL A   1     -23.942  -1.669  30.207  0.00  0.00    -0.160 NA
ATOM     23  C   UNL A   1     -24.827  -1.242  31.320  0.00  0.00    +0.100 C 
ATOM     24  F   UNL A   1     -23.583  -1.611  28.692  0.00  0.00    -0.215 F 
ATOM     25  C   UNL A   1     -22.921  -1.239  31.289  0.00  0.00    +0.116 C 
ENDROOT
TORSDOF 0
ENDMDL
ENDMDL
