REMARK  Name = No_1752-gen_results/8p0m/2024-11-27-11-27-31/
REMARK  0 active torsions:
REMARK  status: ('A' for Active; 'I' for Inactive)
REMARK                            x       y       z     vdW  Elec       q    Type
REMARK                         _______ _______ _______ _____ _____    ______ ____
ROOT
ATOM      1  C   UNL A   1     -28.016  -0.814  28.878  0.00  0.00    +0.011 A 
ATOM      2  C   UNL A   1     -27.064  -0.119  28.608  0.00  0.00    +0.058 A 
ATOM      3  C   UNL A   1     -26.929   1.171  29.008  0.00  0.00    +0.011 A 
ATOM      4  C   UNL A   1     -27.956   1.741  29.784  0.00  0.00    -0.001 A 
ATOM      5  C   UNL A   1     -29.057  -0.327  29.747  0.00  0.00    -0.003 A 
ATOM      6  C   UNL A   1     -28.983   0.972  30.152  0.00  0.00    -0.018 A 
ATOM      7 CL   UNL A   1     -25.735  -0.730  27.663  0.00  0.00    -0.082 Cl
ATOM      8  C   UNL A   1     -30.081   1.511  31.011  0.00  0.00    +0.052 C 
ATOM      9  C   UNL A   1     -29.760   2.446  31.840  0.00  0.00    -0.022 A 
ATOM     10  C   UNL A   1     -30.713   3.033  32.766  0.00  0.00    -0.004 A 
ATOM     11  C   UNL A   1     -30.334   4.027  33.682  0.00  0.00    -0.000 A 
ATOM     12  C   UNL A   1     -29.003   4.497  33.676  0.00  0.00    -0.000 A 
ATOM     13  C   UNL A   1     -28.041   3.949  32.807  0.00  0.00    -0.004 A 
ATOM     14  C   UNL A   1     -28.399   2.954  31.949  0.00  0.00    -0.024 A 
ATOM     15  C   UNL A   1     -27.408   2.569  30.924  0.00  0.00    +0.057 C 
ATOM     16  C   UNL A   1     -26.580   3.820  30.402  0.00  0.00    +0.205 C 
ATOM     17  C   UNL A   1     -28.619   2.857  28.761  0.00  0.00    +0.019 C 
ATOM     18  C   UNL A   1     -26.403   1.602  31.786  0.00  0.00    +0.007 C 
ATOM     19  C   UNL A   1     -27.026   3.488  30.642  0.00  0.00    +0.269 C 
ATOM     20  N   UNL A   1     -28.224   4.506  30.814  0.00  0.00    -0.154 NA
ATOM     21  O   UNL A   1     -25.941   3.482  30.454  0.00  0.00    -0.218 OA
ATOM     22  N   UNL A   1     -27.913   4.009  30.522  0.00  0.00    -0.160 NA
ATOM     23  C   UNL A   1     -28.721   3.530  29.372  0.00  0.00    +0.100 C 
ATOM     24  F   UNL A   1     -26.862   3.705  31.631  0.00  0.00    -0.215 F 
ATOM     25  C   UNL A   1     -27.668   5.116  29.468  0.00  0.00    +0.116 C 
ENDROOT
TORSDOF 0
