MODEL 1753
MODEL 1
REMARK VINA RESULT:    -6.259      0.000      0.000
REMARK INTER + INTRA:          -7.053
REMARK INTER:                  -6.990
REMARK INTRA:                  -0.062
REMARK UNBOUND:                -0.062
REMARK  Name = No_1753-gen_results/8p0m/2024-11-27-11-27-31/
REMARK  2 active torsions:
REMARK  status: ('A' for Active; 'I' for Inactive)
REMARK    1  A    between atoms: C_7  and  C_15
REMARK    2  A    between atoms: C_9  and  C_11
REMARK                            x       y       z     vdW  Elec       q    Type
REMARK                         _______ _______ _______ _____ _____    ______ ____
ROOT
ATOM      1  C   UNL A   1     -23.632  -2.524  28.947  0.00  0.00    +0.030 A 
ATOM      2  C   UNL A   1     -24.190  -1.603  29.496  0.00  0.00    +0.013 A 
ATOM      3  C   UNL A   1     -25.422  -1.776  30.117  0.00  0.00    +0.012 A 
ATOM      4  C   UNL A   1     -26.094  -3.049  30.087  0.00  0.00    +0.003 A 
ATOM      5  C   UNL A   1     -25.389  -4.054  29.411  0.00  0.00    +0.030 A 
ATOM      6  C   UNL A   1     -24.234  -3.834  28.825  0.00  0.00    +0.140 A 
ATOM      7  C   UNL A   1     -23.658  -0.217  29.600  0.00  0.00    +0.119 A 
ATOM      8  C   UNL A   1     -23.905   0.559  30.596  0.00  0.00    +0.212 A 
ATOM      9  C   UNL A   1     -25.233   0.375  31.322  0.00  0.00    +0.118 A 
ATOM     10  C   UNL A   1     -25.896  -0.836  31.168  0.00  0.00    +0.070 A 
ATOM     11  F   UNL A   1     -23.701  -4.830  28.128  0.00  0.00    -0.204 F 
ATOM     12 CL   UNL A   1     -27.310  -1.081  32.030  0.00  0.00    -0.081 Cl
ATOM     13  O   UNL A   1     -23.371   1.726  30.717  0.00  0.00    -0.286 OA
ENDROOT
BRANCH   7  14
ATOM     14  C   UNL A   1     -22.421   0.056  28.786  0.00  0.00    +0.391 C 
ATOM     15  O   UNL A   1     -21.400  -0.341  29.272  0.00  0.00    -0.240 OA
ATOM     16  O   UNL A   1     -22.531   0.736  27.733  0.00  0.00    -0.240 OA
ENDBRANCH   7  14
BRANCH   9  17
ATOM     17  C   UNL A   1     -25.731   1.393  32.237  0.00  0.00    +0.104 C 
ATOM     18  N   UNL A   1     -25.695   1.844  33.242  0.00  0.00    -0.191 NA
ENDBRANCH   9  17
TORSDOF 2
ENDMDL
ENDMDL
