REMARK  Name = No_1753-gen_results/8p0m/2024-11-27-11-27-31/
REMARK  2 active torsions:
REMARK  status: ('A' for Active; 'I' for Inactive)
REMARK    1  A    between atoms: C_7  and  C_15
REMARK    2  A    between atoms: C_9  and  C_11
REMARK                            x       y       z     vdW  Elec       q    Type
REMARK                         _______ _______ _______ _____ _____    ______ ____
ROOT
ATOM      1  C   UNL A   1     -28.016  -0.814  28.878  0.00  0.00    +0.030 A 
ATOM      2  C   UNL A   1     -27.064  -0.119  28.608  0.00  0.00    +0.013 A 
ATOM      3  C   UNL A   1     -25.792  -0.430  29.076  0.00  0.00    +0.012 A 
ATOM      4  C   UNL A   1     -25.576  -1.565  29.936  0.00  0.00    +0.003 A 
ATOM      5  C   UNL A   1     -26.735  -2.300  30.217  0.00  0.00    +0.030 A 
ATOM      6  C   UNL A   1     -27.918  -1.954  29.763  0.00  0.00    +0.140 A 
ATOM      7  C   UNL A   1     -27.106   1.102  27.759  0.00  0.00    +0.119 A 
ATOM      8  C   UNL A   1     -26.122   1.482  27.023  0.00  0.00    +0.212 A 
ATOM      9  C   UNL A   1     -24.714   1.130  27.489  0.00  0.00    +0.118 A 
ATOM     10  C   UNL A   1     -24.572   0.097  28.407  0.00  0.00    +0.070 A 
ATOM     11  F   UNL A   1     -28.963  -2.663  30.172  0.00  0.00    -0.204 F 
ATOM     12 CL   UNL A   1     -23.025  -0.356  28.858  0.00  0.00    -0.081 Cl
ATOM     13  O   UNL A   1     -26.199   2.494  26.228  0.00  0.00    -0.286 OA
ENDROOT
BRANCH   7  14
ATOM     14  C   UNL A   1     -28.486   1.575  27.387  0.00  0.00    +0.391 C 
ATOM     15  O   UNL A   1     -28.948   2.405  28.117  0.00  0.00    -0.240 OA
ATOM     16  O   UNL A   1     -29.073   1.022  26.421  0.00  0.00    -0.240 OA
ENDBRANCH   7  14
BRANCH   9  17
ATOM     17  C   UNL A   1     -23.549   1.779  26.903  0.00  0.00    +0.104 C 
ATOM     18  N   UNL A   1     -22.757   2.540  26.997  0.00  0.00    -0.191 NA
ENDBRANCH   9  17
TORSDOF 2
