MODEL 1755
MODEL 1
REMARK VINA RESULT:    -6.296      0.000      0.000
REMARK INTER + INTRA:          -9.111
REMARK INTER:                  -8.505
REMARK INTRA:                  -0.606
REMARK UNBOUND:                -0.606
REMARK  Name = No_1755-gen_results/8p0m/2024-11-27-11-27-31/
REMARK  6 active torsions:
REMARK  status: ('A' for Active; 'I' for Inactive)
REMARK    1  A    between atoms: C_2  and  C_7
REMARK    2  A    between atoms: N_9  and  C_10
REMARK    3  A    between atoms: C_14  and  C_16
REMARK    4  A    between atoms: N_18  and  C_19
REMARK    5  A    between atoms: C_20  and  C_21
REMARK    6  A    between atoms: C_22  and  C_23
REMARK                            x       y       z     vdW  Elec       q    Type
REMARK                         _______ _______ _______ _____ _____    ______ ____
ROOT
ATOM      1  C   UNL A   1     -24.216   1.038  28.198  0.00  0.00    +0.074 A 
ATOM      2  C   UNL A   1     -23.349   1.845  27.909  0.00  0.00    +0.017 A 
ATOM      3  C   UNL A   1     -23.079   2.211  26.545  0.00  0.00    +0.002 A 
ATOM      4  C   UNL A   1     -23.872   1.530  25.565  0.00  0.00    +0.005 A 
ATOM      5  C   UNL A   1     -24.847   0.658  25.978  0.00  0.00    +0.057 A 
ATOM      6  C   UNL A   1     -25.062   0.371  27.308  0.00  0.00    +0.021 A 
ENDROOT
BRANCH   1   9
ATOM      7  C   UNL A   1     -23.660  -0.093  30.267  0.00  0.00    +0.269 C 
ATOM      8  O   UNL A   1     -22.895  -0.743  29.789  0.00  0.00    -0.268 OA
ATOM      9  N   UNL A   1     -24.433   0.862  29.599  0.00  0.00    -0.175 NA
BRANCH   7  11
ATOM     10  C   UNL A   1     -23.302  -1.150  32.256  0.00  0.00    +0.005 A 
ATOM     11  C   UNL A   1     -23.892  -0.389  31.829  0.00  0.00    +0.055 A 
ATOM     12  C   UNL A   1     -23.549  -1.417  33.724  0.00  0.00    +0.000 A 
ATOM     13  C   UNL A   1     -24.614  -0.760  34.376  0.00  0.00    +0.000 A 
ATOM     14  C   UNL A   1     -25.063   0.405  32.265  0.00  0.00    +0.005 A 
ATOM     15  C   UNL A   1     -25.324   0.182  33.609  0.00  0.00    +0.000 A 
ENDBRANCH   7  11
ENDBRANCH   1   9
BRANCH   5  16
ATOM     16  C   UNL A   1     -25.668  -0.043  24.954  0.00  0.00    +0.269 C 
ATOM     17  O   UNL A   1     -25.422  -0.924  24.408  0.00  0.00    -0.268 OA
ATOM     18  N   UNL A   1     -27.044   0.411  24.993  0.00  0.00    -0.174 NA
BRANCH  18  19
ATOM     19  C   UNL A   1     -28.049  -0.283  24.317  0.00  0.00    +0.089 C 
ATOM     20  C   UNL A   1     -29.139   0.360  24.265  0.00  0.00    +0.018 C 
BRANCH  20  21
ATOM     21  C   UNL A   1     -30.299  -0.133  23.639  0.00  0.00    +0.001 C 
ATOM     22  C   UNL A   1     -31.249   0.697  22.951  0.00  0.00    +0.000 C 
BRANCH  22  23
ATOM     23  C   UNL A   1     -30.962   2.102  22.858  0.00  0.00    +0.000 C 
ATOM     24  C   UNL A   1     -31.412   2.831  21.788  0.00  0.00    +0.000 C 
ENDBRANCH  22  23
ENDBRANCH  20  21
ENDBRANCH  18  19
ENDBRANCH   5  16
TORSDOF 6
ENDMDL
ENDMDL
