REMARK  Name = No_1755-gen_results/8p0m/2024-11-27-11-27-31/
REMARK  6 active torsions:
REMARK  status: ('A' for Active; 'I' for Inactive)
REMARK    1  A    between atoms: C_2  and  C_7
REMARK    2  A    between atoms: N_9  and  C_10
REMARK    3  A    between atoms: C_14  and  C_16
REMARK    4  A    between atoms: N_18  and  C_19
REMARK    5  A    between atoms: C_20  and  C_21
REMARK    6  A    between atoms: C_22  and  C_23
REMARK                            x       y       z     vdW  Elec       q    Type
REMARK                         _______ _______ _______ _____ _____    ______ ____
ROOT
ATOM      1  C   UNL A   1     -32.175  -1.468  30.889  0.00  0.00    +0.074 A 
ATOM      2  C   UNL A   1     -32.681  -2.308  31.613  0.00  0.00    +0.017 A 
ATOM      3  C   UNL A   1     -34.095  -2.569  31.597  0.00  0.00    +0.002 A 
ATOM      4  C   UNL A   1     -34.854  -1.746  30.703  0.00  0.00    +0.005 A 
ATOM      5  C   UNL A   1     -34.201  -0.845  29.901  0.00  0.00    +0.057 A 
ATOM      6  C   UNL A   1     -32.837  -0.663  29.958  0.00  0.00    +0.021 A 
ENDROOT
BRANCH   1   9
ATOM      7  C   UNL A   1     -30.074  -0.836  29.861  0.00  0.00    +0.269 C 
ATOM      8  O   UNL A   1     -30.561  -0.442  28.942  0.00  0.00    -0.268 OA
ATOM      9  N   UNL A   1     -30.749  -1.403  30.947  0.00  0.00    -0.175 NA
BRANCH   7  11
ATOM     10  C   UNL A   1     -28.016  -0.814  28.878  0.00  0.00    +0.005 A 
ATOM     11  C   UNL A   1     -28.469  -0.785  29.829  0.00  0.00    +0.055 A 
ATOM     12  C   UNL A   1     -26.504  -0.778  28.877  0.00  0.00    +0.000 A 
ATOM     13  C   UNL A   1     -25.810  -0.853  30.103  0.00  0.00    +0.000 A 
ATOM     14  C   UNL A   1     -27.991  -0.892  31.226  0.00  0.00    +0.005 A 
ATOM     15  C   UNL A   1     -26.604  -0.868  31.265  0.00  0.00    +0.000 A 
ENDBRANCH   7  11
ENDBRANCH   1   9
BRANCH   5  16
ATOM     16  C   UNL A   1     -34.997   0.003  28.974  0.00  0.00    +0.269 C 
ATOM     17  O   UNL A   1     -36.053   0.144  28.958  0.00  0.00    -0.268 OA
ATOM     18  N   UNL A   1     -34.143   0.929  28.256  0.00  0.00    -0.174 NA
BRANCH  18  19
ATOM     19  C   UNL A   1     -34.685   1.996  27.536  0.00  0.00    +0.089 C 
ATOM     20  C   UNL A   1     -33.881   2.466  26.677  0.00  0.00    +0.018 C 
BRANCH  20  21
ATOM     21  C   UNL A   1     -34.197   3.546  25.832  0.00  0.00    +0.001 C 
ATOM     22  C   UNL A   1     -33.279   4.112  24.884  0.00  0.00    +0.000 C 
BRANCH  22  23
ATOM     23  C   UNL A   1     -31.984   3.500  24.762  0.00  0.00    +0.000 C 
ATOM     24  C   UNL A   1     -31.632   2.455  25.576  0.00  0.00    +0.000 C 
ENDBRANCH  22  23
ENDBRANCH  20  21
ENDBRANCH  18  19
ENDBRANCH   5  16
TORSDOF 6
