MODEL 1756
MODEL 1
REMARK VINA RESULT:    -6.309      0.000      0.000
REMARK INTER + INTRA:          -6.748
REMARK INTER:                  -6.678
REMARK INTRA:                  -0.070
REMARK UNBOUND:                -0.070
REMARK  Name = No_1756-gen_results/8p0m/2024-11-27-11-27-31/
REMARK  1 active torsions:
REMARK  status: ('A' for Active; 'I' for Inactive)
REMARK    1  A    between atoms: C_2  and  C_3
REMARK                            x       y       z     vdW  Elec       q    Type
REMARK                         _______ _______ _______ _____ _____    ______ ____
ROOT
ATOM      1  O   UNL A   1     -25.467  -0.971  27.464  0.00  0.00    -0.270 OA
ATOM      2  C   UNL A   1     -24.750  -1.185  28.340  0.00  0.00    +0.249 C 
ATOM      3  N   UNL A   1     -24.075  -0.094  29.052  0.00  0.00    -0.276 N 
ATOM      4  C   UNL A   1     -23.850   1.020  28.456  0.00  0.00    +0.094 C 
ATOM      5  C   UNL A   1     -22.720   1.225  27.978  0.00  0.00    +0.022 C 
ATOM      6  C   UNL A   1     -21.652   0.358  28.284  0.00  0.00    +0.004 C 
ATOM      7  C   UNL A   1     -21.669  -0.195  29.505  0.00  0.00    +0.022 C 
ATOM      8  C   UNL A   1     -23.219  -0.502  30.112  0.00  0.00    +0.094 C 
ENDROOT
BRANCH   2   9
ATOM      9  C   UNL A   1     -24.855  -2.336  29.094  0.00  0.00    +0.054 A 
ATOM     10  C   UNL A   1     -25.554  -2.834  29.640  0.00  0.00    +0.004 A 
ATOM     11  C   UNL A   1     -26.285  -3.805  29.780  0.00  0.00    +0.000 A 
ATOM     12  C   UNL A   1     -25.685  -5.136  29.356  0.00  0.00    +0.000 A 
ATOM     13  C   UNL A   1     -24.381  -4.943  28.826  0.00  0.00    +0.000 A 
ATOM     14  C   UNL A   1     -23.946  -3.634  28.606  0.00  0.00    +0.004 A 
ENDBRANCH   2   9
TORSDOF 1
ENDMDL
ENDMDL
