MODEL 1758
MODEL 1
REMARK VINA RESULT:    -5.006      0.000      0.000
REMARK INTER + INTRA:          -5.421
REMARK INTER:                  -5.298
REMARK INTRA:                  -0.122
REMARK UNBOUND:                -0.122
REMARK  Name = No_1758-gen_results/8p0m/2024-11-27-11-27-31/
REMARK  1 active torsions:
REMARK  status: ('A' for Active; 'I' for Inactive)
REMARK    1  A    between atoms: C_3  and  C_4
REMARK                            x       y       z     vdW  Elec       q    Type
REMARK                         _______ _______ _______ _____ _____    ______ ____
ROOT
ATOM      1  C   UNL A   1     -25.738  -2.611  29.783  0.00  0.00    +0.001 A 
ATOM      2  C   UNL A   1     -26.289  -3.504  29.888  0.00  0.00    -0.000 A 
ATOM      3  C   UNL A   1     -24.423  -2.803  29.172  0.00  0.00    +0.044 A 
ATOM      4  C   UNL A   1     -26.052  -4.904  29.564  0.00  0.00    -0.000 A 
ATOM      5  C   UNL A   1     -24.815  -5.127  28.996  0.00  0.00    -0.000 A 
ATOM      6  C   UNL A   1     -24.001  -4.087  28.740  0.00  0.00    +0.001 A 
ENDROOT
BRANCH   3   7
ATOM      7  C   UNL A   1     -23.509  -1.692  28.825  0.00  0.00    +0.341 C 
ATOM      8  F   UNL A   1     -22.522  -1.734  29.108  0.00  0.00    -0.193 F 
ATOM      9  F   UNL A   1     -23.996  -0.693  28.080  0.00  0.00    -0.193 F 
ENDBRANCH   3   7
TORSDOF 1
ENDMDL
ENDMDL
