REMARK  Name = No_1759-gen_results/8p0m/2024-11-27-11-27-31/
REMARK  9 active torsions:
REMARK  status: ('A' for Active; 'I' for Inactive)
REMARK    1  A    between atoms: C_2  and  C_17
REMARK    2  A    between atoms: C_6  and  O_7
REMARK    3  A    between atoms: O_7  and  C_9
REMARK    4  A    between atoms: C_9  and  C_10
REMARK    5  A    between atoms: C_10  and  P_11
REMARK    6  A    between atoms: C_18  and  C_19
REMARK    7  A    between atoms: C_23  and  C_25
REMARK    8  A    between atoms: C_24  and  C_34
REMARK    9  A    between atoms: C_29  and  C_31
REMARK                            x       y       z     vdW  Elec       q    Type
REMARK                         _______ _______ _______ _____ _____    ______ ____
ROOT
ATOM      1  C   UNL A   1     -26.947   1.041  27.617  0.00  0.00    +0.031 C 
ATOM      2  C   UNL A   1     -26.555   0.882  26.353  0.00  0.00    +0.026 C 
ATOM      3  C   UNL A   1     -26.728   1.886  25.406  0.00  0.00    +0.005 C 
ATOM      4  C   UNL A   1     -27.231   3.193  25.861  0.00  0.00    +0.001 C 
ATOM      5  C   UNL A   1     -27.569   2.260  28.067  0.00  0.00    +0.027 C 
ATOM      6  C   UNL A   1     -27.661   3.346  27.165  0.00  0.00    +0.004 C 
ENDROOT
BRANCH   1   8
ATOM      7  C   UNL A   1     -28.016  -0.814  28.878  0.00  0.00    +0.034 A 
ATOM      8  C   UNL A   1     -27.064  -0.119  28.608  0.00  0.00    -0.008 A 
ATOM      9  C   UNL A   1     -25.792  -0.430  29.076  0.00  0.00    +0.054 A 
ATOM     10  C   UNL A   1     -25.576  -1.565  29.936  0.00  0.00    +0.014 A 
ATOM     11  C   UNL A   1     -26.735  -2.300  30.217  0.00  0.00    +0.038 A 
ATOM     12  C   UNL A   1     -27.918  -1.954  29.763  0.00  0.00    +0.139 A 
ATOM     13 CL   UNL A   1     -24.350   0.489  28.750  0.00  0.00    -0.083 Cl
BRANCH  12  14
ATOM     14  O   UNL A   1     -29.000  -2.701  30.115  0.00  0.00    -0.469 OA
BRANCH  14  15
ATOM     15  C   UNL A   1     -29.370  -2.823  31.447  0.00  0.00    +0.278 C 
BRANCH  15  16
ATOM     16  C   UNL A   1     -30.737  -2.700  31.621  0.00  0.00    +0.346 C 
ATOM     17  F   UNL A   1     -31.061  -1.437  31.107  0.00  0.00    -0.193 F 
ATOM     18  F   UNL A   1     -31.394  -3.596  30.805  0.00  0.00    -0.193 F 
BRANCH  16  19
ATOM     19  P   UNL A   1     -31.226  -2.844  33.144  0.00  0.00    +0.183 P 
ATOM     20  O   UNL A   1     -30.247  -3.406  33.920  0.00  0.00    -0.353 OA
ATOM     21  O   UNL A   1     -31.469  -1.415  33.673  0.00  0.00    -0.455 OA
ATOM     22  O   UNL A   1     -32.557  -3.595  33.150  0.00  0.00    -0.353 OA
ENDBRANCH  16  19
ENDBRANCH  15  16
ENDBRANCH  14  15
ENDBRANCH  12  14
ENDBRANCH   1   8
BRANCH   5  23
ATOM     23  C   UNL A   1     -28.052   2.504  29.431  0.00  0.00    -0.022 A 
ATOM     24  C   UNL A   1     -29.301   2.218  29.752  0.00  0.00    -0.004 A 
ATOM     25  C   UNL A   1     -29.716   2.358  31.111  0.00  0.00    -0.000 A 
ATOM     26  C   UNL A   1     -28.788   2.519  32.138  0.00  0.00    +0.005 A 
ATOM     27  C   UNL A   1     -27.445   2.776  31.772  0.00  0.00    +0.056 A 
ATOM     28  C   UNL A   1     -27.044   2.729  30.465  0.00  0.00    +0.000 A 
BRANCH  27  29
ATOM     29  C   UNL A   1     -26.453   3.061  32.842  0.00  0.00    +0.284 C 
ATOM     30  N   UNL A   1     -26.454   2.777  33.919  0.00  0.00    -0.084 NA
ATOM     31  O   UNL A   1     -25.346   3.723  32.339  0.00  0.00    -0.267 OA
ENDBRANCH  27  29
ENDBRANCH   5  23
BRANCH   2  32
ATOM     32  C   UNL A   1     -26.091  -0.244  25.857  0.00  0.00    -0.026 C 
ATOM     33  C   UNL A   1     -25.640  -0.339  24.491  0.00  0.00    -0.005 C 
ENDBRANCH   2  32
BRANCH   6  34
ATOM     34  C   UNL A   1     -28.170   4.655  27.624  0.00  0.00    +0.000 C 
ATOM     35  C   UNL A   1     -27.324   5.630  28.085  0.00  0.00    +0.000 C 
ENDBRANCH   6  34
TORSDOF 9
