MODEL 1759
MODEL 1
REMARK VINA RESULT:    -6.957      0.000      0.000
REMARK INTER + INTRA:         -13.231
REMARK INTER:                 -10.617
REMARK INTRA:                  -2.614
REMARK UNBOUND:                -2.614
REMARK  Name = No_1759-gen_results/8p0m/2024-11-27-11-27-31/
REMARK  9 active torsions:
REMARK  status: ('A' for Active; 'I' for Inactive)
REMARK    1  A    between atoms: C_2  and  C_17
REMARK    2  A    between atoms: C_6  and  O_7
REMARK    3  A    between atoms: O_7  and  C_9
REMARK    4  A    between atoms: C_9  and  C_10
REMARK    5  A    between atoms: C_10  and  P_11
REMARK    6  A    between atoms: C_18  and  C_19
REMARK    7  A    between atoms: C_23  and  C_25
REMARK    8  A    between atoms: C_24  and  C_34
REMARK    9  A    between atoms: C_29  and  C_31
REMARK                            x       y       z     vdW  Elec       q    Type
REMARK                         _______ _______ _______ _____ _____    ______ ____
ROOT
ATOM      1  C   UNL A   1     -25.198   1.104  29.046  0.00  0.00    +0.031 C 
ATOM      2  C   UNL A   1     -25.111   2.368  29.461  0.00  0.00    +0.026 C 
ATOM      3  C   UNL A   1     -24.919   2.682  30.803  0.00  0.00    +0.005 C 
ATOM      4  C   UNL A   1     -24.671   1.579  31.747  0.00  0.00    +0.001 C 
ATOM      5  C   UNL A   1     -25.096  -0.001  29.965  0.00  0.00    +0.027 C 
ATOM      6  C   UNL A   1     -24.788   0.271  31.319  0.00  0.00    +0.004 C 
ENDROOT
BRANCH   1   8
ATOM      7  C   UNL A   1     -26.845   0.604  27.254  0.00  0.00    +0.034 A 
ATOM      8  C   UNL A   1     -25.710   0.713  27.658  0.00  0.00    -0.008 A 
ATOM      9  C   UNL A   1     -24.629   0.668  26.785  0.00  0.00    +0.054 A 
ATOM     10  C   UNL A   1     -24.823   0.442  25.376  0.00  0.00    +0.014 A 
ATOM     11  C   UNL A   1     -26.165   0.303  24.998  0.00  0.00    +0.038 A 
ATOM     12  C   UNL A   1     -27.151   0.337  25.865  0.00  0.00    +0.139 A 
ATOM     13 CL   UNL A   1     -22.958   0.818  27.249  0.00  0.00    -0.083 Cl
BRANCH  12  14
ATOM     14  O   UNL A   1     -28.424   0.155  25.420  0.00  0.00    -0.469 OA
BRANCH  14  15
ATOM     15  C   UNL A   1     -29.211   1.242  25.067  0.00  0.00    +0.278 C 
BRANCH  15  16
ATOM     16  C   UNL A   1     -29.492   1.263  23.713  0.00  0.00    +0.346 C 
ATOM     17  F   UNL A   1     -28.508   2.084  23.145  0.00  0.00    -0.193 F 
ATOM     18  F   UNL A   1     -29.273   0.015  23.171  0.00  0.00    -0.193 F 
BRANCH  16  19
ATOM     19  P   UNL A   1     -30.964   1.796  23.351  0.00  0.00    +0.183 P 
ATOM     20  O   UNL A   1     -30.898   2.921  22.572  0.00  0.00    -0.353 OA
ATOM     21  O   UNL A   1     -31.645   0.694  22.513  0.00  0.00    -0.455 OA
ATOM     22  O   UNL A   1     -31.745   1.965  24.654  0.00  0.00    -0.353 OA
ENDBRANCH  16  19
ENDBRANCH  15  16
ENDBRANCH  14  15
ENDBRANCH  12  14
ENDBRANCH   1   8
BRANCH   5  23
ATOM     23  C   UNL A   1     -25.208  -1.416  29.594  0.00  0.00    -0.022 A 
ATOM     24  C   UNL A   1     -24.134  -2.089  29.221  0.00  0.00    -0.004 A 
ATOM     25  C   UNL A   1     -24.247  -3.491  28.974  0.00  0.00    -0.000 A 
ATOM     26  C   UNL A   1     -25.373  -4.208  29.373  0.00  0.00    +0.005 A 
ATOM     27  C   UNL A   1     -26.496  -3.469  29.816  0.00  0.00    +0.056 A 
ATOM     28  C   UNL A   1     -26.434  -2.112  29.980  0.00  0.00    +0.000 A 
BRANCH  27  29
ATOM     29  C   UNL A   1     -27.749  -4.198  30.145  0.00  0.00    +0.284 C 
ATOM     30  N   UNL A   1     -27.903  -5.247  30.487  0.00  0.00    -0.084 NA
ATOM     31  O   UNL A   1     -28.853  -3.366  30.062  0.00  0.00    -0.267 OA
ENDBRANCH  27  29
ENDBRANCH   5  23
BRANCH   2  32
ATOM     32  C   UNL A   1     -25.312   3.416  28.693  0.00  0.00    -0.026 C 
ATOM     33  C   UNL A   1     -26.546   4.161  28.738  0.00  0.00    -0.005 C 
ENDBRANCH   2  32
BRANCH   6  34
ATOM     34  C   UNL A   1     -24.545  -0.838  32.265  0.00  0.00    +0.000 C 
ATOM     35  C   UNL A   1     -23.279  -1.155  32.685  0.00  0.00    +0.000 C 
ENDBRANCH   6  34
TORSDOF 9
ENDMDL
ENDMDL
