MODEL 175
MODEL 1
REMARK VINA RESULT:    -6.600      0.000      0.000
REMARK INTER + INTRA:          -7.660
REMARK INTER:                  -7.372
REMARK INTRA:                  -0.288
REMARK UNBOUND:                -0.288
REMARK  Name = No_175-gen_results/8p0m/2024-11-27-11-27-31/
REMARK  2 active torsions:
REMARK  status: ('A' for Active; 'I' for Inactive)
REMARK    1  A    between atoms: C_4  and  C_11
REMARK    2  A    between atoms: C_6  and  C_14
REMARK                            x       y       z     vdW  Elec       q    Type
REMARK                         _______ _______ _______ _____ _____    ______ ____
ROOT
ATOM      1  C   UNL A   1     -29.139 -10.258  33.009  0.00  0.00    +0.007 A 
ATOM      2  C   UNL A   1     -29.836  -9.792  32.137  0.00  0.00    +0.000 A 
ATOM      3  C   UNL A   1     -29.809 -10.307  30.846  0.00  0.00    +0.007 A 
ATOM      4  C   UNL A   1     -30.607  -9.816  29.686  0.00  0.00    +0.090 A 
ATOM      5  C   UNL A   1     -30.553 -10.349  28.351  0.00  0.00    +0.064 A 
ATOM      6  C   UNL A   1     -28.111 -11.257  32.678  0.00  0.00    +0.080 A 
ATOM      7  C   UNL A   1     -28.068 -11.866  31.448  0.00  0.00    +0.007 A 
ATOM      8  C   UNL A   1     -28.900 -11.386  30.422  0.00  0.00    +0.001 A 
ATOM      9  C   UNL A   1     -29.705 -11.510  28.245  0.00  0.00    +0.012 A 
ATOM     10  C   UNL A   1     -28.907 -11.968  29.159  0.00  0.00    +0.001 A 
ATOM     11 CL   UNL A   1     -31.529  -9.880  27.069  0.00  0.00    -0.082 Cl
ENDROOT
BRANCH   4  12
ATOM     12  C   UNL A   1     -31.579  -8.701  29.863  0.00  0.00    +0.389 C 
ATOM     13  O   UNL A   1     -31.252  -7.667  29.697  0.00  0.00    -0.240 OA
ATOM     14  O   UNL A   1     -32.802  -9.096  30.229  0.00  0.00    -0.240 OA
ENDBRANCH   4  12
BRANCH   6  15
ATOM     15  C   UNL A   1     -27.212 -11.748  33.786  0.00  0.00    +0.388 C 
ATOM     16  O   UNL A   1     -26.953 -10.917  34.634  0.00  0.00    -0.241 OA
ATOM     17  O   UNL A   1     -26.729 -12.905  33.702  0.00  0.00    -0.241 OA
ENDBRANCH   6  15
TORSDOF 2
ENDMDL
ENDMDL
