REMARK  Name = No_176-gen_results/8p0m/2024-11-27-11-27-31/
REMARK  1 active torsions:
REMARK  status: ('A' for Active; 'I' for Inactive)
REMARK    1  A    between atoms: C_4  and  C_8
REMARK                            x       y       z     vdW  Elec       q    Type
REMARK                         _______ _______ _______ _____ _____    ______ ____
ROOT
ATOM      1  C   UNL A   1     -28.016  -0.814  28.878  0.00  0.00    +0.000 C 
ATOM      2  C   UNL A   1     -28.469  -0.785  29.829  0.00  0.00    +0.000 C 
ATOM      3  C   UNL A   1     -28.182   0.428  28.113  0.00  0.00    +0.004 C 
ATOM      4  C   UNL A   1     -29.352   0.604  27.404  0.00  0.00    +0.022 C 
ATOM      5  C   UNL A   1     -30.485   0.394  28.304  0.00  0.00    +0.004 C 
ATOM      6  C   UNL A   1     -29.964  -1.043  30.173  0.00  0.00    +0.000 C 
ATOM      7  C   UNL A   1     -30.803  -0.651  29.076  0.00  0.00    +0.000 C 
ENDROOT
BRANCH   4   8
ATOM      8  C   UNL A   1     -29.393   0.798  26.087  0.00  0.00    -0.026 C 
ATOM      9  C   UNL A   1     -28.238   0.902  25.328  0.00  0.00    -0.005 C 
ENDBRANCH   4   8
TORSDOF 1
