MODEL 1760
MODEL 1
REMARK VINA RESULT:    -4.365      0.000      0.000
REMARK INTER + INTRA:          -4.365
REMARK INTER:                  -4.365
REMARK INTRA:                   0.000
REMARK UNBOUND:                 0.000
REMARK  Name = No_1760-gen_results/8p0m/2024-11-27-11-27-31/
REMARK  0 active torsions:
REMARK  status: ('A' for Active; 'I' for Inactive)
REMARK                            x       y       z     vdW  Elec       q    Type
REMARK                         _______ _______ _______ _____ _____    ______ ____
ROOT
ATOM      1  C   UNL A   1     -26.365  -3.522  29.962  0.00  0.00    +0.001 A 
ATOM      2  C   UNL A   1     -25.520  -2.670  29.806  0.00  0.00    +0.011 A 
ATOM      3  C   UNL A   1     -24.293  -2.906  29.188  0.00  0.00    +0.058 A 
ATOM      4  C   UNL A   1     -23.967  -4.251  28.755  0.00  0.00    +0.011 A 
ATOM      5  C   UNL A   1     -24.996  -5.193  28.979  0.00  0.00    +0.001 A 
ATOM      6  C   UNL A   1     -26.118  -4.878  29.575  0.00  0.00    +0.000 A 
ATOM      7 CL   UNL A   1     -23.064  -1.736  28.938  0.00  0.00    -0.082 Cl
ENDROOT
TORSDOF 0
ENDMDL
ENDMDL
