MODEL 1761
MODEL 1
REMARK VINA RESULT:    -7.214      0.000      0.000
REMARK INTER + INTRA:          -9.965
REMARK INTER:                  -8.900
REMARK INTRA:                  -1.065
REMARK UNBOUND:                -1.065
REMARK  Name = No_1761-gen_results/8p0m/2024-11-27-11-27-31/
REMARK  4 active torsions:
REMARK  status: ('A' for Active; 'I' for Inactive)
REMARK    1  A    between atoms: C_1  and  C_2
REMARK    2  A    between atoms: C_1  and  C_3
REMARK    3  A    between atoms: C_3  and  C_4
REMARK    4  A    between atoms: C_3  and  C_16
REMARK                            x       y       z     vdW  Elec       q    Type
REMARK                         _______ _______ _______ _____ _____    ______ ____
ROOT
ATOM      1  C   UNL A   1     -24.043  -0.678  29.753  0.00  0.00    +0.217 C 
ATOM      2  F   UNL A   1     -23.327  -1.490  30.507  0.00  0.00    -0.229 F 
ENDROOT
BRANCH   1   3
ATOM      3  C   UNL A   1     -23.142   0.040  28.977  0.00  0.00    +0.013 A 
ATOM      4  C   UNL A   1     -23.560   1.152  28.194  0.00  0.00    -0.002 A 
ATOM      5  C   UNL A   1     -22.600   1.890  27.404  0.00  0.00    -0.000 A 
ATOM      6  C   UNL A   1     -21.261   1.560  27.496  0.00  0.00    -0.000 A 
ATOM      7  C   UNL A   1     -20.807   0.480  28.203  0.00  0.00    -0.000 A 
ATOM      8  C   UNL A   1     -21.732  -0.248  28.961  0.00  0.00    -0.002 A 
ENDBRANCH   1   3
BRANCH   1   9
ATOM      9  C   UNL A   1     -24.798   0.318  30.719  0.00  0.00    +0.352 C 
ATOM     10  F   UNL A   1     -24.177   0.809  31.548  0.00  0.00    -0.195 F 
ATOM     11  F   UNL A   1     -25.980   0.549  30.526  0.00  0.00    -0.195 F 
ENDBRANCH   1   9
BRANCH   1  12
ATOM     12  C   UNL A   1     -25.049  -1.449  29.013  0.00  0.00    +0.069 C 
BRANCH  12  13
ATOM     13  C   UNL A   1     -25.002  -2.486  29.197  0.00  0.00    -0.019 A 
ATOM     14  C   UNL A   1     -26.076  -3.255  29.714  0.00  0.00    -0.004 A 
ATOM     15  C   UNL A   1     -26.112  -4.599  29.708  0.00  0.00    -0.000 A 
ATOM     16  C   UNL A   1     -23.959  -3.436  28.527  0.00  0.00    -0.004 A 
ATOM     17  C   UNL A   1     -24.058  -4.815  28.499  0.00  0.00    -0.000 A 
ATOM     18  C   UNL A   1     -25.100  -5.414  29.108  0.00  0.00    -0.000 A 
ENDBRANCH  12  13
ENDBRANCH   1  12
TORSDOF 4
ENDMDL
ENDMDL
