MODEL 1763
MODEL 1
REMARK VINA RESULT:    -7.897      0.000      0.000
REMARK INTER + INTRA:         -14.135
REMARK INTER:                 -11.590
REMARK INTRA:                  -2.546
REMARK UNBOUND:                -2.546
REMARK  Name = No_1763-gen_results/8p0m/2024-11-27-11-27-31/
REMARK  8 active torsions:
REMARK  status: ('A' for Active; 'I' for Inactive)
REMARK    1  A    between atoms: C_2  and  C_7
REMARK    2  A    between atoms: C_4  and  C_16
REMARK    3  A    between atoms: C_5  and  C_22
REMARK    4  A    between atoms: C_11  and  C_13
REMARK    5  A    between atoms: C_18  and  C_25
REMARK    6  A    between atoms: C_25  and  C_26
REMARK    7  A    between atoms: C_26  and  C_27
REMARK    8  A    between atoms: C_26  and  C_33
REMARK                            x       y       z     vdW  Elec       q    Type
REMARK                         _______ _______ _______ _____ _____    ______ ____
ROOT
ATOM      1  C   UNL A   1     -29.916 -10.248  10.079  0.00  0.00    +0.007 A 
ATOM      2  C   UNL A   1     -30.972 -10.209  10.666  0.00  0.00    +0.000 A 
ATOM      3  C   UNL A   1     -31.700  -9.078  10.844  0.00  0.00    +0.000 A 
ATOM      4  C   UNL A   1     -31.202  -7.872  10.316  0.00  0.00    +0.000 A 
ATOM      5  C   UNL A   1     -29.394  -9.072   9.430  0.00  0.00    +0.080 A 
ATOM      6  C   UNL A   1     -30.073  -7.903   9.604  0.00  0.00    +0.007 A 
ENDROOT
BRANCH   2   7
ATOM      7  C   UNL A   1     -31.615 -11.446  11.272  0.00  0.00    +0.000 A 
ATOM      8  C   UNL A   1     -31.804 -12.576  10.473  0.00  0.00    +0.000 A 
ATOM      9  C   UNL A   1     -30.961 -11.959  12.581  0.00  0.00    +0.000 A 
ATOM     10  C   UNL A   1     -30.137 -13.019  12.693  0.00  0.00    +0.008 A 
ATOM     11  C   UNL A   1     -30.479 -14.151  11.831  0.00  0.00    +0.098 A 
ATOM     12  C   UNL A   1     -31.121 -13.813  10.623  0.00  0.00    +0.008 A 
BRANCH  11  13
ATOM     13  C   UNL A   1     -29.609 -15.330  11.966  0.00  0.00    +0.477 C 
ATOM     14  N   UNL A   1     -29.304 -15.975  10.850  0.00  0.00    +0.205 NA
ATOM     15  N   UNL A   1     -29.092 -15.597  13.171  0.00  0.00    +0.205 NA
ENDBRANCH  11  13
ENDBRANCH   2   7
BRANCH   4  16
ATOM     16  C   UNL A   1     -31.988  -6.593  10.548  0.00  0.00    -0.000 A 
ATOM     17  C   UNL A   1     -31.871  -5.547  10.710  0.00  0.00    -0.002 A 
ATOM     18  C   UNL A   1     -32.763  -4.466  11.062  0.00  0.00    +0.011 A 
ATOM     19  C   UNL A   1     -34.096  -4.817  11.116  0.00  0.00    -0.002 A 
ATOM     20  C   UNL A   1     -34.430  -6.132  10.985  0.00  0.00    -0.000 A 
ATOM     21  C   UNL A   1     -33.515  -7.120  10.794  0.00  0.00    -0.000 A 
BRANCH  18  22
ATOM     22  C   UNL A   1     -32.301  -3.068  11.201  0.00  0.00    +0.191 C 
ATOM     23  F   UNL A   1     -32.031  -2.758  12.419  0.00  0.00    -0.232 F 
BRANCH  22  24
ATOM     24  C   UNL A   1     -32.240  -2.307  10.195  0.00  0.00    +0.075 C 
BRANCH  24  25
ATOM     25  C   UNL A   1     -31.155  -2.088   9.441  0.00  0.00    -0.013 C 
ATOM     26  C   UNL A   1     -30.554  -2.816   8.694  0.00  0.00    +0.091 C 
ATOM     27  N   UNL A   1     -29.500  -2.298   7.816  0.00  0.00    -0.247 NA
ATOM     28  C   UNL A   1     -29.680  -0.967   8.036  0.00  0.00    +0.077 C 
ATOM     29  C   UNL A   1     -30.709  -0.696   8.919  0.00  0.00    +0.071 C 
ENDBRANCH  24  25
BRANCH  24  30
ATOM     30  C   UNL A   1     -33.575  -1.632   9.732  0.00  0.00    -0.037 C 
ATOM     31  C   UNL A   1     -34.473  -1.537   8.981  0.00  0.00    -0.009 C 
ATOM     32  C   UNL A   1     -33.965  -0.556  10.937  0.00  0.00    +0.027 C 
ENDBRANCH  24  30
ENDBRANCH  22  24
ENDBRANCH  18  22
ENDBRANCH   4  16
BRANCH   5  33
ATOM     33  C   UNL A   1     -28.127  -9.142   8.713  0.00  0.00    +0.388 C 
ATOM     34  O   UNL A   1     -27.190  -9.558   9.299  0.00  0.00    -0.241 OA
ATOM     35  O   UNL A   1     -28.015  -8.462   7.609  0.00  0.00    -0.241 OA
ENDBRANCH   5  33
TORSDOF 8
ENDMDL
ENDMDL
