REMARK  Name = No_1764-gen_results/8p0m/2024-11-27-11-27-31/
REMARK  3 active torsions:
REMARK  status: ('A' for Active; 'I' for Inactive)
REMARK    1  A    between atoms: C_5  and  C_12
REMARK    2  A    between atoms: C_7  and  C_20
REMARK    3  A    between atoms: C_21  and  C_22
REMARK                            x       y       z     vdW  Elec       q    Type
REMARK                         _______ _______ _______ _____ _____    ______ ____
ROOT
ATOM      1  C   UNL A   1     -28.016  -0.814  28.878  0.00  0.00    +0.120 C 
ATOM      2  C   UNL A   1     -27.064  -0.119  28.608  0.00  0.00    -0.006 A 
ATOM      3  C   UNL A   1     -25.792  -0.430  29.076  0.00  0.00    -0.023 A 
ATOM      4  C   UNL A   1     -24.546   0.349  28.823  0.00  0.00    +0.000 A 
ATOM      5  C   UNL A   1     -24.659   1.420  27.888  0.00  0.00    +0.056 A 
ATOM      6  C   UNL A   1     -25.947   1.681  27.379  0.00  0.00    +0.004 A 
ATOM      7  C   UNL A   1     -27.044   0.974  27.687  0.00  0.00    -0.003 A 
ATOM      8  N   UNL A   1     -28.664  -0.527  30.102  0.00  0.00    -0.277 N 
ATOM      9  C   UNL A   1     -29.665  -0.396  30.441  0.00  0.00    +0.226 C 
ATOM     10  O   UNL A   1     -30.580  -0.489  29.600  0.00  0.00    -0.275 OA
ATOM     11  C   UNL A   1     -30.064  -0.001  31.910  0.00  0.00    +0.085 C 
ATOM     12  C   UNL A   1     -29.540   0.891  32.495  0.00  0.00    +0.010 C 
ATOM     13  C   UNL A   1     -28.186   0.624  32.827  0.00  0.00    +0.002 C 
ATOM     14  C   UNL A   1     -27.150   0.400  31.742  0.00  0.00    +0.020 C 
ATOM     15  C   UNL A   1     -27.351  -0.156  30.923  0.00  0.00    +0.080 C 
ATOM     16  C   UNL A   1     -26.028  -0.554  30.214  0.00  0.00    +0.046 C 
ENDROOT
BRANCH   5  17
ATOM     17  C   UNL A   1     -23.454   2.169  27.597  0.00  0.00    +0.284 C 
ATOM     18  N   UNL A   1     -22.255   1.756  28.073  0.00  0.00    -0.084 NA
ATOM     19  O   UNL A   1     -23.503   3.026  26.674  0.00  0.00    -0.267 OA
ENDBRANCH   5  17
BRANCH   7  20
ATOM     20  C   UNL A   1     -28.304   1.381  27.055  0.00  0.00    -0.000 C 
ATOM     21  C   UNL A   1     -28.816   1.372  26.161  0.00  0.00    -0.000 C 
BRANCH  21  22
ATOM     22  C   UNL A   1     -27.998   0.990  24.917  0.00  0.00    -0.000 C 
ATOM     23  C   UNL A   1     -28.591   0.762  23.654  0.00  0.00    -0.000 C 
ENDBRANCH  21  22
ENDBRANCH   7  20
TORSDOF 3
