MODEL 1764
MODEL 1
REMARK VINA RESULT:    -6.955      0.000      0.000
REMARK INTER + INTRA:          -8.886
REMARK INTER:                  -8.174
REMARK INTRA:                  -0.712
REMARK UNBOUND:                -0.712
REMARK  Name = No_1764-gen_results/8p0m/2024-11-27-11-27-31/
REMARK  3 active torsions:
REMARK  status: ('A' for Active; 'I' for Inactive)
REMARK    1  A    between atoms: C_5  and  C_12
REMARK    2  A    between atoms: C_7  and  C_20
REMARK    3  A    between atoms: C_21  and  C_22
REMARK                            x       y       z     vdW  Elec       q    Type
REMARK                         _______ _______ _______ _____ _____    ______ ____
ROOT
ATOM      1  C   UNL A   1     -22.640  -0.551  30.713  0.00  0.00    +0.120 C 
ATOM      2  C   UNL A   1     -23.229  -0.256  29.699  0.00  0.00    -0.006 A 
ATOM      3  C   UNL A   1     -23.276   1.060  29.253  0.00  0.00    -0.023 A 
ATOM      4  C   UNL A   1     -23.975   1.551  28.030  0.00  0.00    +0.000 A 
ATOM      5  C   UNL A   1     -24.508   0.546  27.170  0.00  0.00    +0.056 A 
ATOM      6  C   UNL A   1     -24.396  -0.788  27.612  0.00  0.00    +0.004 A 
ATOM      7  C   UNL A   1     -23.800  -1.163  28.753  0.00  0.00    -0.003 A 
ATOM      8  N   UNL A   1     -23.377  -0.429  31.914  0.00  0.00    -0.277 N 
ATOM      9  C   UNL A   1     -23.551  -1.018  32.784  0.00  0.00    +0.226 C 
ATOM     10  O   UNL A   1     -23.011  -2.140  32.843  0.00  0.00    -0.275 OA
ATOM     11  C   UNL A   1     -24.515  -0.612  33.957  0.00  0.00    +0.085 C 
ATOM     12  C   UNL A   1     -25.618  -0.212  33.767  0.00  0.00    +0.010 C 
ATOM     13  C   UNL A   1     -25.652   1.071  33.160  0.00  0.00    +0.002 C 
ATOM     14  C   UNL A   1     -25.069   1.291  31.777  0.00  0.00    +0.020 C 
ATOM     15  C   UNL A   1     -24.192   0.874  31.498  0.00  0.00    +0.080 C 
ATOM     16  C   UNL A   1     -23.647   1.584  30.230  0.00  0.00    +0.046 C 
ENDROOT
BRANCH   5  17
ATOM     17  C   UNL A   1     -25.159   0.996  25.957  0.00  0.00    +0.284 C 
ATOM     18  N   UNL A   1     -25.220   0.191  24.869  0.00  0.00    -0.084 NA
ATOM     19  O   UNL A   1     -25.903   2.010  26.031  0.00  0.00    -0.267 OA
ENDBRANCH   5  17
BRANCH   7  20
ATOM     20  C   UNL A   1     -23.767  -2.599  29.052  0.00  0.00    -0.000 C 
ATOM     21  C   UNL A   1     -24.350  -3.386  29.372  0.00  0.00    -0.000 C 
BRANCH  21  22
ATOM     22  C   UNL A   1     -25.720  -3.016  29.963  0.00  0.00    -0.000 C 
ATOM     23  C   UNL A   1     -26.831  -3.888  29.917  0.00  0.00    -0.000 C 
ENDBRANCH  21  22
ENDBRANCH   7  20
TORSDOF 3
ENDMDL
ENDMDL
