MODEL 1765
MODEL 1
REMARK VINA RESULT:    -6.674      0.000      0.000
REMARK INTER + INTRA:         -12.714
REMARK INTER:                  -9.406
REMARK INTRA:                  -3.308
REMARK UNBOUND:                -3.308
REMARK  Name = No_1765-gen_results/8p0m/2024-11-27-11-27-31/
REMARK  7 active torsions:
REMARK  status: ('A' for Active; 'I' for Inactive)
REMARK    1  A    between atoms: N_1  and  C_3
REMARK    2  A    between atoms: C_2  and  C_9
REMARK    3  A    between atoms: C_6  and  C_11
REMARK    4  A    between atoms: C_8  and  C_16
REMARK    5  A    between atoms: C_16  and  C_17
REMARK    6  A    between atoms: C_18  and  C_19
REMARK    7  A    between atoms: C_19  and  C_20
REMARK                            x       y       z     vdW  Elec       q    Type
REMARK                         _______ _______ _______ _____ _____    ______ ____
ROOT
ATOM      1  C   UNL A   1     -28.358   0.841  27.187  0.00  0.00    +0.074 A 
ATOM      2  C   UNL A   1     -28.036   2.041  27.356  0.00  0.00    +0.017 A 
ATOM      3  C   UNL A   1     -27.249   2.545  28.502  0.00  0.00    +0.008 A 
ATOM      4  C   UNL A   1     -26.781   1.592  29.424  0.00  0.00    +0.076 A 
ATOM      5  C   UNL A   1     -27.615   0.083  28.307  0.00  0.00    +0.013 A 
ATOM      6  C   UNL A   1     -26.963   0.331  29.276  0.00  0.00    -0.010 A 
ENDROOT
BRANCH   1   7
ATOM      7  N   UNL A   1     -29.017   0.237  26.155  0.00  0.00    -0.170 NA
ATOM      8  C   UNL A   1     -28.545   0.353  25.170  0.00  0.00    +0.349 C 
ATOM      9  O   UNL A   1     -27.641   1.091  24.569  0.00  0.00    -0.261 OA
BRANCH   8  10
ATOM     10  C   UNL A   1     -29.209  -0.437  24.051  0.00  0.00    +0.442 C 
ATOM     11  O   UNL A   1     -28.645  -1.500  23.676  0.00  0.00    -0.235 OA
ATOM     12  O   UNL A   1     -30.294  -0.080  23.597  0.00  0.00    -0.235 OA
ENDBRANCH   8  10
ENDBRANCH   1   7
BRANCH   4  13
ATOM     13  C   UNL A   1     -25.987   2.258  30.558  0.00  0.00    +0.388 C 
ATOM     14  O   UNL A   1     -24.849   2.610  30.525  0.00  0.00    -0.241 OA
ATOM     15  O   UNL A   1     -26.725   2.575  31.691  0.00  0.00    -0.241 OA
ENDBRANCH   4  13
BRANCH   6  16
ATOM     16  C   UNL A   1     -26.469  -0.609  30.291  0.00  0.00    +0.053 C 
BRANCH  16  17
ATOM     17  C   UNL A   1     -25.829  -1.805  29.869  0.00  0.00    -0.021 A 
ATOM     18  C   UNL A   1     -24.537  -1.809  29.314  0.00  0.00    -0.021 A 
ATOM     19  C   UNL A   1     -26.566  -2.997  29.973  0.00  0.00    -0.004 A 
ATOM     20  C   UNL A   1     -25.897  -4.265  29.580  0.00  0.00    -0.000 A 
ATOM     21  C   UNL A   1     -24.645  -4.240  28.955  0.00  0.00    -0.000 A 
ATOM     22  C   UNL A   1     -23.974  -3.042  28.819  0.00  0.00    -0.004 A 
BRANCH  18  23
ATOM     23  C   UNL A   1     -23.842  -0.565  29.121  0.00  0.00    +0.052 C 
BRANCH  23  24
ATOM     24  C   UNL A   1     -23.459  -0.116  27.979  0.00  0.00    -0.018 A 
ATOM     25  C   UNL A   1     -24.304  -0.104  26.878  0.00  0.00    -0.004 A 
ATOM     26  C   UNL A   1     -24.686   1.115  26.404  0.00  0.00    -0.005 A 
ATOM     27  C   UNL A   1     -23.958   2.161  26.675  0.00  0.00    -0.022 A 
ATOM     28  C   UNL A   1     -22.840   2.108  27.559  0.00  0.00    -0.005 A 
ATOM     29  C   UNL A   1     -22.735   0.945  28.326  0.00  0.00    -0.004 A 
ATOM     30  C   UNL A   1     -24.175   3.468  25.932  0.00  0.00    +0.031 C 
ENDBRANCH  23  24
ENDBRANCH  18  23
ENDBRANCH  16  17
ENDBRANCH   6  16
TORSDOF 7
ENDMDL
ENDMDL
