REMARK  Name = outputs/IAG933/test6/raw/output_1765_IAG933_linker_design_.xyz
REMARK  11 active torsions:
REMARK  status: ('A' for Active; 'I' for Inactive)
REMARK    1  A    between atoms: C_1  and  C_2
REMARK    2  A    between atoms: C_1  and  C_8
REMARK    3  A    between atoms: C_1  and  N_36
REMARK    4  A    between atoms: C_13  and  C_33
REMARK    5  A    between atoms: C_14  and  C_15
REMARK    6  A    between atoms: C_21  and  O_22
REMARK    7  A    between atoms: O_22  and  C_23
REMARK    8  A    between atoms: C_23  and  C_24
REMARK    9  A    between atoms: C_30  and  C_32
REMARK   10  A    between atoms: O_38  and  O_39
REMARK   11  A    between atoms: O_38  and  C_40
REMARK                            x       y       z     vdW  Elec       q    Type
REMARK                         _______ _______ _______ _____ _____    ______ ____
ROOT
ATOM      1  C   UNL A   1     -23.006   0.227  29.427  0.00  0.00    +0.119 C 
ATOM      2  C   UNL A   1     -23.124   1.319  27.272  0.00  0.00    +0.038 C 
ATOM      3  C   UNL A   1     -25.198   0.341  28.328  0.00  0.00    +0.118 C 
ATOM      4  C   UNL A   1     -24.716   1.210  27.242  0.00  0.00    +0.026 C 
ATOM      5  C   UNL A   1     -22.738   0.911  28.172  0.00  0.00    +0.036 C 
ATOM      6  O   UNL A   1     -20.654   1.414  27.606  0.00  0.00    -0.183 OA
ATOM      7  N   UNL A   1     -24.456  -0.044  29.238  0.00  0.00    -0.292 N 
ATOM      8  C   UNL A   1     -21.972   1.410  27.310  0.00  0.00    +0.288 C 
ENDROOT
BRANCH   4   9
ATOM      9  C   UNL A   1     -25.688   1.614  26.461  0.00  0.00    +0.040 C 
ATOM     10  C   UNL A   1     -26.250   2.920  26.395  0.00  0.00    +0.077 C 
ATOM     11  C   UNL A   1     -27.438   3.091  25.645  0.00  0.00    +0.107 C 
ATOM     12  N   UNL A   1     -28.075   2.089  25.003  0.00  0.00    -0.208 NA
ATOM     13  C   UNL A   1     -27.543   0.849  25.079  0.00  0.00    +0.253 C 
ATOM     14  C   UNL A   1     -26.354   0.576  25.777  0.00  0.00    +0.193 C 
ATOM     15  F   UNL A   1     -25.860  -0.681  25.795  0.00  0.00    -0.199 F 
BRANCH  10  16
ATOM     16  C   UNL A   1     -25.642   4.093  27.123  0.00  0.00    +0.266 C 
ATOM     17  N   UNL A   1     -25.614   5.252  26.449  0.00  0.00    -0.200 NA
ATOM     18  C   UNL A   1     -25.026   6.479  26.963  0.00  0.00    +0.139 C 
ATOM     19  O   UNL A   1     -25.143   3.966  28.243  0.00  0.00    -0.268 OA
ENDBRANCH  10  16
BRANCH  13  20
ATOM     20  O   UNL A   1     -28.193  -0.208  24.477  0.00  0.00    -0.456 OA
BRANCH  20  21
ATOM     21  C   UNL A   1     -29.460   0.005  23.866  0.00  0.00    +0.243 C 
BRANCH  21  22
ATOM     22  C   UNL A   1     -30.065  -1.377  23.573  0.00  0.00    +0.229 C 
ATOM     23  O   UNL A   1     -30.729  -1.878  24.721  0.00  0.00    -0.216 OA
ENDBRANCH  21  22
ENDBRANCH  20  21
ENDBRANCH  13  20
ENDBRANCH   4   9
BRANCH   3  24
ATOM     24  C   UNL A   1     -26.530  -0.051  28.403  0.00  0.00    +0.115 C 
ATOM     25  N   UNL A   1     -27.460  -0.665  28.473  0.00  0.00    -0.190 NA
ENDBRANCH   3  24
BRANCH   7  26
ATOM     26  C   UNL A   1     -24.855  -1.012  30.143  0.00  0.00    +0.112 C 
BRANCH  26  27
ATOM     27  C   UNL A   1     -24.973  -2.505  29.788  0.00  0.00    -0.003 C 
ATOM     28  C   UNL A   1     -23.906  -3.173  29.146  0.00  0.00    -0.003 C 
ATOM     29  C   UNL A   1     -23.989  -4.549  28.853  0.00  0.00    -0.000 C 
ATOM     30  C   UNL A   1     -25.137  -5.280  29.205  0.00  0.00    -0.000 C 
ATOM     31  C   UNL A   1     -26.232  -4.611  29.784  0.00  0.00    -0.000 C 
ATOM     32  C   UNL A   1     -26.155  -3.232  30.065  0.00  0.00    -0.003 C 
ENDBRANCH  26  27
BRANCH  26  33
ATOM     33  C   UNL A   1     -25.387  -0.679  31.571  0.00  0.00    +0.095 C 
ATOM     34  C   UNL A   1     -25.189   0.773  32.028  0.00  0.00    +0.021 C 
ATOM     35  C   UNL A   1     -25.336   0.684  33.544  0.00  0.00    +0.020 C 
ATOM     36  C   UNL A   1     -24.829  -0.715  33.905  0.00  0.00    +0.089 C 
ATOM     37  N   UNL A   1     -24.758  -1.481  32.646  0.00  0.00    -0.217 NA
ENDBRANCH  26  33
ENDBRANCH   7  26
BRANCH   8  38
ATOM     38  O   UNL A   1     -21.378   2.308  25.831  0.00  0.00    -0.155 OA
BRANCH  38  40
ATOM     39  O   UNL A   1     -23.685   2.550  25.064  0.00  0.00    -0.002 OA
ATOM     40  O   UNL A   1     -22.384   2.493  25.065  0.00  0.00    -0.029 OA
ENDBRANCH  38  40
ENDBRANCH   8  38
TORSDOF 11
