REMARK  Name = outputs/IAG933/test6/raw/output_1766_IAG933_linker_design_.xyz
REMARK  17 active torsions:
REMARK  status: ('A' for Active; 'I' for Inactive)
REMARK    1  A    between atoms: C_1  and  C_2
REMARK    2  A    between atoms: C_1  and  C_8
REMARK    3  A    between atoms: C_1  and  C_30
REMARK    4  A    between atoms: C_13  and  C_39
REMARK    5  A    between atoms: C_14  and  C_15
REMARK    6  A    between atoms: C_21  and  O_22
REMARK    7  A    between atoms: O_22  and  C_23
REMARK    8  A    between atoms: C_23  and  C_24
REMARK    9  A    between atoms: C_29  and  C_30
REMARK   10  A    between atoms: C_30  and  C_40
REMARK   11  A    between atoms: C_31  and  C_34
REMARK   12  A    between atoms: C_31  and  C_36
REMARK   13  A    between atoms: O_32  and  C_33
REMARK   14  A    between atoms: O_32  and  C_34
REMARK   15  A    between atoms: C_33  and  N_41
REMARK   16  A    between atoms: C_36  and  C_39
REMARK   17  A    between atoms: C_39  and  C_40
REMARK                            x       y       z     vdW  Elec       q    Type
REMARK                         _______ _______ _______ _____ _____    ______ ____
ROOT
ATOM      1  C   UNL A   1     -24.655   1.546  27.556  0.00  0.00    +0.008 C 
ENDROOT
BRANCH   1   2
ATOM      2  C   UNL A   1     -25.688   1.614  26.461  0.00  0.00    +0.070 C 
ATOM      3  C   UNL A   1     -26.250   2.920  26.395  0.00  0.00    +0.055 C 
ATOM      4  C   UNL A   1     -27.438   3.091  25.645  0.00  0.00    +0.102 C 
ATOM      5  N   UNL A   1     -28.075   2.089  25.003  0.00  0.00    -0.212 NA
ATOM      6  C   UNL A   1     -27.543   0.849  25.079  0.00  0.00    +0.234 C 
ATOM      7  C   UNL A   1     -26.354   0.576  25.777  0.00  0.00    +0.240 C 
ATOM      8  F   UNL A   1     -25.860  -0.681  25.795  0.00  0.00    -0.227 F 
BRANCH   3   9
ATOM      9  C   UNL A   1     -25.642   4.093  27.123  0.00  0.00    +0.262 C 
ATOM     10  N   UNL A   1     -25.614   5.252  26.449  0.00  0.00    -0.200 NA
ATOM     11  C   UNL A   1     -25.026   6.479  26.963  0.00  0.00    +0.139 C 
ATOM     12  O   UNL A   1     -25.143   3.966  28.243  0.00  0.00    -0.269 OA
ENDBRANCH   3   9
BRANCH   6  13
ATOM     13  O   UNL A   1     -28.193  -0.208  24.477  0.00  0.00    -0.459 OA
BRANCH  13  14
ATOM     14  C   UNL A   1     -29.460   0.005  23.866  0.00  0.00    +0.242 C 
BRANCH  14  15
ATOM     15  C   UNL A   1     -30.065  -1.377  23.573  0.00  0.00    +0.229 C 
ATOM     16  O   UNL A   1     -30.729  -1.878  24.721  0.00  0.00    -0.216 OA
ENDBRANCH  14  15
ENDBRANCH  13  14
ENDBRANCH   6  13
ENDBRANCH   1   2
BRANCH   1  17
ATOM     17  C   UNL A   1     -24.280   0.437  28.338  0.00  0.00    +0.012 C 
BRANCH  17  18
ATOM     18  C   UNL A   1     -25.541  -0.100  29.165  0.00  0.00    +0.109 C 
BRANCH  18  20
ATOM     19  O   UNL A   1     -27.735  -0.597  29.689  0.00  0.00    -0.246 OA
ATOM     20  C   UNL A   1     -27.040  -0.448  28.721  0.00  0.00    +0.365 C 
ATOM     21  O   UNL A   1     -27.549  -0.739  27.623  0.00  0.00    -0.246 OA
ENDBRANCH  18  20
BRANCH  18  22
ATOM     22  C   UNL A   1     -24.855  -1.012  30.143  0.00  0.00    +0.049 C 
BRANCH  22  23
ATOM     23  C   UNL A   1     -24.973  -2.505  29.788  0.00  0.00    -0.021 C 
ATOM     24  C   UNL A   1     -23.906  -3.173  29.146  0.00  0.00    -0.004 C 
ATOM     25  C   UNL A   1     -23.989  -4.549  28.853  0.00  0.00    -0.000 C 
ATOM     26  C   UNL A   1     -25.137  -5.280  29.205  0.00  0.00    -0.000 C 
ATOM     27  C   UNL A   1     -26.232  -4.611  29.784  0.00  0.00    -0.000 C 
ATOM     28  C   UNL A   1     -26.155  -3.232  30.065  0.00  0.00    -0.004 C 
ENDBRANCH  22  23
BRANCH  22  29
ATOM     29  C   UNL A   1     -25.387  -0.679  31.571  0.00  0.00    +0.077 C 
ATOM     30  C   UNL A   1     -25.189   0.773  32.028  0.00  0.00    +0.019 C 
ATOM     31  C   UNL A   1     -25.336   0.684  33.544  0.00  0.00    +0.020 C 
ATOM     32  C   UNL A   1     -24.829  -0.715  33.905  0.00  0.00    +0.089 C 
ATOM     33  N   UNL A   1     -24.758  -1.481  32.646  0.00  0.00    -0.219 NA
ENDBRANCH  22  29
ENDBRANCH  18  22
ENDBRANCH  17  18
ENDBRANCH   1  17
BRANCH   1  34
ATOM     34  C   UNL A   1     -23.447   2.199  27.129  0.00  0.00    +0.003 C 
BRANCH  34  35
ATOM     35  C   UNL A   1     -22.494   1.726  26.645  0.00  0.00    +0.030 C 
ATOM     36  C   UNL A   1     -22.942   1.933  25.220  0.00  0.00    +0.003 C 
BRANCH  35  37
ATOM     37  C   UNL A   1     -21.199   1.122  27.149  0.00  0.00    +0.144 C 
BRANCH  37  38
ATOM     38  O   UNL A   1     -20.766   0.272  28.244  0.00  0.00    -0.335 OA
BRANCH  38  39
ATOM     39  C   UNL A   1     -21.724  -0.342  29.051  0.00  0.00    +0.254 C 
BRANCH  39  41
ATOM     40  N   UNL A   1     -22.953   0.062  28.917  0.00  0.00    -0.018 NA
ATOM     41  N   UNL A   1     -22.265  -0.674  29.718  0.00  0.00    -0.079 NA
ENDBRANCH  39  41
ENDBRANCH  38  39
ENDBRANCH  37  38
ENDBRANCH  35  37
ENDBRANCH  34  35
ENDBRANCH   1  34
TORSDOF 17
