MODEL 1767
MODEL 1
REMARK VINA RESULT:    -5.428      0.000      0.000
REMARK INTER + INTRA:          -6.345
REMARK INTER:                  -6.062
REMARK INTRA:                  -0.282
REMARK UNBOUND:                -0.282
REMARK  Name = No_1767-gen_results/8p0m/2024-11-27-11-27-31/
REMARK  2 active torsions:
REMARK  status: ('A' for Active; 'I' for Inactive)
REMARK    1  A    between atoms: C_2  and  C_10
REMARK    2  A    between atoms: C_3  and  C_4
REMARK                            x       y       z     vdW  Elec       q    Type
REMARK                         _______ _______ _______ _____ _____    ______ ____
ROOT
ATOM      1  F   UNL A   1     -26.618  -4.481  29.751  0.00  0.00    -0.203 F 
ATOM      2  C   UNL A   1     -25.693  -4.011  29.267  0.00  0.00    +0.184 C 
ATOM      3  C   UNL A   1     -25.150  -2.972  29.896  0.00  0.00    +0.031 C 
ENDROOT
BRANCH   3   4
ATOM      4  C   UNL A   1     -24.314  -2.001  29.262  0.00  0.00    +0.002 A 
ATOM      5  C   UNL A   1     -23.082  -1.446  29.732  0.00  0.00    +0.000 A 
ATOM      6  C   UNL A   1     -22.337  -0.476  29.032  0.00  0.00    +0.000 A 
ATOM      7  C   UNL A   1     -22.979   0.262  28.052  0.00  0.00    +0.000 A 
ATOM      8  C   UNL A   1     -24.290  -0.082  27.648  0.00  0.00    +0.000 A 
ATOM      9  C   UNL A   1     -24.921  -1.131  28.325  0.00  0.00    +0.000 A 
ENDBRANCH   3   4
BRANCH   2  10
ATOM     10  C   UNL A   1     -24.559  -4.929  28.772  0.00  0.00    +0.368 C 
ATOM     11  F   UNL A   1     -23.723  -4.717  28.108  0.00  0.00    -0.191 F 
ATOM     12  F   UNL A   1     -24.640  -6.062  29.489  0.00  0.00    -0.191 F 
ENDBRANCH   2  10
TORSDOF 2
ENDMDL
ENDMDL
