MODEL 1768
MODEL 1
REMARK VINA RESULT:    -7.635      0.000      0.000
REMARK INTER + INTRA:         -11.019
REMARK INTER:                  -9.420
REMARK INTRA:                  -1.599
REMARK UNBOUND:                -1.599
REMARK  Name = No_1768-gen_results/8p0m/2024-11-27-11-27-31/
REMARK  4 active torsions:
REMARK  status: ('A' for Active; 'I' for Inactive)
REMARK    1  A    between atoms: C_1  and  C_2
REMARK    2  A    between atoms: C_1  and  N_8
REMARK    3  A    between atoms: C_5  and  C_10
REMARK    4  A    between atoms: C_18  and  C_21
REMARK                            x       y       z     vdW  Elec       q    Type
REMARK                         _______ _______ _______ _____ _____    ______ ____
ROOT
ATOM      1  N   UNL A   1     -25.544   1.924  27.559  0.00  0.00    -0.271 N 
ATOM      2  C   UNL A   1     -24.616   2.456  26.738  0.00  0.00    +0.231 C 
ATOM      3  C   UNL A   1     -23.413   2.365  26.874  0.00  0.00    +0.111 C 
ATOM      4  C   UNL A   1     -22.952   1.242  27.493  0.00  0.00    -0.015 A 
ATOM      5  C   UNL A   1     -21.577   1.102  27.924  0.00  0.00    -0.004 A 
ATOM      6  C   UNL A   1     -21.137  -0.040  28.694  0.00  0.00    -0.000 A 
ATOM      7  C   UNL A   1     -22.098  -1.043  29.026  0.00  0.00    -0.000 A 
ATOM      8  C   UNL A   1     -23.432  -0.869  28.642  0.00  0.00    -0.003 A 
ATOM      9  C   UNL A   1     -23.815   0.238  27.972  0.00  0.00    -0.006 A 
ATOM     10  C   UNL A   1     -25.541   0.521  27.489  0.00  0.00    +0.120 C 
ATOM     11  O   UNL A   1     -25.083   3.236  25.768  0.00  0.00    -0.275 OA
ENDROOT
BRANCH   8  12
ATOM     12  C   UNL A   1     -24.400  -1.944  29.099  0.00  0.00    -0.000 A 
ATOM     13  C   UNL A   1     -25.315  -1.811  29.631  0.00  0.00    -0.000 A 
ATOM     14  C   UNL A   1     -23.957  -3.346  28.669  0.00  0.00    -0.000 A 
ATOM     15  C   UNL A   1     -24.848  -4.386  28.994  0.00  0.00    -0.000 A 
ATOM     16  C   UNL A   1     -26.024  -4.122  29.679  0.00  0.00    -0.000 A 
ATOM     17  C   UNL A   1     -26.336  -2.795  30.008  0.00  0.00    -0.000 A 
ENDBRANCH   8  12
BRANCH   1  18
ATOM     18  C   UNL A   1     -25.919   2.578  28.698  0.00  0.00    +0.120 C 
BRANCH  18  19
ATOM     19  C   UNL A   1     -25.898   1.931  29.719  0.00  0.00    -0.002 A 
ATOM     20  C   UNL A   1     -27.002   1.282  30.236  0.00  0.00    -0.002 A 
ATOM     21  C   UNL A   1     -27.047   0.560  31.494  0.00  0.00    +0.006 A 
ATOM     22  C   UNL A   1     -25.874   0.485  32.277  0.00  0.00    +0.080 A 
ATOM     23  C   UNL A   1     -24.719   1.170  31.756  0.00  0.00    +0.006 A 
ATOM     24  C   UNL A   1     -24.709   1.880  30.579  0.00  0.00    -0.002 A 
BRANCH  22  25
ATOM     25  C   UNL A   1     -25.829  -0.208  33.526  0.00  0.00    +0.388 C 
ATOM     26  O   UNL A   1     -24.723  -0.495  34.047  0.00  0.00    -0.241 OA
ATOM     27  O   UNL A   1     -26.904  -0.592  34.145  0.00  0.00    -0.241 OA
ENDBRANCH  22  25
ENDBRANCH  18  19
ENDBRANCH   1  18
TORSDOF 4
ENDMDL
ENDMDL
