REMARK  Name = outputs/IAG933/test6/raw/output_1768_IAG933_linker_design_.xyz
REMARK  15 active torsions:
REMARK  status: ('A' for Active; 'I' for Inactive)
REMARK    1  A    between atoms: C_1  and  C_2
REMARK    2  A    between atoms: C_1  and  C_8
REMARK    3  A    between atoms: C_1  and  N_32
REMARK    4  A    between atoms: C_13  and  C_40
REMARK    5  A    between atoms: C_14  and  C_15
REMARK    6  A    between atoms: C_21  and  O_22
REMARK    7  A    between atoms: O_22  and  C_23
REMARK    8  A    between atoms: C_23  and  C_24
REMARK    9  A    between atoms: O_31  and  C_35
REMARK   10  A    between atoms: O_31  and  C_39
REMARK   11  A    between atoms: N_32  and  C_37
REMARK   12  A    between atoms: N_33  and  C_35
REMARK   13  A    between atoms: N_33  and  C_40
REMARK   14  A    between atoms: C_35  and  C_41
REMARK   15  A    between atoms: C_37  and  C_40
REMARK                            x       y       z     vdW  Elec       q    Type
REMARK                         _______ _______ _______ _____ _____    ______ ____
ROOT
ATOM      1  C   UNL A   1     -24.770   1.092  27.297  0.00  0.00    +0.117 C 
ENDROOT
BRANCH   1   2
ATOM      2  C   UNL A   1     -25.688   1.614  26.461  0.00  0.00    +0.033 C 
ATOM      3  C   UNL A   1     -26.250   2.920  26.395  0.00  0.00    +0.074 C 
ATOM      4  C   UNL A   1     -27.438   3.091  25.645  0.00  0.00    +0.106 C 
ATOM      5  N   UNL A   1     -28.075   2.089  25.003  0.00  0.00    -0.208 NA
ATOM      6  C   UNL A   1     -27.543   0.849  25.079  0.00  0.00    +0.253 C 
ATOM      7  C   UNL A   1     -26.354   0.576  25.777  0.00  0.00    +0.191 C 
ATOM      8  F   UNL A   1     -25.860  -0.681  25.795  0.00  0.00    -0.200 F 
BRANCH   3   9
ATOM      9  C   UNL A   1     -25.642   4.093  27.123  0.00  0.00    +0.266 C 
ATOM     10  N   UNL A   1     -25.614   5.252  26.449  0.00  0.00    -0.200 NA
ATOM     11  C   UNL A   1     -25.026   6.479  26.963  0.00  0.00    +0.139 C 
ATOM     12  O   UNL A   1     -25.143   3.966  28.243  0.00  0.00    -0.268 OA
ENDBRANCH   3   9
BRANCH   6  13
ATOM     13  O   UNL A   1     -28.193  -0.208  24.477  0.00  0.00    -0.456 OA
BRANCH  13  14
ATOM     14  C   UNL A   1     -29.460   0.005  23.866  0.00  0.00    +0.243 C 
BRANCH  14  15
ATOM     15  C   UNL A   1     -30.065  -1.377  23.573  0.00  0.00    +0.229 C 
ATOM     16  O   UNL A   1     -30.729  -1.878  24.721  0.00  0.00    -0.216 OA
ENDBRANCH  14  15
ENDBRANCH  13  14
ENDBRANCH   6  13
ENDBRANCH   1   2
BRANCH   1  18
ATOM     17  C   UNL A   1     -26.793  -0.238  28.456  0.00  0.00    +0.022 C 
ATOM     18  C   UNL A   1     -25.309   0.039  28.141  0.00  0.00    +0.108 C 
BRANCH  18  19
ATOM     19  N   UNL A   1     -24.754   0.232  29.419  0.00  0.00    -0.129 NA
ATOM     20  O   UNL A   1     -24.385   1.355  29.820  0.00  0.00    -0.118 OA
BRANCH  19  21
ATOM     21  C   UNL A   1     -24.855  -1.012  30.143  0.00  0.00    +0.125 C 
BRANCH  21  22
ATOM     22  C   UNL A   1     -24.973  -2.505  29.788  0.00  0.00    -0.004 C 
ATOM     23  C   UNL A   1     -23.906  -3.173  29.146  0.00  0.00    -0.003 C 
ATOM     24  C   UNL A   1     -23.989  -4.549  28.853  0.00  0.00    -0.000 C 
ATOM     25  C   UNL A   1     -25.137  -5.280  29.205  0.00  0.00    -0.000 C 
ATOM     26  C   UNL A   1     -26.232  -4.611  29.784  0.00  0.00    -0.000 C 
ATOM     27  C   UNL A   1     -26.155  -3.232  30.065  0.00  0.00    -0.003 C 
ENDBRANCH  21  22
BRANCH  21  28
ATOM     28  C   UNL A   1     -25.387  -0.679  31.571  0.00  0.00    +0.094 C 
ATOM     29  C   UNL A   1     -25.189   0.773  32.028  0.00  0.00    +0.021 C 
ATOM     30  C   UNL A   1     -25.336   0.684  33.544  0.00  0.00    +0.020 C 
ATOM     31  C   UNL A   1     -24.829  -0.715  33.905  0.00  0.00    +0.089 C 
ATOM     32  N   UNL A   1     -24.758  -1.481  32.646  0.00  0.00    -0.218 NA
ENDBRANCH  21  28
ENDBRANCH  19  21
ENDBRANCH  18  19
ENDBRANCH   1  18
BRANCH   1  33
ATOM     33  N   UNL A   1     -23.550   1.490  27.078  0.00  0.00    -0.185 NA
BRANCH  33  34
ATOM     34  C   UNL A   1     -22.306   1.503  26.778  0.00  0.00    +0.224 C 
BRANCH  34  38
ATOM     35  O   UNL A   1     -20.733   0.610  27.873  0.00  0.00    -0.331 OA
ATOM     36  N   UNL A   1     -21.875  -0.435  29.564  0.00  0.00    -0.097 NA
ATOM     37  C   UNL A   1     -21.813   0.467  28.474  0.00  0.00    +0.238 C 
ATOM     38  C   UNL A   1     -21.609   0.719  27.354  0.00  0.00    +0.206 C 
ENDBRANCH  34  38
BRANCH  34  39
ATOM     39  O   UNL A   1     -22.044   1.857  25.456  0.00  0.00    -0.305 OA
BRANCH  39  41
ATOM     40  F   UNL A   1     -23.575   1.028  24.149  0.00  0.00    -0.198 F 
ATOM     41  C   UNL A   1     -23.126   2.249  24.550  0.00  0.00    +0.342 C 
ENDBRANCH  39  41
ENDBRANCH  34  39
ENDBRANCH  33  34
ENDBRANCH   1  33
TORSDOF 15
