REMARK  Name = outputs/IAG933/test6/raw/output_1769_IAG933_linker_design_.xyz
REMARK  10 active torsions:
REMARK  status: ('A' for Active; 'I' for Inactive)
REMARK    1  A    between atoms: C_1  and  C_2
REMARK    2  A    between atoms: C_1  and  C_8
REMARK    3  A    between atoms: C_1  and  C_36
REMARK    4  A    between atoms: C_21  and  O_22
REMARK    5  A    between atoms: O_22  and  C_23
REMARK    6  A    between atoms: C_23  and  C_24
REMARK    7  A    between atoms: C_30  and  C_36
REMARK    8  A    between atoms: O_35  and  C_44
REMARK    9  A    between atoms: C_38  and  C_42
REMARK   10  A    between atoms: C_47  and  S_49
REMARK                            x       y       z     vdW  Elec       q    Type
REMARK                         _______ _______ _______ _____ _____    ______ ____
ROOT
ATOM      1  C   UNL A   1     -25.688   1.614  26.461  0.00  0.00    +0.025 C 
ATOM      2  C   UNL A   1     -26.250   2.920  26.395  0.00  0.00    +0.071 C 
ATOM      3  C   UNL A   1     -25.642   4.093  27.123  0.00  0.00    +0.227 C 
ATOM      4  N   UNL A   1     -25.614   5.252  26.449  0.00  0.00    -0.235 NA
ATOM      5  C   UNL A   1     -25.026   6.479  26.963  0.00  0.00    +0.155 C 
ATOM      6  O   UNL A   1     -25.143   3.966  28.243  0.00  0.00    -0.437 OA
ATOM      7  C   UNL A   1     -27.438   3.091  25.645  0.00  0.00    +0.106 C 
ATOM      8  N   UNL A   1     -28.075   2.089  25.003  0.00  0.00    -0.208 NA
ATOM      9  C   UNL A   1     -27.543   0.849  25.079  0.00  0.00    +0.253 C 
ATOM     10  C   UNL A   1     -26.354   0.576  25.777  0.00  0.00    +0.190 C 
ATOM     11  F   UNL A   1     -25.860  -0.681  25.795  0.00  0.00    -0.200 F 
ATOM     12  C   UNL A   1     -22.997   0.682  29.078  0.00  0.00    +0.031 C 
ATOM     13  C   UNL A   1     -24.379   0.981  28.685  0.00  0.00    +0.036 C 
ATOM     14  C   UNL A   1     -24.465   1.337  27.256  0.00  0.00    +0.104 C 
ATOM     15  C   UNL A   1     -24.745   1.975  29.658  0.00  0.00    +0.012 C 
ATOM     16  N   UNL A   1     -22.073   1.492  27.031  0.00  0.00    -0.241 NA
ATOM     17  C   UNL A   1     -25.072   3.451  29.497  0.00  0.00    +0.143 C 
ATOM     18  C   UNL A   1     -21.946   1.114  28.345  0.00  0.00    +0.129 C 
ATOM     19  C   UNL A   1     -23.281   1.593  26.487  0.00  0.00    +0.200 C 
ENDROOT
BRANCH  17  24
ATOM     20  C   UNL A   1     -25.088   4.535  31.724  0.00  0.00    +0.004 C 
ATOM     21  C   UNL A   1     -27.084   5.258  32.861  0.00  0.00    +0.106 C 
ATOM     22  C   UNL A   1     -25.711   5.263  32.724  0.00  0.00    +0.019 C 
ATOM     23  N   UNL A   1     -27.737   6.372  33.383  0.00  0.00    -0.127 NA
ATOM     24  C   UNL A   1     -25.823   3.796  30.792  0.00  0.00    +0.036 C 
ATOM     25  C   UNL A   1     -27.146   3.438  31.148  0.00  0.00    +0.023 C 
ATOM     26  C   UNL A   1     -27.691   4.069  32.311  0.00  0.00    +0.122 C 
BRANCH  26  30
ATOM     27  O   UNL A   1     -30.163   4.462  32.977  0.00  0.00    -0.169 OA
ATOM     28  O   UNL A   1     -29.423   2.116  32.649  0.00  0.00    -0.169 OA
ATOM     29  C   UNL A   1     -28.290   3.317  34.792  0.00  0.00    +0.182 C 
ATOM     30  S   UNL A   1     -29.015   3.437  33.172  0.00  0.00    +0.012 S 
ENDBRANCH  26  30
ENDBRANCH  17  24
BRANCH  19  32
ATOM     31  C   UNL A   1     -22.121   2.307  24.596  0.00  0.00    +0.254 C 
ATOM     32  O   UNL A   1     -23.264   1.747  25.157  0.00  0.00    -0.459 OA
ENDBRANCH  19  32
BRANCH   9  33
ATOM     33  O   UNL A   1     -28.193  -0.208  24.477  0.00  0.00    -0.456 OA
BRANCH  33  34
ATOM     34  C   UNL A   1     -29.460   0.005  23.866  0.00  0.00    +0.243 C 
BRANCH  34  35
ATOM     35  C   UNL A   1     -30.065  -1.377  23.573  0.00  0.00    +0.229 C 
ATOM     36  O   UNL A   1     -30.729  -1.878  24.721  0.00  0.00    -0.216 OA
ENDBRANCH  34  35
ENDBRANCH  33  34
ENDBRANCH   9  33
BRANCH  13  37
ATOM     37  C   UNL A   1     -25.349  -0.134  29.053  0.00  0.00    +0.011 C 
BRANCH  37  38
ATOM     38  C   UNL A   1     -24.855  -1.012  30.143  0.00  0.00    +0.039 C 
BRANCH  38  39
ATOM     39  C   UNL A   1     -24.973  -2.505  29.788  0.00  0.00    -0.021 C 
ATOM     40  C   UNL A   1     -23.906  -3.173  29.146  0.00  0.00    -0.004 C 
ATOM     41  C   UNL A   1     -23.989  -4.549  28.853  0.00  0.00    -0.000 C 
ATOM     42  C   UNL A   1     -25.137  -5.280  29.205  0.00  0.00    -0.000 C 
ATOM     43  C   UNL A   1     -26.232  -4.611  29.784  0.00  0.00    -0.000 C 
ATOM     44  C   UNL A   1     -26.155  -3.232  30.065  0.00  0.00    -0.004 C 
ENDBRANCH  38  39
BRANCH  38  45
ATOM     45  C   UNL A   1     -25.387  -0.679  31.571  0.00  0.00    +0.077 C 
ATOM     46  C   UNL A   1     -25.189   0.773  32.028  0.00  0.00    +0.019 C 
ATOM     47  C   UNL A   1     -25.336   0.684  33.544  0.00  0.00    +0.020 C 
ATOM     48  C   UNL A   1     -24.829  -0.715  33.905  0.00  0.00    +0.089 C 
ATOM     49  N   UNL A   1     -24.758  -1.481  32.646  0.00  0.00    -0.219 NA
ENDBRANCH  38  45
ENDBRANCH  37  38
ENDBRANCH  13  37
TORSDOF 10
