MODEL 1769
MODEL 1
REMARK VINA RESULT:    -5.331      0.000      0.000
REMARK INTER + INTRA:          -5.781
REMARK INTER:                  -5.643
REMARK INTRA:                  -0.138
REMARK UNBOUND:                -0.138
REMARK  Name = No_1769-gen_results/8p0m/2024-11-27-11-27-31/
REMARK  1 active torsions:
REMARK  status: ('A' for Active; 'I' for Inactive)
REMARK    1  A    between atoms: C_4  and  C_7
REMARK                            x       y       z     vdW  Elec       q    Type
REMARK                         _______ _______ _______ _____ _____    ______ ____
ROOT
ATOM      1  C   UNL A   1     -26.554  -3.951  29.847  0.00  0.00    -0.000 A 
ATOM      2  C   UNL A   1     -26.116  -4.884  29.626  0.00  0.00    -0.000 A 
ATOM      3  C   UNL A   1     -25.722  -2.760  29.612  0.00  0.00    -0.000 A 
ATOM      4  C   UNL A   1     -24.448  -2.879  28.984  0.00  0.00    -0.000 A 
ATOM      5  C   UNL A   1     -24.034  -4.155  28.698  0.00  0.00    -0.000 A 
ATOM      6  C   UNL A   1     -24.829  -5.216  28.959  0.00  0.00    -0.000 A 
ENDROOT
BRANCH   4   7
ATOM      7  C   UNL A   1     -23.630  -1.706  28.733  0.00  0.00    -0.005 C 
ATOM      8  C   UNL A   1     -22.689  -1.280  29.421  0.00  0.00    -0.026 C 
ATOM      9  C   UNL A   1     -21.770  -0.209  29.022  0.00  0.00    +0.031 C 
ENDBRANCH   4   7
TORSDOF 1
ENDMDL
ENDMDL
