MODEL 176
MODEL 1
REMARK VINA RESULT:    -4.735      0.000      0.000
REMARK INTER + INTRA:          -5.144
REMARK INTER:                  -5.011
REMARK INTRA:                  -0.133
REMARK UNBOUND:                -0.133
REMARK  Name = No_176-gen_results/8p0m/2024-11-27-11-27-31/
REMARK  1 active torsions:
REMARK  status: ('A' for Active; 'I' for Inactive)
REMARK    1  A    between atoms: C_4  and  C_8
REMARK                            x       y       z     vdW  Elec       q    Type
REMARK                         _______ _______ _______ _____ _____    ______ ____
ROOT
ATOM      1  C   UNL A   1     -26.002  -2.618  30.252  0.00  0.00    +0.000 C 
ATOM      2  C   UNL A   1     -26.486  -3.447  29.817  0.00  0.00    +0.000 C 
ATOM      3  C   UNL A   1     -25.251  -1.806  29.286  0.00  0.00    +0.004 C 
ATOM      4  C   UNL A   1     -23.974  -2.209  28.951  0.00  0.00    +0.022 C 
ATOM      5  C   UNL A   1     -24.016  -3.609  28.532  0.00  0.00    +0.004 C 
ATOM      6  C   UNL A   1     -25.868  -4.834  29.480  0.00  0.00    +0.000 C 
ATOM      7  C   UNL A   1     -24.475  -4.695  29.163  0.00  0.00    +0.000 C 
ENDROOT
BRANCH   4   8
ATOM      8  C   UNL A   1     -22.893  -1.451  29.129  0.00  0.00    -0.026 C 
ATOM      9  C   UNL A   1     -22.722  -0.679  30.267  0.00  0.00    -0.005 C 
ENDBRANCH   4   8
TORSDOF 1
ENDMDL
ENDMDL
