REMARK  Name = outputs/IAG933/test6/raw/output_1770_IAG933_linker_design_.xyz
REMARK  5 active torsions:
REMARK  status: ('A' for Active; 'I' for Inactive)
REMARK    1  A    between atoms: C_1  and  C_2
REMARK    2  A    between atoms: C_1  and  C_8
REMARK    3  A    between atoms: C_1  and  N_40
REMARK    4  A    between atoms: C_14  and  C_15
REMARK    5  A    between atoms: C_30  and  N_42
REMARK                            x       y       z     vdW  Elec       q    Type
REMARK                         _______ _______ _______ _____ _____    ______ ____
ROOT
ATOM      1  C   UNL A   1     -25.688   1.614  26.461  0.00  0.00    +0.092 C 
ATOM      2  C   UNL A   1     -26.250   2.920  26.395  0.00  0.00    +0.059 C 
ATOM      3  C   UNL A   1     -27.438   3.091  25.645  0.00  0.00    +0.102 C 
ATOM      4  N   UNL A   1     -28.075   2.089  25.003  0.00  0.00    -0.212 NA
ATOM      5  C   UNL A   1     -27.543   0.849  25.079  0.00  0.00    +0.234 C 
ATOM      6  O   UNL A   1     -28.193  -0.208  24.477  0.00  0.00    -0.459 OA
ATOM      7  C   UNL A   1     -29.460   0.005  23.866  0.00  0.00    +0.239 C 
ATOM      8  C   UNL A   1     -30.065  -1.377  23.573  0.00  0.00    +0.191 C 
ATOM      9  O   UNL A   1     -30.729  -1.878  24.721  0.00  0.00    -0.333 OA
ATOM     10  C   UNL A   1     -26.354   0.576  25.777  0.00  0.00    +0.244 C 
ATOM     11  F   UNL A   1     -25.860  -0.681  25.795  0.00  0.00    -0.227 F 
ATOM     12  C   UNL A   1     -23.927   1.118  28.041  0.00  0.00    +0.018 C 
ATOM     13  C   UNL A   1     -28.328   0.052  29.146  0.00  0.00    +0.160 C 
ATOM     14  O   UNL A   1     -29.361  -0.873  28.759  0.00  0.00    -0.351 OA
ATOM     15  C   UNL A   1     -24.832   0.973  28.918  0.00  0.00    +0.101 C 
ATOM     16  C   UNL A   1     -30.538  -0.332  28.147  0.00  0.00    +0.160 C 
ATOM     17  C   UNL A   1     -21.534   1.676  27.754  0.00  0.00    +0.029 C 
ATOM     18  C   UNL A   1     -26.934  -0.401  28.580  0.00  0.00    +0.105 C 
ATOM     19  C   UNL A   1     -31.815  -2.429  25.031  0.00  0.00    +0.220 C 
ATOM     20  C   UNL A   1     -24.236   1.575  26.764  0.00  0.00    -0.015 C 
ATOM     21  C   UNL A   1     -23.177   2.089  25.963  0.00  0.00    -0.004 C 
ATOM     22  C   UNL A   1     -31.655  -1.408  27.851  0.00  0.00    +0.106 C 
ATOM     23  N   UNL A   1     -25.564  -0.181  29.202  0.00  0.00    -0.263 NA
ATOM     24  C   UNL A   1     -21.863   2.137  26.456  0.00  0.00    +0.002 C 
ATOM     25  N   UNL A   1     -32.093  -1.788  26.366  0.00  0.00    -0.245 NA
ATOM     26  C   UNL A   1     -22.729   1.035  28.766  0.00  0.00    +0.137 C 
ATOM     27  F   UNL A   1     -22.337   0.437  29.783  0.00  0.00    -0.204 F 
ENDROOT
BRANCH   2  28
ATOM     28  C   UNL A   1     -25.642   4.093  27.123  0.00  0.00    +0.263 C 
ATOM     29  N   UNL A   1     -25.614   5.252  26.449  0.00  0.00    -0.200 NA
ATOM     30  C   UNL A   1     -25.026   6.479  26.963  0.00  0.00    +0.139 C 
ATOM     31  O   UNL A   1     -25.143   3.966  28.243  0.00  0.00    -0.269 OA
ENDBRANCH   2  28
BRANCH  25  32
ATOM     32  C   UNL A   1     -33.624  -1.856  26.327  0.00  0.00    +0.074 C 
ATOM     33  C   UNL A   1     -34.398  -0.563  26.764  0.00  0.00    +0.019 C 
ENDBRANCH  25  32
BRANCH  23  34
ATOM     34  C   UNL A   1     -24.855  -1.012  30.143  0.00  0.00    +0.097 C 
BRANCH  34  35
ATOM     35  C   UNL A   1     -24.973  -2.505  29.788  0.00  0.00    -0.006 C 
ATOM     36  C   UNL A   1     -23.906  -3.173  29.146  0.00  0.00    -0.003 C 
ATOM     37  C   UNL A   1     -23.989  -4.549  28.853  0.00  0.00    -0.000 C 
ATOM     38  C   UNL A   1     -25.137  -5.280  29.205  0.00  0.00    -0.000 C 
ATOM     39  C   UNL A   1     -26.232  -4.611  29.784  0.00  0.00    -0.000 C 
ATOM     40  C   UNL A   1     -26.155  -3.232  30.065  0.00  0.00    -0.003 C 
ENDBRANCH  34  35
BRANCH  34  41
ATOM     41  C   UNL A   1     -25.387  -0.679  31.571  0.00  0.00    +0.092 C 
ATOM     42  C   UNL A   1     -25.189   0.773  32.028  0.00  0.00    +0.021 C 
ATOM     43  C   UNL A   1     -25.336   0.684  33.544  0.00  0.00    +0.020 C 
ATOM     44  C   UNL A   1     -24.829  -0.715  33.905  0.00  0.00    +0.089 C 
ATOM     45  N   UNL A   1     -24.758  -1.481  32.646  0.00  0.00    -0.218 NA
ENDBRANCH  34  41
ENDBRANCH  23  34
TORSDOF 5
