MODEL 1771
MODEL 1
REMARK VINA RESULT:    -7.690      0.000      0.000
REMARK INTER + INTRA:         -11.733
REMARK INTER:                  -9.937
REMARK INTRA:                  -1.795
REMARK UNBOUND:                -1.795
REMARK  Name = No_1771-gen_results/8p0m/2024-11-27-11-27-31/
REMARK  5 active torsions:
REMARK  status: ('A' for Active; 'I' for Inactive)
REMARK    1  A    between atoms: C_1  and  C_2
REMARK    2  A    between atoms: C_1  and  C_8
REMARK    3  A    between atoms: C_5  and  C_15
REMARK    4  A    between atoms: C_8  and  C_9
REMARK    5  A    between atoms: C_8  and  C_18
REMARK                            x       y       z     vdW  Elec       q    Type
REMARK                         _______ _______ _______ _____ _____    ______ ____
ROOT
ATOM      1  C   UNL A   1     -24.906  -0.771  29.482  0.00  0.00    +0.175 C 
ATOM      2  F   UNL A   1     -26.163  -0.166  29.805  0.00  0.00    -0.231 F 
ENDROOT
BRANCH   1   3
ATOM      3  C   UNL A   1     -25.024  -2.172  29.319  0.00  0.00    +0.011 A 
ATOM      4  C   UNL A   1     -23.913  -2.799  28.889  0.00  0.00    -0.001 A 
ATOM      5  C   UNL A   1     -23.986  -4.147  28.878  0.00  0.00    -0.000 A 
ATOM      6  C   UNL A   1     -25.169  -4.850  29.257  0.00  0.00    -0.000 A 
ATOM      7  C   UNL A   1     -26.308  -4.186  29.676  0.00  0.00    -0.000 A 
ATOM      8  C   UNL A   1     -26.220  -2.770  29.780  0.00  0.00    -0.001 A 
ENDBRANCH   1   3
BRANCH   1   9
ATOM      9  C   UNL A   1     -24.599  -0.069  28.117  0.00  0.00    +0.011 A 
ATOM     10  C   UNL A   1     -23.652   0.802  27.983  0.00  0.00    -0.001 A 
ATOM     11  C   UNL A   1     -23.359   1.348  26.713  0.00  0.00    -0.000 A 
ATOM     12  C   UNL A   1     -24.270   1.129  25.686  0.00  0.00    -0.000 A 
ATOM     13  C   UNL A   1     -25.501  -0.364  26.970  0.00  0.00    -0.001 A 
ATOM     14  C   UNL A   1     -25.290   0.237  25.764  0.00  0.00    -0.000 A 
ENDBRANCH   1   9
BRANCH   1  15
ATOM     15  C   UNL A   1     -23.963  -0.136  30.531  0.00  0.00    +0.068 C 
BRANCH  15  16
ATOM     16  C   UNL A   1     -24.165  -0.355  31.703  0.00  0.00    -0.019 A 
ATOM     17  C   UNL A   1     -23.439  -1.226  32.448  0.00  0.00    -0.004 A 
ATOM     18  C   UNL A   1     -23.672  -1.503  33.883  0.00  0.00    +0.004 A 
ATOM     19  C   UNL A   1     -24.730  -0.775  34.521  0.00  0.00    +0.057 A 
ATOM     20  C   UNL A   1     -25.415   0.174  33.729  0.00  0.00    +0.004 A 
ATOM     21  C   UNL A   1     -25.143   0.378  32.401  0.00  0.00    -0.004 A 
BRANCH  19  22
ATOM     22  C   UNL A   1     -25.036  -0.946  35.915  0.00  0.00    +0.284 C 
ATOM     23  N   UNL A   1     -24.486  -0.789  36.921  0.00  0.00    -0.084 NA
ATOM     24  O   UNL A   1     -26.404  -1.207  36.044  0.00  0.00    -0.267 OA
ENDBRANCH  19  22
ENDBRANCH  15  16
ENDBRANCH   1  15
TORSDOF 5
ENDMDL
ENDMDL
