REMARK  Name = outputs/IAG933/test6/raw/output_1772_IAG933_linker_design_.xyz
REMARK  16 active torsions:
REMARK  status: ('A' for Active; 'I' for Inactive)
REMARK    1  A    between atoms: C_1  and  C_2
REMARK    2  A    between atoms: C_1  and  C_8
REMARK    3  A    between atoms: C_1  and  N_31
REMARK    4  A    between atoms: C_13  and  C_30
REMARK    5  A    between atoms: C_14  and  C_15
REMARK    6  A    between atoms: C_21  and  O_22
REMARK    7  A    between atoms: O_22  and  C_23
REMARK    8  A    between atoms: C_23  and  C_24
REMARK    9  A    between atoms: O_29  and  C_37
REMARK   10  A    between atoms: O_29  and  C_43
REMARK   11  A    between atoms: C_30  and  N_31
REMARK   12  A    between atoms: C_30  and  C_38
REMARK   13  A    between atoms: N_31  and  C_40
REMARK   14  A    between atoms: C_32  and  C_39
REMARK   15  A    between atoms: C_32  and  C_43
REMARK   16  A    between atoms: C_39  and  C_40
REMARK                            x       y       z     vdW  Elec       q    Type
REMARK                         _______ _______ _______ _____ _____    ______ ____
ROOT
ATOM      1  N   UNL A   1     -25.369   0.056  28.846  0.00  0.00    -0.263 NA
ENDROOT
BRANCH   1   2
ATOM      2  C   UNL A   1     -24.855  -1.012  30.143  0.00  0.00    +0.097 C 
BRANCH   2   3
ATOM      3  C   UNL A   1     -24.973  -2.505  29.788  0.00  0.00    -0.006 C 
ATOM      4  C   UNL A   1     -23.906  -3.173  29.146  0.00  0.00    -0.003 C 
ATOM      5  C   UNL A   1     -23.989  -4.549  28.853  0.00  0.00    -0.000 C 
ATOM      6  C   UNL A   1     -25.137  -5.280  29.205  0.00  0.00    -0.000 C 
ATOM      7  C   UNL A   1     -26.232  -4.611  29.784  0.00  0.00    -0.000 C 
ATOM      8  C   UNL A   1     -26.155  -3.232  30.065  0.00  0.00    -0.003 C 
ENDBRANCH   2   3
BRANCH   2   9
ATOM      9  C   UNL A   1     -25.387  -0.679  31.571  0.00  0.00    +0.092 C 
ATOM     10  C   UNL A   1     -25.189   0.773  32.028  0.00  0.00    +0.021 C 
ATOM     11  C   UNL A   1     -25.336   0.684  33.544  0.00  0.00    +0.020 C 
ATOM     12  C   UNL A   1     -24.829  -0.715  33.905  0.00  0.00    +0.089 C 
ATOM     13  N   UNL A   1     -24.758  -1.481  32.646  0.00  0.00    -0.218 NA
ENDBRANCH   2   9
ENDBRANCH   1   2
BRANCH   1  14
ATOM     14  C   UNL A   1     -25.026   1.197  27.644  0.00  0.00    +0.143 C 
BRANCH  14  15
ATOM     15  C   UNL A   1     -25.688   1.614  26.461  0.00  0.00    +0.094 C 
ATOM     16  C   UNL A   1     -26.250   2.920  26.395  0.00  0.00    +0.057 C 
ATOM     17  C   UNL A   1     -27.438   3.091  25.645  0.00  0.00    +0.102 C 
ATOM     18  N   UNL A   1     -28.075   2.089  25.003  0.00  0.00    -0.212 NA
ATOM     19  C   UNL A   1     -27.543   0.849  25.079  0.00  0.00    +0.234 C 
ATOM     20  C   UNL A   1     -26.354   0.576  25.777  0.00  0.00    +0.242 C 
ATOM     21  F   UNL A   1     -25.860  -0.681  25.795  0.00  0.00    -0.227 F 
BRANCH  16  22
ATOM     22  C   UNL A   1     -25.642   4.093  27.123  0.00  0.00    +0.263 C 
ATOM     23  N   UNL A   1     -25.614   5.252  26.449  0.00  0.00    -0.200 NA
ATOM     24  C   UNL A   1     -25.026   6.479  26.963  0.00  0.00    +0.139 C 
ATOM     25  O   UNL A   1     -25.143   3.966  28.243  0.00  0.00    -0.269 OA
ENDBRANCH  16  22
BRANCH  19  26
ATOM     26  O   UNL A   1     -28.193  -0.208  24.477  0.00  0.00    -0.459 OA
BRANCH  26  27
ATOM     27  C   UNL A   1     -29.460   0.005  23.866  0.00  0.00    +0.242 C 
BRANCH  27  28
ATOM     28  C   UNL A   1     -30.065  -1.377  23.573  0.00  0.00    +0.229 C 
ATOM     29  O   UNL A   1     -30.729  -1.878  24.721  0.00  0.00    -0.216 OA
ENDBRANCH  27  28
ENDBRANCH  26  27
ENDBRANCH  19  26
ENDBRANCH  14  15
BRANCH  14  31
ATOM     30  C   UNL A   1     -22.462   0.032  29.069  0.00  0.00    +0.115 C 
ATOM     31  C   UNL A   1     -23.549   1.406  27.110  0.00  0.00    +0.241 C 
ATOM     32  O   UNL A   1     -23.351   1.882  26.006  0.00  0.00    -0.273 OA
ATOM     33  N   UNL A   1     -22.570   0.993  27.895  0.00  0.00    -0.275 N 
ATOM     34  C   UNL A   1     -21.204   1.355  27.600  0.00  0.00    +0.115 C 
ENDBRANCH  14  31
ENDBRANCH   1  14
BRANCH   1  35
ATOM     35  C   UNL A   1     -26.821   0.372  29.348  0.00  0.00    +0.073 C 
BRANCH  35  36
ATOM     36  C   UNL A   1     -27.804   0.138  28.117  0.00  0.00    +0.020 C 
BRANCH  36  37
ATOM     37  C   UNL A   1     -29.283  -0.228  28.372  0.00  0.00    +0.034 C 
BRANCH  37  38
ATOM     38  C   UNL A   1     -29.273  -0.814  29.798  0.00  0.00    +0.142 C 
BRANCH  38  39
ATOM     39  O   UNL A   1     -30.136  -2.001  29.733  0.00  0.00    -0.354 OA
BRANCH  39  44
ATOM     40  C   UNL A   1     -29.201  -1.970  33.223  0.00  0.00    +0.142 C 
ATOM     41  C   UNL A   1     -31.226  -1.900  31.910  0.00  0.00    +0.035 C 
ATOM     42  C   UNL A   1     -29.473  -3.519  31.398  0.00  0.00    +0.172 C 
ATOM     43  O   UNL A   1     -28.746  -3.054  32.501  0.00  0.00    -0.351 OA
ATOM     44  C   UNL A   1     -30.405  -2.548  30.960  0.00  0.00    +0.145 C 
ATOM     45  C   UNL A   1     -30.559  -1.555  33.087  0.00  0.00    +0.035 C 
ENDBRANCH  39  44
ENDBRANCH  38  39
ENDBRANCH  37  38
ENDBRANCH  36  37
ENDBRANCH  35  36
ENDBRANCH   1  35
TORSDOF 16
