MODEL 1772
MODEL 1
REMARK VINA RESULT:    -6.339      0.000      0.000
REMARK INTER + INTRA:          -8.417
REMARK INTER:                  -7.821
REMARK INTRA:                  -0.596
REMARK UNBOUND:                -0.596
REMARK  Name = No_1772-gen_results/8p0m/2024-11-27-11-27-31/
REMARK  4 active torsions:
REMARK  status: ('A' for Active; 'I' for Inactive)
REMARK    1  A    between atoms: C_2  and  O_7
REMARK    2  A    between atoms: C_5  and  C_14
REMARK    3  A    between atoms: O_7  and  C_8
REMARK    4  A    between atoms: C_11  and  C_18
REMARK                            x       y       z     vdW  Elec       q    Type
REMARK                         _______ _______ _______ _____ _____    ______ ____
ROOT
ATOM      1  C   UNL A   1     -11.794   1.344  35.312  0.00  0.00    +0.044 A 
ATOM      2  C   UNL A   1     -11.869   1.533  36.504  0.00  0.00    +0.146 A 
ATOM      3  C   UNL A   1     -12.727   2.275  37.144  0.00  0.00    +0.049 A 
ATOM      4  C   UNL A   1     -13.707   2.978  36.381  0.00  0.00    +0.061 A 
ATOM      5  C   UNL A   1     -12.828   1.933  34.481  0.00  0.00    +0.084 A 
ATOM      6  C   UNL A   1     -13.735   2.724  35.055  0.00  0.00    +0.018 A 
ATOM      7 CL   UNL A   1     -14.852   3.985  37.168  0.00  0.00    -0.082 Cl
ENDROOT
BRANCH   5   8
ATOM      8  C   UNL A   1     -12.805   1.638  33.008  0.00  0.00    +0.388 C 
ATOM      9  O   UNL A   1     -12.033   1.080  32.620  0.00  0.00    -0.241 OA
ATOM     10  O   UNL A   1     -13.758   2.194  32.365  0.00  0.00    -0.241 OA
ENDBRANCH   5   8
BRANCH   2  11
ATOM     11  O   UNL A   1     -10.934   0.881  37.364  0.00  0.00    -0.454 OA
BRANCH  11  12
ATOM     12  C   UNL A   1     -11.447  -0.226  38.100  0.00  0.00    +0.145 A 
ATOM     13  C   UNL A   1     -11.473  -0.125  39.473  0.00  0.00    +0.035 A 
ATOM     14  C   UNL A   1     -11.496  -1.536  37.542  0.00  0.00    +0.037 A 
ATOM     15  C   UNL A   1     -11.848  -1.260  40.270  0.00  0.00    -0.003 A 
ATOM     16  C   UNL A   1     -11.793  -2.613  38.328  0.00  0.00    +0.003 A 
ATOM     17  C   UNL A   1     -11.972  -2.471  39.712  0.00  0.00    -0.003 A 
BRANCH  15  18
ATOM     18  C   UNL A   1     -11.684  -1.165  41.660  0.00  0.00    +0.121 C 
ATOM     19 CL   UNL A   1     -10.680  -2.245  42.501  0.00  0.00    -0.108 Cl
ENDBRANCH  15  18
ENDBRANCH  11  12
ENDBRANCH   2  11
TORSDOF 4
ENDMDL
ENDMDL
