REMARK  Name = outputs/IAG933/test6/raw/output_1773_IAG933_linker_design_.xyz
REMARK  13 active torsions:
REMARK  status: ('A' for Active; 'I' for Inactive)
REMARK    1  A    between atoms: C_1  and  C_2
REMARK    2  A    between atoms: C_1  and  C_8
REMARK    3  A    between atoms: C_1  and  N_44
REMARK    4  A    between atoms: C_13  and  C_40
REMARK    5  A    between atoms: C_14  and  C_15
REMARK    6  A    between atoms: C_21  and  O_22
REMARK    7  A    between atoms: O_22  and  C_23
REMARK    8  A    between atoms: C_23  and  C_24
REMARK    9  A    between atoms: C_28  and  C_32
REMARK   10  A    between atoms: C_28  and  C_41
REMARK   11  A    between atoms: C_39  and  C_40
REMARK   12  A    between atoms: C_39  and  N_44
REMARK   13  A    between atoms: C_41  and  N_44
REMARK                            x       y       z     vdW  Elec       q    Type
REMARK                         _______ _______ _______ _____ _____    ______ ____
ROOT
ATOM      1  N   UNL A   1     -24.793  -0.014  28.961  0.00  0.00    -0.270 NA
ENDROOT
BRANCH   1   3
ATOM      2  C   UNL A   1     -22.320   0.485  28.666  0.00  0.00    +0.017 C 
ATOM      3  C   UNL A   1     -23.692   0.449  27.974  0.00  0.00    +0.058 C 
BRANCH   3   5
ATOM      4  C   UNL A   1     -23.026   2.040  26.049  0.00  0.00    +0.002 C 
ATOM      5  C   UNL A   1     -24.163   1.288  26.674  0.00  0.00    +0.022 C 
BRANCH   5   6
ATOM      6  C   UNL A   1     -25.688   1.614  26.461  0.00  0.00    +0.071 C 
ATOM      7  C   UNL A   1     -26.250   2.920  26.395  0.00  0.00    +0.055 C 
ATOM      8  C   UNL A   1     -27.438   3.091  25.645  0.00  0.00    +0.102 C 
ATOM      9  N   UNL A   1     -28.075   2.089  25.003  0.00  0.00    -0.212 NA
ATOM     10  C   UNL A   1     -27.543   0.849  25.079  0.00  0.00    +0.234 C 
ATOM     11  C   UNL A   1     -26.354   0.576  25.777  0.00  0.00    +0.240 C 
ATOM     12  F   UNL A   1     -25.860  -0.681  25.795  0.00  0.00    -0.227 F 
BRANCH   7  13
ATOM     13  C   UNL A   1     -25.642   4.093  27.123  0.00  0.00    +0.262 C 
ATOM     14  N   UNL A   1     -25.614   5.252  26.449  0.00  0.00    -0.200 NA
ATOM     15  C   UNL A   1     -25.026   6.479  26.963  0.00  0.00    +0.139 C 
ATOM     16  O   UNL A   1     -25.143   3.966  28.243  0.00  0.00    -0.269 OA
ENDBRANCH   7  13
BRANCH  10  17
ATOM     17  O   UNL A   1     -28.193  -0.208  24.477  0.00  0.00    -0.459 OA
BRANCH  17  18
ATOM     18  C   UNL A   1     -29.460   0.005  23.866  0.00  0.00    +0.242 C 
BRANCH  18  19
ATOM     19  C   UNL A   1     -30.065  -1.377  23.573  0.00  0.00    +0.229 C 
ATOM     20  O   UNL A   1     -30.729  -1.878  24.721  0.00  0.00    -0.216 OA
ENDBRANCH  18  19
ENDBRANCH  17  18
ENDBRANCH  10  17
ENDBRANCH   5   6
ENDBRANCH   3   5
ENDBRANCH   1   3
BRANCH   1  21
ATOM     21  C   UNL A   1     -24.855  -1.012  30.143  0.00  0.00    +0.096 C 
BRANCH  21  22
ATOM     22  C   UNL A   1     -24.973  -2.505  29.788  0.00  0.00    -0.006 C 
ATOM     23  C   UNL A   1     -23.906  -3.173  29.146  0.00  0.00    -0.003 C 
ATOM     24  C   UNL A   1     -23.989  -4.549  28.853  0.00  0.00    -0.000 C 
ATOM     25  C   UNL A   1     -25.137  -5.280  29.205  0.00  0.00    -0.000 C 
ATOM     26  C   UNL A   1     -26.232  -4.611  29.784  0.00  0.00    -0.000 C 
ATOM     27  C   UNL A   1     -26.155  -3.232  30.065  0.00  0.00    -0.003 C 
ENDBRANCH  21  22
BRANCH  21  28
ATOM     28  C   UNL A   1     -25.387  -0.679  31.571  0.00  0.00    +0.092 C 
ATOM     29  C   UNL A   1     -25.189   0.773  32.028  0.00  0.00    +0.021 C 
ATOM     30  C   UNL A   1     -25.336   0.684  33.544  0.00  0.00    +0.020 C 
ATOM     31  C   UNL A   1     -24.829  -0.715  33.905  0.00  0.00    +0.089 C 
ATOM     32  N   UNL A   1     -24.758  -1.481  32.646  0.00  0.00    -0.218 NA
ENDBRANCH  21  28
ENDBRANCH   1  21
BRANCH   1  33
ATOM     33  C   UNL A   1     -25.741   1.191  29.149  0.00  0.00    +0.082 C 
BRANCH  33  34
ATOM     34  C   UNL A   1     -27.044   0.579  28.782  0.00  0.00    +0.103 C 
BRANCH  34  37
ATOM     35  C   UNL A   1     -32.061   2.904  29.748  0.00  0.00    +0.035 C 
ATOM     36  C   UNL A   1     -29.641   2.759  30.059  0.00  0.00    +0.106 C 
ATOM     37  C   UNL A   1     -28.013   0.727  29.122  0.00  0.00    +0.227 C 
ATOM     38  C   UNL A   1     -31.835   2.114  31.036  0.00  0.00    +0.004 C 
ATOM     39  O   UNL A   1     -30.523   4.622  28.692  0.00  0.00    -0.221 OA
ATOM     40  C   UNL A   1     -28.419   3.370  29.514  0.00  0.00    +0.114 C 
ATOM     41  O   UNL A   1     -28.476  -0.251  28.571  0.00  0.00    -0.275 OA
ATOM     42  N   UNL A   1     -28.161   2.081  29.993  0.00  0.00    -0.277 N 
ATOM     43  C   UNL A   1     -30.827   3.788  29.808  0.00  0.00    +0.170 C 
ATOM     44  C   UNL A   1     -30.418   1.625  31.100  0.00  0.00    +0.022 C 
ENDBRANCH  34  37
ENDBRANCH  33  34
ENDBRANCH   1  33
TORSDOF 13
