MODEL 1774
MODEL 1
REMARK VINA RESULT:    -5.727      0.000      0.000
REMARK INTER + INTRA:          -8.284
REMARK INTER:                  -7.736
REMARK INTRA:                  -0.548
REMARK UNBOUND:                -0.548
REMARK  Name = No_1774-gen_results/8p0m/2024-11-27-11-27-31/
REMARK  6 active torsions:
REMARK  status: ('A' for Active; 'I' for Inactive)
REMARK    1  A    between atoms: N_1  and  C_2
REMARK    2  A    between atoms: N_1  and  C_8
REMARK    3  A    between atoms: C_5  and  C_11
REMARK    4  A    between atoms: C_8  and  C_9
REMARK    5  A    between atoms: C_9  and  O_10
REMARK    6  A    between atoms: O_10  and  C_15
REMARK                            x       y       z     vdW  Elec       q    Type
REMARK                         _______ _______ _______ _____ _____    ______ ____
ROOT
ATOM      1  C   UNL A   1     -12.411 -21.383  20.011  0.00  0.00    +0.065 A 
ATOM      2  C   UNL A   1     -11.303 -22.104  19.787  0.00  0.00    +0.016 A 
ATOM      3  C   UNL A   1     -10.314 -22.373  20.756  0.00  0.00    +0.005 A 
ATOM      4  C   UNL A   1     -10.427 -21.766  22.062  0.00  0.00    +0.071 A 
ATOM      5  C   UNL A   1     -11.620 -21.028  22.313  0.00  0.00    +0.005 A 
ATOM      6  C   UNL A   1     -12.599 -20.875  21.375  0.00  0.00    +0.016 A 
ENDROOT
BRANCH   4   7
ATOM      7  C   UNL A   1      -9.398 -21.959  23.087  0.00  0.00    +0.419 C 
ATOM      8  F   UNL A   1      -8.289 -21.537  22.785  0.00  0.00    -0.166 F 
ATOM      9  F   UNL A   1      -9.235 -23.316  23.312  0.00  0.00    -0.166 F 
ATOM     10  F   UNL A   1      -9.815 -21.440  24.256  0.00  0.00    -0.166 F 
ENDBRANCH   4   7
BRANCH   1  11
ATOM     11  N   UNL A   1     -13.371 -21.359  19.238  0.00  0.00    -0.234 NA
BRANCH  11  12
ATOM     12  C   UNL A   1     -13.008 -21.056  17.978  0.00  0.00    +0.159 C 
BRANCH  12  13
ATOM     13  C   UNL A   1     -13.116 -19.682  17.625  0.00  0.00    +0.229 C 
BRANCH  13  14
ATOM     14  O   UNL A   1     -12.153 -19.069  17.148  0.00  0.00    -0.470 OA
BRANCH  14  15
ATOM     15  C   UNL A   1     -11.326 -19.506  16.451  0.00  0.00    +0.172 C 
ATOM     16  C   UNL A   1     -10.066 -19.226  16.319  0.00  0.00    +0.043 C 
ENDBRANCH  14  15
ENDBRANCH  13  14
ENDBRANCH  12  13
ENDBRANCH  11  12
ENDBRANCH   1  11
TORSDOF 6
ENDMDL
ENDMDL
