MODEL 1775
MODEL 1
REMARK VINA RESULT:    -5.992      0.000      0.000
REMARK INTER + INTRA:          -6.881
REMARK INTER:                  -6.692
REMARK INTRA:                  -0.188
REMARK UNBOUND:                -0.188
REMARK  Name = No_1775-gen_results/8p0m/2024-11-27-11-27-31/
REMARK  2 active torsions:
REMARK  status: ('A' for Active; 'I' for Inactive)
REMARK    1  A    between atoms: C_3  and  C_14
REMARK    2  A    between atoms: C_5  and  C_11
REMARK                            x       y       z     vdW  Elec       q    Type
REMARK                         _______ _______ _______ _____ _____    ______ ____
ROOT
ATOM      1  C   UNL A   1     -30.881  -9.118  30.268  0.00  0.00    +0.017 A 
ATOM      2  C   UNL A   1     -30.133  -9.815  30.915  0.00  0.00    -0.011 A 
ATOM      3  C   UNL A   1     -29.809  -9.615  32.246  0.00  0.00    +0.126 C 
ATOM      4  C   UNL A   1     -28.862 -10.381  33.018  0.00  0.00    +0.027 C 
ATOM      5  C   UNL A   1     -28.182 -11.451  32.388  0.00  0.00    +0.109 C 
ATOM      6  C   UNL A   1     -28.472 -11.712  31.023  0.00  0.00    +0.040 C 
ATOM      7  C   UNL A   1     -29.361 -10.914  30.372  0.00  0.00    +0.010 A 
ATOM      8  C   UNL A   1     -31.275  -9.538  28.880  0.00  0.00    +0.100 A 
ATOM      9  N   UNL A   1     -30.489 -10.446  28.235  0.00  0.00    -0.226 NA
ATOM     10  C   UNL A   1     -29.641 -11.214  28.933  0.00  0.00    +0.165 A 
ATOM     11  N   UNL A   1     -28.982 -12.198  28.343  0.00  0.00    -0.108 NA
ENDROOT
BRANCH   5  12
ATOM     12  C   UNL A   1     -27.221 -12.296  33.139  0.00  0.00    +0.365 C 
ATOM     13  O   UNL A   1     -26.371 -12.913  32.443  0.00  0.00    -0.246 OA
ATOM     14  O   UNL A   1     -27.263 -12.345  34.393  0.00  0.00    -0.246 OA
ENDBRANCH   5  12
BRANCH   3  15
ATOM     15  C   UNL A   1     -30.381  -8.466  32.984  0.00  0.00    +0.368 C 
ATOM     16  O   UNL A   1     -31.281  -8.505  33.619  0.00  0.00    -0.245 OA
ATOM     17  O   UNL A   1     -29.634  -7.384  32.999  0.00  0.00    -0.245 OA
ENDBRANCH   3  15
TORSDOF 2
ENDMDL
ENDMDL
