MODEL 1776
MODEL 1
REMARK VINA RESULT:    -5.949      0.000      0.000
REMARK INTER + INTRA:          -6.936
REMARK INTER:                  -6.644
REMARK INTRA:                  -0.292
REMARK UNBOUND:                -0.292
REMARK  Name = No_1776-gen_results/8p0m/2024-11-27-11-27-31/
REMARK  2 active torsions:
REMARK  status: ('A' for Active; 'I' for Inactive)
REMARK    1  A    between atoms: C_3  and  C_4
REMARK    2  A    between atoms: C_8  and  C_9
REMARK                            x       y       z     vdW  Elec       q    Type
REMARK                         _______ _______ _______ _____ _____    ______ ____
ROOT
ATOM      1  C   UNL A   1     -25.543  -2.410  29.834  0.00  0.00    -0.000 A 
ATOM      2  C   UNL A   1     -26.314  -3.117  29.959  0.00  0.00    +0.000 A 
ATOM      3  C   UNL A   1     -24.313  -2.862  29.309  0.00  0.00    -0.000 A 
ATOM      4  C   UNL A   1     -26.358  -4.565  29.691  0.00  0.00    +0.000 A 
ATOM      5  C   UNL A   1     -25.173  -5.084  29.171  0.00  0.00    +0.000 A 
ATOM      6  C   UNL A   1     -24.135  -4.244  28.921  0.00  0.00    -0.000 A 
ENDROOT
BRANCH   3   7
ATOM      7  C   UNL A   1     -23.166  -1.980  28.969  0.00  0.00    -0.000 C 
ATOM      8  C   UNL A   1     -22.856  -0.920  29.226  0.00  0.00    -0.000 C 
BRANCH   8   9
ATOM      9  C   UNL A   1     -21.703  -0.163  28.859  0.00  0.00    -0.005 C 
ATOM     10  C   UNL A   1     -21.716   0.946  28.032  0.00  0.00    -0.026 C 
ATOM     11  C   UNL A   1     -22.937   1.327  27.466  0.00  0.00    +0.031 C 
ENDBRANCH   8   9
ENDBRANCH   3   7
TORSDOF 2
ENDMDL
ENDMDL
