REMARK  Name = outputs/IAG933/test6/raw/output_1777_IAG933_linker_design_.xyz
REMARK  16 active torsions:
REMARK  status: ('A' for Active; 'I' for Inactive)
REMARK    1  A    between atoms: C_1  and  C_2
REMARK    2  A    between atoms: C_1  and  C_8
REMARK    3  A    between atoms: C_1  and  C_40
REMARK    4  A    between atoms: C_14  and  C_15
REMARK    5  A    between atoms: C_15  and  O_18
REMARK    6  A    between atoms: O_18  and  C_31
REMARK    7  A    between atoms: C_21  and  O_22
REMARK    8  A    between atoms: O_22  and  C_23
REMARK    9  A    between atoms: C_23  and  C_24
REMARK   10  A    between atoms: C_30  and  CA_43
REMARK   11  A    between atoms: C_31  and  C_33
REMARK   12  A    between atoms: C_31  and  S_34
REMARK   13  A    between atoms: N_32  and  CA_43
REMARK   14  A    between atoms: C_33  and  CA_43
REMARK   15  A    between atoms: S_34  and  N_35
REMARK   16  A    between atoms: C_36  and  C_38
REMARK                            x       y       z     vdW  Elec       q    Type
REMARK                         _______ _______ _______ _____ _____    ______ ____
ROOT
ATOM      1  C   UNL A   1     -25.196   3.588  29.661  0.00  0.00    +0.236 C 
ENDROOT
BRANCH   1   2
ATOM      2  C   UNL A   1     -24.346   2.188  29.665  0.00  0.00    +0.090 C 
BRANCH   2   3
ATOM      3  CA  UNL A   1     -23.096   1.932  28.852  0.00  0.00    +0.202 C 
BRANCH   3   5
ATOM      4  O   UNL A   1     -22.667   2.657  26.527  0.00  0.00    -0.244 OA
ATOM      5  C   UNL A   1     -22.344   1.915  27.467  0.00  0.00    +0.384 C 
ATOM      6  OXT UNL A   1     -21.398   1.020  27.372  0.00  0.00    -0.244 OA
ENDBRANCH   3   5
BRANCH   3   8
ATOM      7  O   UNL A   1     -22.552  -0.360  30.556  0.00  0.00    -0.273 OA
ATOM      8  N   UNL A   1     -23.578   0.392  28.741  0.00  0.00    -0.195 NA
ATOM      9  C   UNL A   1     -23.558  -0.294  29.770  0.00  0.00    +0.247 C 
BRANCH   9  10
ATOM     10  C   UNL A   1     -24.855  -1.012  30.143  0.00  0.00    +0.116 C 
BRANCH  10  11
ATOM     11  C   UNL A   1     -24.973  -2.505  29.788  0.00  0.00    -0.013 C 
ATOM     12  C   UNL A   1     -23.906  -3.173  29.146  0.00  0.00    -0.004 C 
ATOM     13  C   UNL A   1     -23.989  -4.549  28.853  0.00  0.00    -0.000 C 
ATOM     14  C   UNL A   1     -25.137  -5.280  29.205  0.00  0.00    -0.000 C 
ATOM     15  C   UNL A   1     -26.232  -4.611  29.784  0.00  0.00    -0.000 C 
ATOM     16  C   UNL A   1     -26.155  -3.232  30.065  0.00  0.00    -0.004 C 
ENDBRANCH  10  11
BRANCH  10  17
ATOM     17  C   UNL A   1     -25.387  -0.679  31.571  0.00  0.00    +0.086 C 
ATOM     18  C   UNL A   1     -25.189   0.773  32.028  0.00  0.00    +0.020 C 
ATOM     19  C   UNL A   1     -25.336   0.684  33.544  0.00  0.00    +0.020 C 
ATOM     20  C   UNL A   1     -24.829  -0.715  33.905  0.00  0.00    +0.089 C 
ATOM     21  N   UNL A   1     -24.758  -1.481  32.646  0.00  0.00    -0.219 NA
ENDBRANCH  10  17
ENDBRANCH   9  10
ENDBRANCH   3   8
ENDBRANCH   2   3
ENDBRANCH   1   2
BRANCH   1  22
ATOM     22  S   UNL A   1     -25.220   4.508  31.167  0.00  0.00    +0.019 S 
BRANCH  22  23
ATOM     23  N   UNL A   1     -25.054   4.948  32.953  0.00  0.00    -0.141 NA
ATOM     24  C   UNL A   1     -24.619   6.031  33.865  0.00  0.00    +0.281 C 
ATOM     25  O   UNL A   1     -25.732   6.452  34.682  0.00  0.00    -0.270 OA
BRANCH  24  26
ATOM     26  C   UNL A   1     -23.386   6.316  33.782  0.00  0.00    +0.223 C 
ATOM     27  O   UNL A   1     -22.887   6.122  32.520  0.00  0.00    -0.342 OA
ATOM     28  C   UNL A   1     -22.093   7.141  34.546  0.00  0.00    +0.181 C 
ATOM     29  C   UNL A   1     -21.396   7.904  32.404  0.00  0.00    +0.174 C 
ATOM     30  C   UNL A   1     -22.482   7.110  31.604  0.00  0.00    +0.175 C 
ATOM     31  O   UNL A   1     -20.939   7.236  33.711  0.00  0.00    -0.348 OA
ENDBRANCH  24  26
ENDBRANCH  22  23
ENDBRANCH   1  22
BRANCH   1  32
ATOM     32  O   UNL A   1     -25.143   3.966  28.243  0.00  0.00    -0.451 OA
BRANCH  32  33
ATOM     33  C   UNL A   1     -25.642   4.093  27.123  0.00  0.00    +0.223 C 
ATOM     34  N   UNL A   1     -25.614   5.252  26.449  0.00  0.00    -0.236 NA
ATOM     35  C   UNL A   1     -25.026   6.479  26.963  0.00  0.00    +0.155 C 
BRANCH  33  37
ATOM     36  C   UNL A   1     -25.688   1.614  26.461  0.00  0.00    +0.041 C 
ATOM     37  C   UNL A   1     -26.250   2.920  26.395  0.00  0.00    +0.074 C 
ATOM     38  C   UNL A   1     -27.438   3.091  25.645  0.00  0.00    +0.107 C 
ATOM     39  N   UNL A   1     -28.075   2.089  25.003  0.00  0.00    -0.208 NA
ATOM     40  C   UNL A   1     -27.543   0.849  25.079  0.00  0.00    +0.253 C 
ATOM     41  C   UNL A   1     -26.354   0.576  25.777  0.00  0.00    +0.193 C 
ATOM     42  F   UNL A   1     -25.860  -0.681  25.795  0.00  0.00    -0.199 F 
BRANCH  40  43
ATOM     43  O   UNL A   1     -28.193  -0.208  24.477  0.00  0.00    -0.456 OA
BRANCH  43  44
ATOM     44  C   UNL A   1     -29.460   0.005  23.866  0.00  0.00    +0.243 C 
BRANCH  44  45
ATOM     45  C   UNL A   1     -30.065  -1.377  23.573  0.00  0.00    +0.229 C 
ATOM     46  O   UNL A   1     -30.729  -1.878  24.721  0.00  0.00    -0.216 OA
ENDBRANCH  44  45
ENDBRANCH  43  44
ENDBRANCH  40  43
ENDBRANCH  33  37
ENDBRANCH  32  33
ENDBRANCH   1  32
TORSDOF 16
