MODEL 1777
MODEL 1
REMARK VINA RESULT:    -7.008      0.000      0.000
REMARK INTER + INTRA:          -7.008
REMARK INTER:                  -7.008
REMARK INTRA:                   0.000
REMARK UNBOUND:                 0.000
REMARK  Name = No_1777-gen_results/8p0m/2024-11-27-11-27-31/
REMARK  0 active torsions:
REMARK  status: ('A' for Active; 'I' for Inactive)
REMARK                            x       y       z     vdW  Elec       q    Type
REMARK                         _______ _______ _______ _____ _____    ______ ____
ROOT
ATOM      1  C   UNL A   1     -26.326  -4.464  29.769  0.00  0.00    +0.003 A 
ATOM      2  C   UNL A   1     -25.780  -5.235  29.303  0.00  0.00    +0.000 A 
ATOM      3  C   UNL A   1     -25.663  -3.161  29.715  0.00  0.00    +0.042 A 
ATOM      4  C   UNL A   1     -26.277  -1.907  30.206  0.00  0.00    +0.196 C 
ATOM      5  C   UNL A   1     -24.503  -5.317  28.606  0.00  0.00    +0.000 A 
ATOM      6  C   UNL A   1     -23.841  -4.108  28.546  0.00  0.00    +0.003 A 
ATOM      7  C   UNL A   1     -24.422  -3.003  29.046  0.00  0.00    +0.042 A 
ATOM      8  C   UNL A   1     -25.392  -0.844  30.455  0.00  0.00    +0.042 A 
ATOM      9  C   UNL A   1     -25.899   0.400  30.506  0.00  0.00    +0.003 A 
ATOM     10  C   UNL A   1     -24.958   1.593  30.539  0.00  0.00    +0.000 A 
ATOM     11  C   UNL A   1     -23.576   1.322  30.616  0.00  0.00    +0.000 A 
ATOM     12  C   UNL A   1     -23.145   0.023  30.636  0.00  0.00    +0.003 A 
ATOM     13  C   UNL A   1     -24.022  -1.065  30.503  0.00  0.00    +0.042 A 
ATOM     14  C   UNL A   1     -23.610  -1.825  29.427  0.00  0.00    +0.196 C 
ATOM     15  O   UNL A   1     -22.386  -1.754  28.911  0.00  0.00    -0.287 OA
ATOM     16  O   UNL A   1     -27.472  -1.858  30.482  0.00  0.00    -0.287 OA
ENDROOT
TORSDOF 0
ENDMDL
ENDMDL
