MODEL 1778
MODEL 1
REMARK VINA RESULT:    -8.542      0.000      0.000
REMARK INTER + INTRA:         -11.730
REMARK INTER:                 -11.039
REMARK INTRA:                  -0.691
REMARK UNBOUND:                -0.691
REMARK  Name = No_1778-gen_results/8p0m/2024-11-27-11-27-31/
REMARK  5 active torsions:
REMARK  status: ('A' for Active; 'I' for Inactive)
REMARK    1  A    between atoms: C_1  and  C_2
REMARK    2  A    between atoms: C_5  and  C_14
REMARK    3  A    between atoms: C_13  and  O_17
REMARK    4  A    between atoms: N_15  and  C_24
REMARK    5  A    between atoms: O_17  and  C_18
REMARK                            x       y       z     vdW  Elec       q    Type
REMARK                         _______ _______ _______ _____ _____    ______ ____
ROOT
ATOM      1  C   UNL A   1     -23.869   0.148  27.303  0.00  0.00    +0.031 A 
ATOM      2  C   UNL A   1     -22.766   1.198  27.461  0.00  0.00    -0.019 A 
ATOM      3  C   UNL A   1     -22.689   2.055  26.638  0.00  0.00    +0.031 C 
ATOM      4  C   UNL A   1     -21.770   0.932  28.522  0.00  0.00    -0.004 A 
ATOM      5  C   UNL A   1     -21.942   0.106  29.489  0.00  0.00    +0.003 A 
ATOM      6  C   UNL A   1     -23.079  -0.680  29.457  0.00  0.00    +0.037 A 
ATOM      7  C   UNL A   1     -24.059  -0.597  28.540  0.00  0.00    +0.145 A 
ENDROOT
BRANCH   1   8
ATOM      8  C   UNL A   1     -24.877   0.470  26.717  0.00  0.00    +0.003 A 
ATOM      9  C   UNL A   1     -25.820   1.268  27.128  0.00  0.00    +0.000 A 
ATOM     10  C   UNL A   1     -27.042   1.643  26.375  0.00  0.00    +0.005 A 
ATOM     11  C   UNL A   1     -27.163   1.111  25.060  0.00  0.00    +0.055 A 
ATOM     12  C   UNL A   1     -26.143   0.317  24.601  0.00  0.00    +0.005 A 
ATOM     13  C   UNL A   1     -25.035   0.010  25.315  0.00  0.00    +0.000 A 
BRANCH  11  14
ATOM     14  C   UNL A   1     -28.280   1.408  24.191  0.00  0.00    +0.265 C 
ATOM     15  N   UNL A   1     -29.314   0.719  23.974  0.00  0.00    -0.202 NA
ATOM     16  O   UNL A   1     -28.237   2.632  23.660  0.00  0.00    -0.268 OA
BRANCH  15  17
ATOM     17  C   UNL A   1     -29.431  -0.664  24.245  0.00  0.00    +0.116 C 
ATOM     18  C   UNL A   1     -29.209  -1.602  23.375  0.00  0.00    +0.025 C 
ENDBRANCH  15  17
ENDBRANCH  11  14
ENDBRANCH   1   8
BRANCH   7  19
ATOM     19  O   UNL A   1     -25.087  -1.416  28.541  0.00  0.00    -0.454 OA
BRANCH  19  20
ATOM     20  C   UNL A   1     -25.011  -2.725  28.728  0.00  0.00    +0.145 A 
ATOM     21  C   UNL A   1     -24.031  -3.406  28.446  0.00  0.00    +0.037 A 
ATOM     22  C   UNL A   1     -24.076  -4.783  28.462  0.00  0.00    +0.003 A 
ATOM     23  C   UNL A   1     -26.054  -3.295  29.513  0.00  0.00    +0.037 A 
ATOM     24  C   UNL A   1     -26.158  -4.636  29.722  0.00  0.00    +0.003 A 
ATOM     25  C   UNL A   1     -25.133  -5.434  29.226  0.00  0.00    +0.000 A 
ENDBRANCH  19  20
ENDBRANCH   7  19
TORSDOF 5
ENDMDL
ENDMDL
