REMARK  Name = No_1778-gen_results/8p0m/2024-11-27-11-27-31/
REMARK  5 active torsions:
REMARK  status: ('A' for Active; 'I' for Inactive)
REMARK    1  A    between atoms: C_1  and  C_2
REMARK    2  A    between atoms: C_5  and  C_14
REMARK    3  A    between atoms: C_13  and  O_17
REMARK    4  A    between atoms: N_15  and  C_24
REMARK    5  A    between atoms: O_17  and  C_18
REMARK                            x       y       z     vdW  Elec       q    Type
REMARK                         _______ _______ _______ _____ _____    ______ ____
ROOT
ATOM      1  C   UNL A   1     -28.016  -0.814  28.878  0.00  0.00    +0.031 A 
ATOM      2  C   UNL A   1     -28.068  -1.448  30.271  0.00  0.00    -0.019 A 
ATOM      3  C   UNL A   1     -27.036  -1.667  30.824  0.00  0.00    +0.031 C 
ATOM      4  C   UNL A   1     -29.399  -1.912  30.719  0.00  0.00    -0.004 A 
ATOM      5  C   UNL A   1     -30.511  -1.540  30.197  0.00  0.00    +0.003 A 
ATOM      6  C   UNL A   1     -30.447  -0.759  29.059  0.00  0.00    +0.037 A 
ATOM      7  C   UNL A   1     -29.319  -0.290  28.497  0.00  0.00    +0.145 A 
ENDROOT
BRANCH   1   8
ATOM      8  C   UNL A   1     -27.064  -0.119  28.608  0.00  0.00    +0.003 A 
ATOM      9  C   UNL A   1     -26.876   1.133  28.913  0.00  0.00    +0.000 A 
ATOM     10  C   UNL A   1     -25.688   1.952  28.567  0.00  0.00    +0.005 A 
ATOM     11  C   UNL A   1     -24.639   1.283  27.875  0.00  0.00    +0.055 A 
ATOM     12  C   UNL A   1     -24.807  -0.051  27.604  0.00  0.00    +0.005 A 
ATOM     13  C   UNL A   1     -25.902  -0.767  27.951  0.00  0.00    +0.000 A 
BRANCH  11  14
ATOM     14  C   UNL A   1     -23.406   1.937  27.495  0.00  0.00    +0.265 C 
ATOM     15  N   UNL A   1     -22.220   1.570  27.715  0.00  0.00    -0.202 NA
ATOM     16  O   UNL A   1     -23.582   2.999  26.706  0.00  0.00    -0.268 OA
BRANCH  15  17
ATOM     17  C   UNL A   1     -21.837   0.634  28.704  0.00  0.00    +0.116 C 
ATOM     18  C   UNL A   1     -21.748  -0.646  28.505  0.00  0.00    +0.025 C 
ENDBRANCH  15  17
ENDBRANCH  11  14
ENDBRANCH   1   8
BRANCH   7  19
ATOM     19  O   UNL A   1     -29.332   0.404  27.380  0.00  0.00    -0.454 OA
BRANCH  19  20
ATOM     20  C   UNL A   1     -30.033   0.089  26.302  0.00  0.00    +0.145 A 
ATOM     21  C   UNL A   1     -31.248   0.228  26.205  0.00  0.00    +0.037 A 
ATOM     22  C   UNL A   1     -31.957  -0.307  25.151  0.00  0.00    +0.003 A 
ATOM     23  C   UNL A   1     -29.270  -0.205  25.136  0.00  0.00    +0.037 A 
ATOM     24  C   UNL A   1     -29.844  -0.626  23.976  0.00  0.00    +0.003 A 
ATOM     25  C   UNL A   1     -31.234  -0.655  23.934  0.00  0.00    +0.000 A 
ENDBRANCH  19  20
ENDBRANCH   7  19
TORSDOF 5
