MODEL 1779
MODEL 1
REMARK VINA RESULT:    -6.479      0.000      0.000
REMARK INTER + INTRA:          -8.431
REMARK INTER:                  -7.994
REMARK INTRA:                  -0.437
REMARK UNBOUND:                -0.437
REMARK  Name = No_1779-gen_results/8p0m/2024-11-27-11-27-31/
REMARK  4 active torsions:
REMARK  status: ('A' for Active; 'I' for Inactive)
REMARK    1  A    between atoms: C_2  and  C_7
REMARK    2  A    between atoms: C_7  and  N_8
REMARK    3  A    between atoms: N_8  and  C_9
REMARK    4  A    between atoms: C_9  and  C_10
REMARK                            x       y       z     vdW  Elec       q    Type
REMARK                         _______ _______ _______ _____ _____    ______ ____
ROOT
ATOM      1  N   UNL A   1     -25.083  -0.479  29.938  0.00  0.00    -0.264 NA
ATOM      2  C   UNL A   1     -26.192   0.234  30.622  0.00  0.00    +0.090 C 
ENDROOT
BRANCH   1   3
ATOM      3  C   UNL A   1     -23.951  -0.165  30.394  0.00  0.00    +0.099 C 
BRANCH   3   5
ATOM      4  C   UNL A   1     -21.947  -0.130  29.290  0.00  0.00    -0.003 A 
ATOM      5  C   UNL A   1     -22.902   0.315  29.293  0.00  0.00    -0.006 A 
ATOM      6  C   UNL A   1     -21.000   0.351  28.272  0.00  0.00    -0.000 A 
ATOM      7  C   UNL A   1     -21.331   1.460  27.440  0.00  0.00    -0.000 A 
ATOM      8  C   UNL A   1     -23.470   1.498  28.592  0.00  0.00    -0.003 A 
ATOM      9  C   UNL A   1     -22.624   1.967  27.631  0.00  0.00    -0.000 A 
ENDBRANCH   3   5
ENDBRANCH   1   3
BRANCH   1  10
ATOM     10  C   UNL A   1     -25.265  -1.284  29.009  0.00  0.00    +0.099 C 
BRANCH  10  11
ATOM     11  C   UNL A   1     -25.120  -2.493  29.129  0.00  0.00    -0.006 A 
ATOM     12  C   UNL A   1     -24.047  -3.299  28.504  0.00  0.00    -0.003 A 
ATOM     13  C   UNL A   1     -24.004  -4.729  28.514  0.00  0.00    -0.000 A 
ATOM     14  C   UNL A   1     -25.076  -5.406  29.161  0.00  0.00    -0.000 A 
ATOM     15  C   UNL A   1     -26.141  -4.693  29.689  0.00  0.00    -0.000 A 
ATOM     16  C   UNL A   1     -26.212  -3.373  29.613  0.00  0.00    -0.003 A 
ENDBRANCH  10  11
ENDBRANCH   1  10
TORSDOF 4
ENDMDL
ENDMDL
