REMARK  Name = outputs/IAG933/test6/raw/output_1779_IAG933_linker_design_.xyz
REMARK  11 active torsions:
REMARK  status: ('A' for Active; 'I' for Inactive)
REMARK    1  A    between atoms: C_1  and  C_2
REMARK    2  A    between atoms: C_1  and  C_8
REMARK    3  A    between atoms: C_1  and  C_32
REMARK    4  A    between atoms: C_13  and  C_36
REMARK    5  A    between atoms: C_14  and  C_15
REMARK    6  A    between atoms: C_21  and  O_22
REMARK    7  A    between atoms: O_22  and  C_23
REMARK    8  A    between atoms: C_23  and  C_24
REMARK    9  A    between atoms: C_31  and  C_39
REMARK   10  A    between atoms: C_32  and  N_35
REMARK   11  A    between atoms: C_32  and  C_38
REMARK                            x       y       z     vdW  Elec       q    Type
REMARK                         _______ _______ _______ _____ _____    ______ ____
ROOT
ATOM      1  C   UNL A   1     -25.167  -0.221  28.906  0.00  0.00    +0.158 C 
ENDROOT
BRANCH   1   5
ATOM      2  O   UNL A   1     -22.853   0.615  28.741  0.00  0.00    -0.453 OA
ATOM      3  C   UNL A   1     -23.062   2.106  26.704  0.00  0.00    +0.043 C 
ATOM      4  C   UNL A   1     -24.355   1.384  27.108  0.00  0.00    +0.038 C 
ATOM      5  C   UNL A   1     -24.120   0.549  28.253  0.00  0.00    +0.143 C 
ATOM      6  C   UNL A   1     -22.097   1.450  27.770  0.00  0.00    +0.179 C 
BRANCH   4   7
ATOM      7  C   UNL A   1     -25.688   1.614  26.461  0.00  0.00    +0.041 C 
ATOM      8  C   UNL A   1     -26.250   2.920  26.395  0.00  0.00    +0.077 C 
ATOM      9  C   UNL A   1     -27.438   3.091  25.645  0.00  0.00    +0.107 C 
ATOM     10  N   UNL A   1     -28.075   2.089  25.003  0.00  0.00    -0.208 NA
ATOM     11  C   UNL A   1     -27.543   0.849  25.079  0.00  0.00    +0.253 C 
ATOM     12  C   UNL A   1     -26.354   0.576  25.777  0.00  0.00    +0.193 C 
ATOM     13  F   UNL A   1     -25.860  -0.681  25.795  0.00  0.00    -0.199 F 
BRANCH   8  14
ATOM     14  C   UNL A   1     -25.642   4.093  27.123  0.00  0.00    +0.266 C 
ATOM     15  N   UNL A   1     -25.614   5.252  26.449  0.00  0.00    -0.200 NA
ATOM     16  C   UNL A   1     -25.026   6.479  26.963  0.00  0.00    +0.139 C 
ATOM     17  O   UNL A   1     -25.143   3.966  28.243  0.00  0.00    -0.268 OA
ENDBRANCH   8  14
BRANCH  11  18
ATOM     18  O   UNL A   1     -28.193  -0.208  24.477  0.00  0.00    -0.456 OA
BRANCH  18  19
ATOM     19  C   UNL A   1     -29.460   0.005  23.866  0.00  0.00    +0.243 C 
BRANCH  19  20
ATOM     20  C   UNL A   1     -30.065  -1.377  23.573  0.00  0.00    +0.229 C 
ATOM     21  O   UNL A   1     -30.729  -1.878  24.721  0.00  0.00    -0.216 OA
ENDBRANCH  19  20
ENDBRANCH  18  19
ENDBRANCH  11  18
ENDBRANCH   4   7
ENDBRANCH   1   5
BRANCH   1  23
ATOM     22  C   UNL A   1     -27.543  -0.154  28.761  0.00  0.00    +0.268 C 
ATOM     23  N   UNL A   1     -26.386   0.313  28.529  0.00  0.00    -0.195 NA
ATOM     24  O   UNL A   1     -27.847  -1.360  28.836  0.00  0.00    -0.268 OA
BRANCH  22  29
ATOM     25  C   UNL A   1     -30.707   2.631  28.590  0.00  0.00    +0.003 C 
ATOM     26  C   UNL A   1     -28.418   2.095  29.263  0.00  0.00    +0.200 C 
ATOM     27  C   UNL A   1     -31.025   1.280  28.400  0.00  0.00    +0.000 C 
ATOM     28  C   UNL A   1     -30.051   0.283  28.495  0.00  0.00    +0.008 C 
ATOM     29  C   UNL A   1     -28.609   0.753  28.767  0.00  0.00    +0.094 C 
ATOM     30  C   UNL A   1     -29.476   3.003  29.118  0.00  0.00    +0.042 C 
ATOM     31  O   UNL A   1     -27.313   2.420  29.901  0.00  0.00    -0.286 OA
ENDBRANCH  22  29
ENDBRANCH   1  23
BRANCH   1  32
ATOM     32  C   UNL A   1     -24.855  -1.012  30.143  0.00  0.00    +0.066 C 
BRANCH  32  33
ATOM     33  C   UNL A   1     -24.973  -2.505  29.788  0.00  0.00    -0.019 C 
ATOM     34  C   UNL A   1     -23.906  -3.173  29.146  0.00  0.00    -0.004 C 
ATOM     35  C   UNL A   1     -23.989  -4.549  28.853  0.00  0.00    -0.000 C 
ATOM     36  C   UNL A   1     -25.137  -5.280  29.205  0.00  0.00    -0.000 C 
ATOM     37  C   UNL A   1     -26.232  -4.611  29.784  0.00  0.00    -0.000 C 
ATOM     38  C   UNL A   1     -26.155  -3.232  30.065  0.00  0.00    -0.004 C 
ENDBRANCH  32  33
BRANCH  32  39
ATOM     39  C   UNL A   1     -25.387  -0.679  31.571  0.00  0.00    +0.079 C 
ATOM     40  C   UNL A   1     -25.189   0.773  32.028  0.00  0.00    +0.019 C 
ATOM     41  C   UNL A   1     -25.336   0.684  33.544  0.00  0.00    +0.020 C 
ATOM     42  C   UNL A   1     -24.829  -0.715  33.905  0.00  0.00    +0.089 C 
ATOM     43  N   UNL A   1     -24.758  -1.481  32.646  0.00  0.00    -0.219 NA
ENDBRANCH  32  39
ENDBRANCH   1  32
TORSDOF 11
