MODEL 177
MODEL 1
REMARK VINA RESULT:    -5.293      0.000      0.000
REMARK INTER + INTRA:          -5.745
REMARK INTER:                  -5.602
REMARK INTRA:                  -0.143
REMARK UNBOUND:                -0.143
REMARK  Name = No_177-gen_results/8p0m/2024-11-27-11-27-31/
REMARK  1 active torsions:
REMARK  status: ('A' for Active; 'I' for Inactive)
REMARK    1  A    between atoms: C_4  and  C_7
REMARK                            x       y       z     vdW  Elec       q    Type
REMARK                         _______ _______ _______ _____ _____    ______ ____
ROOT
ATOM      1  C   UNL A   1     -26.598  -3.953  29.844  0.00  0.00    -0.000 A 
ATOM      2  C   UNL A   1     -26.131  -4.873  29.631  0.00  0.00    -0.000 A 
ATOM      3  C   UNL A   1     -25.802  -2.739  29.603  0.00  0.00    -0.000 A 
ATOM      4  C   UNL A   1     -24.523  -2.823  28.980  0.00  0.00    -0.000 A 
ATOM      5  C   UNL A   1     -24.070  -4.089  28.704  0.00  0.00    -0.000 A 
ATOM      6  C   UNL A   1     -24.833  -5.170  28.970  0.00  0.00    -0.000 A 
ENDROOT
BRANCH   4   7
ATOM      7  C   UNL A   1     -23.737  -1.645  28.719  0.00  0.00    -0.005 C 
ATOM      8  C   UNL A   1     -22.739  -1.256  29.413  0.00  0.00    -0.026 C 
ATOM      9  C   UNL A   1     -21.841  -0.171  28.997  0.00  0.00    +0.031 C 
ENDBRANCH   4   7
TORSDOF 1
ENDMDL
ENDMDL
