REMARK  Name = outputs/IAG933/test6/raw/output_1780_IAG933_linker_design_.xyz
REMARK  10 active torsions:
REMARK  status: ('A' for Active; 'I' for Inactive)
REMARK    1  A    between atoms: C_1  and  C_2
REMARK    2  A    between atoms: C_1  and  C_8
REMARK    3  A    between atoms: C_1  and  C_40
REMARK    4  A    between atoms: C_13  and  C_30
REMARK    5  A    between atoms: C_14  and  C_15
REMARK    6  A    between atoms: C_21  and  O_22
REMARK    7  A    between atoms: O_22  and  C_23
REMARK    8  A    between atoms: C_23  and  C_24
REMARK    9  A    between atoms: N_32  and  C_37
REMARK   10  A    between atoms: C_35  and  C_40
REMARK                            x       y       z     vdW  Elec       q    Type
REMARK                         _______ _______ _______ _____ _____    ______ ____
ROOT
ATOM      1  C   UNL A   1     -24.509   1.229  27.173  0.00  0.00    +0.015 C 
ATOM      2 CL   UNL A   1     -22.702   2.285  25.312  0.00  0.00    -0.080 Cl
ATOM      3  F   UNL A   1     -21.076   1.563  27.815  0.00  0.00    -0.203 F 
ATOM      4  C   UNL A   1     -24.418   0.460  28.362  0.00  0.00    +0.004 C 
ATOM      5  C   UNL A   1     -23.244   1.560  26.813  0.00  0.00    +0.085 C 
ATOM      6  C   UNL A   1     -22.372   1.222  27.800  0.00  0.00    +0.151 C 
ATOM      7  C   UNL A   1     -23.019   0.464  28.742  0.00  0.00    +0.030 C 
ATOM      8  C   UNL A   1     -25.497  -0.225  29.095  0.00  0.00    +0.038 C 
ENDROOT
BRANCH   1   9
ATOM      9  C   UNL A   1     -25.688   1.614  26.461  0.00  0.00    +0.039 C 
ATOM     10  C   UNL A   1     -26.250   2.920  26.395  0.00  0.00    +0.077 C 
ATOM     11  C   UNL A   1     -27.438   3.091  25.645  0.00  0.00    +0.107 C 
ATOM     12  N   UNL A   1     -28.075   2.089  25.003  0.00  0.00    -0.208 NA
ATOM     13  C   UNL A   1     -27.543   0.849  25.079  0.00  0.00    +0.253 C 
ATOM     14  C   UNL A   1     -26.354   0.576  25.777  0.00  0.00    +0.193 C 
ATOM     15  F   UNL A   1     -25.860  -0.681  25.795  0.00  0.00    -0.199 F 
BRANCH  10  16
ATOM     16  C   UNL A   1     -25.642   4.093  27.123  0.00  0.00    +0.266 C 
ATOM     17  N   UNL A   1     -25.614   5.252  26.449  0.00  0.00    -0.200 NA
ATOM     18  C   UNL A   1     -25.026   6.479  26.963  0.00  0.00    +0.139 C 
ATOM     19  O   UNL A   1     -25.143   3.966  28.243  0.00  0.00    -0.268 OA
ENDBRANCH  10  16
BRANCH  13  20
ATOM     20  O   UNL A   1     -28.193  -0.208  24.477  0.00  0.00    -0.456 OA
BRANCH  20  21
ATOM     21  C   UNL A   1     -29.460   0.005  23.866  0.00  0.00    +0.243 C 
BRANCH  21  22
ATOM     22  C   UNL A   1     -30.065  -1.377  23.573  0.00  0.00    +0.229 C 
ATOM     23  O   UNL A   1     -30.729  -1.878  24.721  0.00  0.00    -0.216 OA
ENDBRANCH  21  22
ENDBRANCH  20  21
ENDBRANCH  13  20
ENDBRANCH   1   9
BRANCH   8  26
ATOM     24  O   UNL A   1     -27.690  -1.273  28.826  0.00  0.00    -0.269 OA
ATOM     25  N   UNL A   1     -27.654   0.919  29.168  0.00  0.00    -0.205 NA
ATOM     26  C   UNL A   1     -27.014  -0.242  28.988  0.00  0.00    +0.261 C 
BRANCH  25  28
ATOM     27  C   UNL A   1     -29.535   2.481  29.650  0.00  0.00    +0.022 C 
ATOM     28  C   UNL A   1     -29.108   1.077  29.184  0.00  0.00    +0.079 C 
ATOM     29  C   UNL A   1     -29.779   0.262  30.247  0.00  0.00    +0.022 C 
ATOM     30  C   UNL A   1     -29.656   0.709  27.803  0.00  0.00    +0.022 C 
ENDBRANCH  25  28
ENDBRANCH   8  26
BRANCH   8  31
ATOM     31  C   UNL A   1     -24.855  -1.012  30.143  0.00  0.00    +0.065 C 
BRANCH  31  32
ATOM     32  C   UNL A   1     -24.973  -2.505  29.788  0.00  0.00    -0.017 C 
ATOM     33  C   UNL A   1     -23.906  -3.173  29.146  0.00  0.00    -0.004 C 
ATOM     34  C   UNL A   1     -23.989  -4.549  28.853  0.00  0.00    -0.000 C 
ATOM     35  C   UNL A   1     -25.137  -5.280  29.205  0.00  0.00    -0.000 C 
ATOM     36  C   UNL A   1     -26.232  -4.611  29.784  0.00  0.00    -0.000 C 
ATOM     37  C   UNL A   1     -26.155  -3.232  30.065  0.00  0.00    -0.004 C 
ENDBRANCH  31  32
BRANCH  31  38
ATOM     38  C   UNL A   1     -25.387  -0.679  31.571  0.00  0.00    +0.081 C 
ATOM     39  C   UNL A   1     -25.189   0.773  32.028  0.00  0.00    +0.019 C 
ATOM     40  C   UNL A   1     -25.336   0.684  33.544  0.00  0.00    +0.020 C 
ATOM     41  C   UNL A   1     -24.829  -0.715  33.905  0.00  0.00    +0.089 C 
ATOM     42  N   UNL A   1     -24.758  -1.481  32.646  0.00  0.00    -0.219 NA
ENDBRANCH  31  38
ENDBRANCH   8  31
TORSDOF 10
