MODEL 1781
MODEL 1
REMARK VINA RESULT:    -6.247      0.000      0.000
REMARK INTER + INTRA:          -7.650
REMARK INTER:                  -7.708
REMARK INTRA:                   0.058
REMARK UNBOUND:                 0.058
REMARK  Name = No_1781-gen_results/8p0m/2024-11-27-11-27-31/
REMARK  4 active torsions:
REMARK  status: ('A' for Active; 'I' for Inactive)
REMARK    1  A    between atoms: C_7  and  C_8
REMARK    2  A    between atoms: C_12  and  C_14
REMARK    3  A    between atoms: N_17  and  C_20
REMARK    4  A    between atoms: C_21  and  C_22
REMARK                            x       y       z     vdW  Elec       q    Type
REMARK                         _______ _______ _______ _____ _____    ______ ____
ROOT
ATOM      1  C   UNL A   1     -21.632   1.169  27.833  0.00  0.00    +0.015 A 
ATOM      2  C   UNL A   1     -21.597   1.850  27.029  0.00  0.00    +0.001 A 
ATOM      3  C   UNL A   1     -22.967   0.495  28.056  0.00  0.00    +0.048 A 
ATOM      4  C   UNL A   1     -24.007   0.696  27.124  0.00  0.00    -0.009 A 
ATOM      5  C   UNL A   1     -22.502   2.209  25.914  0.00  0.00    -0.000 A 
ATOM      6  C   UNL A   1     -23.739   1.602  26.081  0.00  0.00    -0.003 A 
ATOM      7  C   UNL A   1     -25.290   0.102  27.292  0.00  0.00    +0.022 C 
ATOM      8  N   UNL A   1     -23.177  -0.325  29.113  0.00  0.00    -0.286 N 
ATOM      9  C   UNL A   1     -25.151  -1.403  27.549  0.00  0.00    +0.026 C 
ATOM     10  C   UNL A   1     -24.266  -1.448  28.776  0.00  0.00    +0.096 C 
ATOM     11  C   UNL A   1     -25.992  -0.038  25.784  0.00  0.00    +0.004 C 
ENDROOT
BRANCH   7  12
ATOM     12  C   UNL A   1     -26.091   0.679  28.321  0.00  0.00    +0.004 C 
ATOM     13  C   UNL A   1     -25.611   1.566  29.237  0.00  0.00    +0.000 C 
ATOM     14  C   UNL A   1     -26.293   2.783  29.532  0.00  0.00    +0.001 C 
ATOM     15  C   UNL A   1     -27.283   3.157  28.652  0.00  0.00    +0.011 C 
ATOM     16  C   UNL A   1     -28.032   2.208  27.936  0.00  0.00    +0.103 C 
ATOM     17  C   UNL A   1     -27.272   1.264  27.395  0.00  0.00    +0.011 C 
ATOM     18  C   UNL A   1     -26.911  -0.503  29.082  0.00  0.00    +0.000 C 
BRANCH  16  19
ATOM     19  C   UNL A   1     -29.314   2.571  27.374  0.00  0.00    +0.364 C 
ATOM     20  O   UNL A   1     -29.856   3.596  27.705  0.00  0.00    -0.246 OA
ATOM     21  O   UNL A   1     -29.828   1.795  26.534  0.00  0.00    -0.246 OA
ENDBRANCH  16  19
ENDBRANCH   7  12
BRANCH   8  22
ATOM     22  C   UNL A   1     -22.700  -0.399  30.316  0.00  0.00    +0.065 C 
ATOM     23  C   UNL A   1     -23.507  -0.974  31.327  0.00  0.00    +0.016 C 
BRANCH  23  24
ATOM     24  C   UNL A   1     -22.998  -1.170  32.613  0.00  0.00    +0.001 C 
ATOM     25  C   UNL A   1     -23.977  -1.133  33.591  0.00  0.00    +0.000 C 
ENDBRANCH  23  24
ENDBRANCH   8  22
TORSDOF 4
ENDMDL
ENDMDL
