REMARK  Name = outputs/IAG933/test6/raw/output_1781_IAG933_linker_design_.xyz
REMARK  12 active torsions:
REMARK  status: ('A' for Active; 'I' for Inactive)
REMARK    1  A    between atoms: C_1  and  C_2
REMARK    2  A    between atoms: C_1  and  C_8
REMARK    3  A    between atoms: C_1  and  C_45
REMARK    4  A    between atoms: C_13  and  N_33
REMARK    5  A    between atoms: C_14  and  C_15
REMARK    6  A    between atoms: C_21  and  O_22
REMARK    7  A    between atoms: O_22  and  C_23
REMARK    8  A    between atoms: C_23  and  C_24
REMARK    9  A    between atoms: C_28  and  C_39
REMARK   10  A    between atoms: N_31  and  C_34
REMARK   11  A    between atoms: N_31  and  C_45
REMARK   12  A    between atoms: C_42  and  C_45
REMARK                            x       y       z     vdW  Elec       q    Type
REMARK                         _______ _______ _______ _____ _____    ______ ____
ROOT
ATOM      1  C   UNL A   1     -25.319   0.032  29.031  0.00  0.00    +0.096 C 
ENDROOT
BRANCH   1   6
ATOM      2  C   UNL A   1     -21.975   1.497  27.237  0.00  0.00    +0.023 C 
ATOM      3  N   UNL A   1     -24.450   1.410  26.910  0.00  0.00    -0.306 N 
ATOM      4  C   UNL A   1     -22.362   0.354  28.146  0.00  0.00    +0.023 C 
ATOM      5  C   UNL A   1     -23.150   1.795  26.280  0.00  0.00    +0.091 C 
ATOM      6  C   UNL A   1     -23.946   0.443  28.232  0.00  0.00    +0.089 C 
BRANCH   3   7
ATOM      7  C   UNL A   1     -25.688   1.614  26.461  0.00  0.00    +0.086 C 
ATOM      8  C   UNL A   1     -26.250   2.920  26.395  0.00  0.00    +0.090 C 
ATOM      9  C   UNL A   1     -27.438   3.091  25.645  0.00  0.00    +0.108 C 
ATOM     10  N   UNL A   1     -28.075   2.089  25.003  0.00  0.00    -0.208 NA
ATOM     11  C   UNL A   1     -27.543   0.849  25.079  0.00  0.00    +0.255 C 
ATOM     12  C   UNL A   1     -26.354   0.576  25.777  0.00  0.00    +0.206 C 
ATOM     13  F   UNL A   1     -25.860  -0.681  25.795  0.00  0.00    -0.198 F 
BRANCH   8  14
ATOM     14  C   UNL A   1     -25.642   4.093  27.123  0.00  0.00    +0.268 C 
ATOM     15  N   UNL A   1     -25.614   5.252  26.449  0.00  0.00    -0.200 NA
ATOM     16  C   UNL A   1     -25.026   6.479  26.963  0.00  0.00    +0.139 C 
ATOM     17  O   UNL A   1     -25.143   3.966  28.243  0.00  0.00    -0.268 OA
ENDBRANCH   8  14
BRANCH  11  18
ATOM     18  O   UNL A   1     -28.193  -0.208  24.477  0.00  0.00    -0.456 OA
BRANCH  18  19
ATOM     19  C   UNL A   1     -29.460   0.005  23.866  0.00  0.00    +0.243 C 
BRANCH  19  20
ATOM     20  C   UNL A   1     -30.065  -1.377  23.573  0.00  0.00    +0.229 C 
ATOM     21  O   UNL A   1     -30.729  -1.878  24.721  0.00  0.00    -0.216 OA
ENDBRANCH  19  20
ENDBRANCH  18  19
ENDBRANCH  11  18
ENDBRANCH   3   7
ENDBRANCH   1   6
BRANCH   1  22
ATOM     22  C   UNL A   1     -24.855  -1.012  30.143  0.00  0.00    +0.056 C 
BRANCH  22  23
ATOM     23  C   UNL A   1     -24.973  -2.505  29.788  0.00  0.00    -0.020 C 
ATOM     24  C   UNL A   1     -23.906  -3.173  29.146  0.00  0.00    -0.004 C 
ATOM     25  C   UNL A   1     -23.989  -4.549  28.853  0.00  0.00    -0.000 C 
ATOM     26  C   UNL A   1     -25.137  -5.280  29.205  0.00  0.00    -0.000 C 
ATOM     27  C   UNL A   1     -26.232  -4.611  29.784  0.00  0.00    -0.000 C 
ATOM     28  C   UNL A   1     -26.155  -3.232  30.065  0.00  0.00    -0.004 C 
ENDBRANCH  22  23
BRANCH  22  29
ATOM     29  C   UNL A   1     -25.387  -0.679  31.571  0.00  0.00    +0.078 C 
ATOM     30  C   UNL A   1     -25.189   0.773  32.028  0.00  0.00    +0.019 C 
ATOM     31  C   UNL A   1     -25.336   0.684  33.544  0.00  0.00    +0.020 C 
ATOM     32  C   UNL A   1     -24.829  -0.715  33.905  0.00  0.00    +0.089 C 
ATOM     33  N   UNL A   1     -24.758  -1.481  32.646  0.00  0.00    -0.219 NA
ENDBRANCH  22  29
ENDBRANCH   1  22
BRANCH   1  34
ATOM     34  N   UNL A   1     -26.766  -0.521  28.477  0.00  0.00    -0.214 NA
BRANCH  34  37
ATOM     35  C   UNL A   1     -28.875  -1.181  30.259  0.00  0.00    +0.161 C 
ATOM     36  O   UNL A   1     -29.913  -0.592  28.052  0.00  0.00    -0.352 OA
ATOM     37  C   UNL A   1     -28.032  -0.281  29.500  0.00  0.00    +0.132 C 
ATOM     38  C   UNL A   1     -30.071  -1.297  30.794  0.00  0.00    +0.155 C 
ATOM     39  O   UNL A   1     -29.680  -2.575  30.417  0.00  0.00    -0.352 OA
ATOM     40  C   UNL A   1     -29.029   0.389  28.613  0.00  0.00    +0.162 C 
ATOM     41  C   UNL A   1     -31.399  -0.963  30.028  0.00  0.00    +0.139 C 
ATOM     42  C   UNL A   1     -31.276  -0.373  28.558  0.00  0.00    +0.154 C 
BRANCH  41  43
ATOM     43  C   UNL A   1     -32.326  -0.026  30.919  0.00  0.00    +0.265 C 
ATOM     44  N   UNL A   1     -32.217  -0.024  32.269  0.00  0.00    -0.088 NA
ATOM     45  O   UNL A   1     -33.039   0.810  30.338  0.00  0.00    -0.272 OA
ENDBRANCH  41  43
ENDBRANCH  34  37
ENDBRANCH   1  34
TORSDOF 12
