MODEL 1782
MODEL 1
REMARK VINA RESULT:    -6.808      0.000      0.000
REMARK INTER + INTRA:          -9.807
REMARK INTER:                  -8.798
REMARK INTRA:                  -1.009
REMARK UNBOUND:                -1.009
REMARK  Name = No_1782-gen_results/8p0m/2024-11-27-11-27-31/
REMARK  5 active torsions:
REMARK  status: ('A' for Active; 'I' for Inactive)
REMARK    1  A    between atoms: C_3  and  C_22
REMARK    2  A    between atoms: C_5  and  C_6
REMARK    3  A    between atoms: C_7  and  C_21
REMARK    4  A    between atoms: CA_11  and  C_12
REMARK    5  A    between atoms: C_21  and  C_27
REMARK                            x       y       z     vdW  Elec       q    Type
REMARK                         _______ _______ _______ _____ _____    ______ ____
ROOT
ATOM      1  N   UNL A   1     -25.545   0.742  29.794  0.00  0.00    -0.237 NA
ATOM      2  C   UNL A   1     -25.357  -0.464  29.624  0.00  0.00    +0.104 C 
ATOM      3  C   UNL A   1     -26.318  -1.387  29.769  0.00  0.00    +0.099 C 
ATOM      4  C   UNL A   1     -26.152  -2.823  29.625  0.00  0.00    +0.020 C 
ATOM      5  C   UNL A   1     -24.854  -3.299  29.338  0.00  0.00    +0.083 C 
ATOM      6  C   UNL A   1     -23.963  -0.967  29.360  0.00  0.00    +0.059 C 
ATOM      7  C   UNL A   1     -23.722  -2.369  29.209  0.00  0.00    +0.015 C 
ATOM      8  C   UNL A   1     -25.497   1.510  28.605  0.00  0.00    +0.085 A 
ATOM      9  CA  UNL A   1     -25.506   2.945  28.812  0.00  0.00    +0.175 A 
ATOM     10  N   UNL A   1     -24.505   3.503  27.859  0.00  0.00    -0.236 NA
ATOM     11  C   UNL A   1     -24.123   3.016  26.859  0.00  0.00    +0.099 A 
ATOM     12  C   UNL A   1     -23.929   1.564  26.901  0.00  0.00    +0.018 A 
ATOM     13  C   UNL A   1     -24.220   0.926  27.830  0.00  0.00    -0.004 A 
ATOM     14  C   UNL A   1     -23.618  -0.240  27.881  0.00  0.00    +0.033 C 
ENDROOT
BRANCH   3  15
ATOM     15  C   UNL A   1     -27.717  -1.033  30.085  0.00  0.00    +0.243 C 
ATOM     16  N   UNL A   1     -28.236  -1.144  31.142  0.00  0.00    -0.203 NA
ATOM     17  O   UNL A   1     -28.462  -0.777  29.088  0.00  0.00    -0.273 OA
ATOM     18  C   UNL A   1     -29.549  -0.671  31.518  0.00  0.00    +0.139 C 
ENDBRANCH   3  15
BRANCH   5  19
ATOM     19  C   UNL A   1     -24.525  -4.671  29.191  0.00  0.00    +0.273 C 
ATOM     20  N   UNL A   1     -23.699  -5.000  28.122  0.00  0.00    -0.107 NA
ATOM     21  O   UNL A   1     -25.246  -5.627  29.571  0.00  0.00    -0.269 OA
ENDBRANCH   5  19
BRANCH   9  22
ATOM     22  C   UNL A   1     -26.852   3.538  28.741  0.00  0.00    +0.406 C 
ATOM     23  O   UNL A   1     -26.988   4.557  29.091  0.00  0.00    -0.239 OA
ATOM     24  OXT UNL A   1     -27.778   2.847  28.163  0.00  0.00    -0.239 OA
ENDBRANCH   9  22
BRANCH   6  25
ATOM     25  C   UNL A   1     -23.053  -0.455  30.494  0.00  0.00    +0.205 C 
ATOM     26  F   UNL A   1     -22.170   0.199  30.049  0.00  0.00    -0.231 F 
BRANCH  25  27
ATOM     27  C   UNL A   1     -23.275  -0.776  31.771  0.00  0.00    +0.131 C 
ATOM     28  N   UNL A   1     -22.743  -1.324  32.622  0.00  0.00    -0.148 NA
ENDBRANCH  25  27
ENDBRANCH   6  25
TORSDOF 5
ENDMDL
ENDMDL
