MODEL 1783
MODEL 1
REMARK VINA RESULT:    -7.558      0.000      0.000
REMARK INTER + INTRA:         -14.600
REMARK INTER:                 -11.093
REMARK INTRA:                  -3.506
REMARK UNBOUND:                -3.506
REMARK  Name = No_1783-gen_results/8p0m/2024-11-27-11-27-31/
REMARK  8 active torsions:
REMARK  status: ('A' for Active; 'I' for Inactive)
REMARK    1  A    between atoms: C_2  and  C_3
REMARK    2  A    between atoms: N_4  and  C_10
REMARK    3  A    between atoms: N_4  and  C_21
REMARK    4  A    between atoms: C_8  and  C_11
REMARK    5  A    between atoms: C_11  and  C_13
REMARK    6  A    between atoms: C_21  and  C_22
REMARK    7  A    between atoms: C_21  and  C_29
REMARK    8  A    between atoms: C_22  and  C_23
REMARK                            x       y       z     vdW  Elec       q    Type
REMARK                         _______ _______ _______ _____ _____    ______ ____
ROOT
ATOM      1  O   UNL A   1     -24.070   2.079  30.702  0.00  0.00    -0.270 OA
ATOM      2  C   UNL A   1     -24.685   1.228  30.226  0.00  0.00    +0.253 C 
ATOM      3  N   UNL A   1     -24.232   0.453  29.056  0.00  0.00    -0.253 N 
ENDROOT
BRANCH   2   4
ATOM      4  C   UNL A   1     -25.849   0.767  30.808  0.00  0.00    +0.060 A 
ATOM      5  C   UNL A   1     -25.876  -0.043  31.972  0.00  0.00    +0.039 A 
ATOM      6  C   UNL A   1     -27.106  -0.505  32.507  0.00  0.00    +0.007 A 
ATOM      7  C   UNL A   1     -28.295   0.112  32.135  0.00  0.00    +0.000 A 
ATOM      8  C   UNL A   1     -28.245   1.106  31.167  0.00  0.00    -0.001 A 
ATOM      9  C   UNL A   1     -27.109   1.458  30.504  0.00  0.00    +0.005 A 
ATOM     10 BR   UNL A   1     -24.330  -1.008  32.365  0.00  0.00    -0.049 Br
BRANCH   8  11
ATOM     11  C   UNL A   1     -29.494   1.881  30.869  0.00  0.00    +0.013 C 
ATOM     12  C   UNL A   1     -29.660   2.394  29.669  0.00  0.00    -0.002 C 
BRANCH  11  13
ATOM     13  C   UNL A   1     -30.347   2.255  31.983  0.00  0.00    +0.205 C 
ATOM     14  N   UNL A   1     -31.619   1.746  31.898  0.00  0.00    -0.107 NA
ATOM     15  N   UNL A   1     -30.132   3.248  32.802  0.00  0.00    -0.107 NA
ENDBRANCH  11  13
ENDBRANCH   8  11
ENDBRANCH   2   4
BRANCH   3  16
ATOM     16  C   UNL A   1     -22.978   0.847  28.462  0.00  0.00    +0.054 A 
ATOM     17  C   UNL A   1     -22.926   1.609  27.736  0.00  0.00    +0.015 A 
ATOM     18  C   UNL A   1     -21.649   1.970  26.998  0.00  0.00    +0.001 A 
ATOM     19  C   UNL A   1     -20.500   1.256  27.368  0.00  0.00    +0.000 A 
ATOM     20  C   UNL A   1     -20.619   0.268  28.367  0.00  0.00    +0.001 A 
ATOM     21  C   UNL A   1     -21.845  -0.034  28.904  0.00  0.00    +0.015 A 
ENDBRANCH   3  16
BRANCH   3  22
ATOM     22  C   UNL A   1     -24.985  -0.514  28.367  0.00  0.00    +0.107 C 
BRANCH  22  23
ATOM     23  C   UNL A   1     -25.899  -0.046  27.350  0.00  0.00    -0.004 A 
ATOM     24  C   UNL A   1     -27.006   0.506  27.331  0.00  0.00    -0.003 A 
ATOM     25  C   UNL A   1     -27.813   0.753  26.314  0.00  0.00    -0.000 A 
ATOM     26  C   UNL A   1     -25.342  -0.332  25.970  0.00  0.00    -0.003 A 
ATOM     27  C   UNL A   1     -26.063  -0.067  24.798  0.00  0.00    -0.000 A 
ATOM     28  C   UNL A   1     -27.322   0.491  24.952  0.00  0.00    -0.000 A 
ENDBRANCH  22  23
BRANCH  22  29
ATOM     29  C   UNL A   1     -24.646  -1.857  28.534  0.00  0.00    +0.051 C 
BRANCH  29  30
ATOM     30  C   UNL A   1     -24.858  -2.714  29.127  0.00  0.00    -0.020 A 
ATOM     31  C   UNL A   1     -26.187  -3.106  29.582  0.00  0.00    -0.004 A 
ATOM     32  C   UNL A   1     -26.412  -4.364  29.882  0.00  0.00    -0.000 A 
ATOM     33  C   UNL A   1     -25.675  -5.162  29.477  0.00  0.00    -0.000 A 
ATOM     34  C   UNL A   1     -24.448  -5.023  28.781  0.00  0.00    -0.000 A 
ATOM     35  C   UNL A   1     -24.087  -3.899  28.697  0.00  0.00    -0.004 A 
ENDBRANCH  29  30
ENDBRANCH  22  29
ENDBRANCH   3  22
TORSDOF 8
ENDMDL
ENDMDL
