MODEL 1784
MODEL 1
REMARK VINA RESULT:    -5.080      0.000      0.000
REMARK INTER + INTRA:          -5.080
REMARK INTER:                  -5.080
REMARK INTRA:                   0.000
REMARK UNBOUND:                 0.000
REMARK  Name = No_1784-gen_results/8p0m/2024-11-27-11-27-31/
REMARK  0 active torsions:
REMARK  status: ('A' for Active; 'I' for Inactive)
REMARK                            x       y       z     vdW  Elec       q    Type
REMARK                         _______ _______ _______ _____ _____    ______ ____
ROOT
ATOM      1  C   UNL A   1      -9.953 -10.150  17.965  0.00  0.00    +0.089 A 
ATOM      2  C   UNL A   1      -8.855 -10.642  18.085  0.00  0.00    +0.018 A 
ATOM      3  C   UNL A   1      -8.005 -10.368  19.138  0.00  0.00    +0.001 A 
ATOM      4  C   UNL A   1      -8.467  -9.488  20.157  0.00  0.00    +0.000 A 
ATOM      5  C   UNL A   1      -9.760  -9.100  20.066  0.00  0.00    +0.001 A 
ATOM      6  C   UNL A   1     -10.515  -9.444  19.040  0.00  0.00    +0.018 A 
ATOM      7  N   UNL A   1     -10.937 -10.414  17.007  0.00  0.00    -0.128 NA
ENDROOT
TORSDOF 0
ENDMDL
ENDMDL
