MODEL 1785
MODEL 1
REMARK VINA RESULT:    -8.521      0.000      0.000
REMARK INTER + INTRA:         -15.553
REMARK INTER:                 -13.004
REMARK INTRA:                  -2.549
REMARK UNBOUND:                -2.549
REMARK  Name = No_1785-gen_results/8p0m/2024-11-27-11-27-31/
REMARK  9 active torsions:
REMARK  status: ('A' for Active; 'I' for Inactive)
REMARK    1  A    between atoms: C_2  and  C_11
REMARK    2  A    between atoms: C_3  and  C_7
REMARK    3  A    between atoms: C_6  and  C_14
REMARK    4  A    between atoms: C_17  and  C_20
REMARK    5  A    between atoms: C_20  and  O_22
REMARK    6  A    between atoms: O_22  and  C_23
REMARK    7  A    between atoms: C_24  and  C_25
REMARK    8  A    between atoms: C_27  and  C_34
REMARK    9  A    between atoms: C_29  and  C_31
REMARK                            x       y       z     vdW  Elec       q    Type
REMARK                         _______ _______ _______ _____ _____    ______ ____
ROOT
ATOM      1  C   UNL A   1     -26.330   1.599  25.520  0.00  0.00    +0.000 A 
ATOM      2  C   UNL A   1     -25.779   2.447  25.719  0.00  0.00    +0.000 A 
ATOM      3  C   UNL A   1     -24.454   2.566  26.465  0.00  0.00    +0.006 A 
ATOM      4  C   UNL A   1     -23.913   1.379  26.955  0.00  0.00    +0.076 A 
ATOM      5  C   UNL A   1     -24.642   0.185  26.724  0.00  0.00    +0.006 A 
ATOM      6  C   UNL A   1     -25.834   0.209  26.070  0.00  0.00    +0.000 A 
ENDROOT
BRANCH   1  12
ATOM      7  C   UNL A   1     -30.034   1.043  23.554  0.00  0.00    +0.010 A 
ATOM      8  C   UNL A   1     -29.719   1.991  23.887  0.00  0.00    +0.080 A 
ATOM      9  C   UNL A   1     -29.180  -0.057  23.792  0.00  0.00    +0.072 A 
ATOM     10  C   UNL A   1     -27.962   0.088  24.426  0.00  0.00    +0.004 A 
ATOM     11  C   UNL A   1     -28.487   2.414  24.583  0.00  0.00    +0.007 A 
ATOM     12  C   UNL A   1     -27.640   1.390  24.829  0.00  0.00    +0.000 A 
BRANCH   9  13
ATOM     13  C   UNL A   1     -29.530  -1.468  23.413  0.00  0.00    +0.419 C 
ATOM     14  F   UNL A   1     -30.076  -1.572  22.538  0.00  0.00    -0.166 F 
ATOM     15  F   UNL A   1     -30.222  -2.153  24.438  0.00  0.00    -0.166 F 
ATOM     16  F   UNL A   1     -28.287  -2.209  23.395  0.00  0.00    -0.166 F 
ENDBRANCH   9  13
BRANCH   8  17
ATOM     17  C   UNL A   1     -30.709   3.268  23.745  0.00  0.00    +0.388 C 
ATOM     18  O   UNL A   1     -30.392   4.303  24.362  0.00  0.00    -0.241 OA
ATOM     19  O   UNL A   1     -31.800   3.119  23.233  0.00  0.00    -0.241 OA
ENDBRANCH   8  17
ENDBRANCH   1  12
BRANCH   4  20
ATOM     20  C   UNL A   1     -22.641   1.362  27.720  0.00  0.00    +0.346 C 
ATOM     21  O   UNL A   1     -22.047   2.210  27.870  0.00  0.00    -0.244 OA
BRANCH  20  22
ATOM     22  O   UNL A   1     -22.338   0.149  28.216  0.00  0.00    -0.418 OA
BRANCH  22  23
ATOM     23  C   UNL A   1     -21.942   0.055  29.413  0.00  0.00    +0.183 C 
ATOM     24  C   UNL A   1     -22.667  -0.347  30.358  0.00  0.00    +0.041 C 
BRANCH  24  25
ATOM     25  C   UNL A   1     -23.784  -1.141  30.068  0.00  0.00    +0.003 A 
ATOM     26  C   UNL A   1     -25.023  -0.668  30.229  0.00  0.00    -0.003 A 
ATOM     27  C   UNL A   1     -26.167  -1.517  29.830  0.00  0.00    -0.003 A 
ATOM     28  C   UNL A   1     -25.873  -2.796  29.408  0.00  0.00    +0.004 A 
ATOM     29  C   UNL A   1     -24.611  -3.251  29.241  0.00  0.00    +0.080 A 
ATOM     30  C   UNL A   1     -23.536  -2.449  29.510  0.00  0.00    +0.007 A 
BRANCH  29  31
ATOM     31  C   UNL A   1     -24.409  -4.612  28.690  0.00  0.00    +0.388 C 
ATOM     32  O   UNL A   1     -23.650  -4.869  28.084  0.00  0.00    -0.241 OA
ATOM     33  O   UNL A   1     -25.449  -5.412  29.046  0.00  0.00    -0.241 OA
ENDBRANCH  29  31
BRANCH  27  34
ATOM     34  C   UNL A   1     -27.497  -1.025  30.041  0.00  0.00    +0.136 C 
ATOM     35  N   UNL A   1     -27.652   0.180  30.335  0.00  0.00    -0.126 NA
ENDBRANCH  27  34
ENDBRANCH  24  25
ENDBRANCH  22  23
ENDBRANCH  20  22
ENDBRANCH   4  20
TORSDOF 9
ENDMDL
ENDMDL
