MODEL 1786
MODEL 1
REMARK VINA RESULT:    -4.360      0.000      0.000
REMARK INTER + INTRA:          -4.360
REMARK INTER:                  -4.360
REMARK INTRA:                   0.000
REMARK UNBOUND:                 0.000
REMARK  Name = No_1786-gen_results/8p0m/2024-11-27-11-27-31/
REMARK  0 active torsions:
REMARK  status: ('A' for Active; 'I' for Inactive)
REMARK                            x       y       z     vdW  Elec       q    Type
REMARK                         _______ _______ _______ _____ _____    ______ ____
ROOT
ATOM      1  C   UNL A   1     -23.917  -3.315  28.660  0.00  0.00    +0.007 A 
ATOM      2  C   UNL A   1     -24.814  -2.675  29.159  0.00  0.00    +0.035 A 
ATOM      3  C   UNL A   1     -25.935  -3.303  29.689  0.00  0.00    +0.007 A 
ATOM      4  C   UNL A   1     -26.086  -4.734  29.619  0.00  0.00    +0.001 A 
ATOM      5  C   UNL A   1     -25.013  -5.393  29.005  0.00  0.00    +0.000 A 
ATOM      6  C   UNL A   1     -23.983  -4.751  28.504  0.00  0.00    +0.001 A 
ATOM      7 BR   UNL A   1     -24.815  -0.798  29.304  0.00  0.00    -0.049 Br
ENDROOT
TORSDOF 0
ENDMDL
ENDMDL
