MODEL 1788
MODEL 1
REMARK VINA RESULT:    -4.251      0.000      0.000
REMARK INTER + INTRA:          -4.251
REMARK INTER:                  -4.251
REMARK INTRA:                   0.000
REMARK UNBOUND:                 0.000
REMARK  Name = No_1788-gen_results/8p0m/2024-11-27-11-27-31/
REMARK  0 active torsions:
REMARK  status: ('A' for Active; 'I' for Inactive)
REMARK                            x       y       z     vdW  Elec       q    Type
REMARK                         _______ _______ _______ _____ _____    ______ ____
ROOT
ATOM      1  C   UNL A   1     -24.964  -5.337  28.939  0.00  0.00    +0.000 A 
ATOM      2  C   UNL A   1     -24.148  -4.701  28.737  0.00  0.00    +0.000 A 
ATOM      3  C   UNL A   1     -26.114  -4.735  29.632  0.00  0.00    +0.000 A 
ATOM      4  C   UNL A   1     -26.158  -3.331  29.879  0.00  0.00    +0.000 A 
ATOM      5  C   UNL A   1     -23.966  -3.227  28.835  0.00  0.00    +0.000 A 
ATOM      6  C   UNL A   1     -25.009  -2.633  29.481  0.00  0.00    +0.000 A 
ENDROOT
TORSDOF 0
ENDMDL
ENDMDL
