MODEL 178
MODEL 1
REMARK VINA RESULT:    -4.596      0.000      0.000
REMARK INTER + INTRA:          -5.303
REMARK INTER:                  -5.134
REMARK INTRA:                  -0.170
REMARK UNBOUND:                -0.170
REMARK  Name = No_178-gen_results/8p0m/2024-11-27-11-27-31/
REMARK  2 active torsions:
REMARK  status: ('A' for Active; 'I' for Inactive)
REMARK    1  A    between atoms: C_2  and  C_5
REMARK    2  A    between atoms: C_5  and  C_6
REMARK                            x       y       z     vdW  Elec       q    Type
REMARK                         _______ _______ _______ _____ _____    ______ ____
ROOT
ATOM      1  F   UNL A   1      -8.665 -10.079  16.803  0.00  0.00    -0.170 F 
ATOM      2  C   UNL A   1      -9.537 -10.442  17.450  0.00  0.00    +0.402 C 
ATOM      3  F   UNL A   1      -9.282 -11.557  17.664  0.00  0.00    -0.170 F 
ATOM      4  F   UNL A   1     -10.697 -10.355  16.732  0.00  0.00    -0.170 F 
ENDROOT
BRANCH   2   5
ATOM      5  C   UNL A   1      -9.773  -9.650  18.701  0.00  0.00    +0.129 C 
BRANCH   5   6
ATOM      6  C   UNL A   1      -8.628  -9.219  19.331  0.00  0.00    -0.022 C 
ATOM      7  C   UNL A   1      -7.838  -9.978  20.088  0.00  0.00    -0.030 C 
ATOM      8  C   UNL A   1      -6.594  -9.437  20.802  0.00  0.00    +0.030 C 
ENDBRANCH   5   6
ENDBRANCH   2   5
TORSDOF 2
ENDMDL
ENDMDL
