REMARK  Name = No_179-gen_results/8p0m/2024-11-27-11-27-31/
REMARK  4 active torsions:
REMARK  status: ('A' for Active; 'I' for Inactive)
REMARK    1  A    between atoms: C_2  and  C_7
REMARK    2  A    between atoms: C_4  and  C_15
REMARK    3  A    between atoms: C_15  and  C_16
REMARK    4  A    between atoms: C_15  and  C_17
REMARK                            x       y       z     vdW  Elec       q    Type
REMARK                         _______ _______ _______ _____ _____    ______ ____
ROOT
ATOM      1  C   UNL A   1     -28.016  -0.814  28.878  0.00  0.00    -0.004 A 
ATOM      2  C   UNL A   1     -27.064  -0.119  28.608  0.00  0.00    -0.019 A 
ATOM      3  C   UNL A   1     -26.929   1.171  29.008  0.00  0.00    -0.008 A 
ATOM      4  C   UNL A   1     -27.956   1.741  29.784  0.00  0.00    -0.012 A 
ATOM      5  C   UNL A   1     -29.057  -0.327  29.747  0.00  0.00    -0.001 A 
ATOM      6  C   UNL A   1     -28.983   0.972  30.152  0.00  0.00    -0.004 A 
ENDROOT
BRANCH   2   7
ATOM      7  C   UNL A   1     -25.881  -0.626  27.794  0.00  0.00    +0.044 C 
ATOM      8  C   UNL A   1     -25.422   0.130  26.710  0.00  0.00    +0.009 C 
ATOM      9  C   UNL A   1     -25.033  -1.682  28.240  0.00  0.00    -0.027 C 
ATOM     10  C   UNL A   1     -23.863  -1.438  29.026  0.00  0.00    -0.030 C 
ATOM     11  C   UNL A   1     -23.272  -0.152  29.138  0.00  0.00    +0.026 C 
ATOM     12  C   UNL A   1     -23.906   0.982  28.897  0.00  0.00    +0.005 C 
ATOM     13  C   UNL A   1     -24.302   1.246  27.437  0.00  0.00    +0.001 C 
ATOM     14  C   UNL A   1     -23.820   2.277  26.604  0.00  0.00    +0.000 C 
ENDBRANCH   2   7
BRANCH   4  15
ATOM     15  C   UNL A   1     -27.833   3.188  30.224  0.00  0.00    +0.126 C 
BRANCH  15  16
ATOM     16  C   UNL A   1     -27.289   3.451  31.289  0.00  0.00    +0.368 C 
ATOM     17  O   UNL A   1     -27.021   2.707  32.200  0.00  0.00    -0.245 OA
ATOM     18  O   UNL A   1     -27.055   4.767  31.642  0.00  0.00    -0.245 OA
ENDBRANCH  15  16
BRANCH  15  19
ATOM     19  C   UNL A   1     -28.214   4.167  29.255  0.00  0.00    +0.016 C 
ATOM     20  C   UNL A   1     -29.359   4.624  29.197  0.00  0.00    +0.001 C 
ENDBRANCH  15  19
ENDBRANCH   4  15
TORSDOF 4
