REMARK  Name = outputs/IAG933/test6/raw/output_1790_IAG933_linker_design_.xyz
REMARK  12 active torsions:
REMARK  status: ('A' for Active; 'I' for Inactive)
REMARK    1  A    between atoms: C_1  and  C_2
REMARK    2  A    between atoms: C_1  and  C_8
REMARK    3  A    between atoms: C_9  and  C_33
REMARK    4  A    between atoms: C_13  and  N_41
REMARK    5  A    between atoms: C_14  and  C_15
REMARK    6  A    between atoms: C_21  and  O_22
REMARK    7  A    between atoms: O_22  and  C_23
REMARK    8  A    between atoms: C_23  and  C_24
REMARK    9  A    between atoms: C_29  and  C_33
REMARK   10  A    between atoms: O_30  and  N_36
REMARK   11  A    between atoms: C_33  and  C_34
REMARK   12  A    between atoms: C_38  and  N_39
REMARK                            x       y       z     vdW  Elec       q    Type
REMARK                         _______ _______ _______ _____ _____    ______ ____
ROOT
ATOM      1  C   UNL A   1     -23.715   2.109  30.896  0.00  0.00    +0.070 C 
ATOM      2  N   UNL A   1     -23.700   1.449  29.571  0.00  0.00    -0.255 NA
ENDROOT
BRANCH   2   6
ATOM      3  O   UNL A   1     -23.918  -0.234  27.343  0.00  0.00    -0.272 OA
ATOM      4  C   UNL A   1     -23.161   2.526  26.316  0.00  0.00    +0.105 C 
ATOM      5  S   UNL A   1     -21.303   1.608  27.535  0.00  0.00    -0.106 S 
ATOM      6  C   UNL A   1     -22.716   1.248  28.482  0.00  0.00    +0.226 C 
ATOM      7  N   UNL A   1     -24.285   1.609  26.881  0.00  0.00    -0.271 N 
ATOM      8  C   UNL A   1     -21.902   2.183  26.087  0.00  0.00    +0.081 C 
ATOM      9  C   UNL A   1     -23.793   0.808  27.442  0.00  0.00    +0.259 C 
BRANCH   7  10
ATOM     10  C   UNL A   1     -25.688   1.614  26.461  0.00  0.00    +0.145 C 
ATOM     11  C   UNL A   1     -26.250   2.920  26.395  0.00  0.00    +0.073 C 
ATOM     12  C   UNL A   1     -27.438   3.091  25.645  0.00  0.00    +0.104 C 
ATOM     13  N   UNL A   1     -28.075   2.089  25.003  0.00  0.00    -0.212 NA
ATOM     14  C   UNL A   1     -27.543   0.849  25.079  0.00  0.00    +0.236 C 
ATOM     15  C   UNL A   1     -26.354   0.576  25.777  0.00  0.00    +0.258 C 
ATOM     16  F   UNL A   1     -25.860  -0.681  25.795  0.00  0.00    -0.225 F 
BRANCH  11  17
ATOM     17  C   UNL A   1     -25.642   4.093  27.123  0.00  0.00    +0.264 C 
ATOM     18  N   UNL A   1     -25.614   5.252  26.449  0.00  0.00    -0.200 NA
ATOM     19  C   UNL A   1     -25.026   6.479  26.963  0.00  0.00    +0.139 C 
ATOM     20  O   UNL A   1     -25.143   3.966  28.243  0.00  0.00    -0.269 OA
ENDBRANCH  11  17
BRANCH  14  21
ATOM     21  O   UNL A   1     -28.193  -0.208  24.477  0.00  0.00    -0.459 OA
BRANCH  21  22
ATOM     22  C   UNL A   1     -29.460   0.005  23.866  0.00  0.00    +0.242 C 
BRANCH  22  23
ATOM     23  C   UNL A   1     -30.065  -1.377  23.573  0.00  0.00    +0.229 C 
ATOM     24  O   UNL A   1     -30.729  -1.878  24.721  0.00  0.00    -0.216 OA
ENDBRANCH  22  23
ENDBRANCH  21  22
ENDBRANCH  14  21
ENDBRANCH   7  10
ENDBRANCH   2   6
BRANCH   1  25
ATOM     25  C   UNL A   1     -25.095   2.255  31.614  0.00  0.00    +0.071 C 
BRANCH  25  26
ATOM     26  C   UNL A   1     -25.387   3.675  32.043  0.00  0.00    +0.139 C 
ATOM     27  C   UNL A   1     -24.833   6.027  31.093  0.00  0.00    +0.162 C 
ATOM     28  N   UNL A   1     -26.629   5.780  32.415  0.00  0.00    -0.161 NA
ATOM     29  C   UNL A   1     -25.890   6.751  31.785  0.00  0.00    +0.133 C 
ATOM     30  O   UNL A   1     -25.005   4.660  30.875  0.00  0.00    -0.353 OA
ATOM     31  C   UNL A   1     -26.060   4.534  32.966  0.00  0.00    +0.131 C 
BRANCH  28  32
ATOM     32  O   UNL A   1     -27.896   5.596  31.954  0.00  0.00    -0.279 OA
ATOM     33  C   UNL A   1     -28.990   6.503  32.174  0.00  0.00    +0.201 C 
ENDBRANCH  28  32
ENDBRANCH  25  26
BRANCH  25  35
ATOM     34  C   UNL A   1     -25.387  -0.679  31.571  0.00  0.00    +0.078 C 
ATOM     35  C   UNL A   1     -25.189   0.773  32.028  0.00  0.00    +0.026 C 
ATOM     36  C   UNL A   1     -25.336   0.684  33.544  0.00  0.00    +0.021 C 
ATOM     37  C   UNL A   1     -24.829  -0.715  33.905  0.00  0.00    +0.089 C 
ATOM     38  N   UNL A   1     -24.758  -1.481  32.646  0.00  0.00    -0.219 NA
BRANCH  34  39
ATOM     39  C   UNL A   1     -24.855  -1.012  30.143  0.00  0.00    +0.044 C 
BRANCH  39  40
ATOM     40  C   UNL A   1     -24.973  -2.505  29.788  0.00  0.00    -0.021 C 
ATOM     41  C   UNL A   1     -23.906  -3.173  29.146  0.00  0.00    -0.004 C 
ATOM     42  C   UNL A   1     -23.989  -4.549  28.853  0.00  0.00    -0.000 C 
ATOM     43  C   UNL A   1     -25.137  -5.280  29.205  0.00  0.00    -0.000 C 
ATOM     44  C   UNL A   1     -26.232  -4.611  29.784  0.00  0.00    -0.000 C 
ATOM     45  C   UNL A   1     -26.155  -3.232  30.065  0.00  0.00    -0.004 C 
ENDBRANCH  39  40
ENDBRANCH  34  39
ENDBRANCH  25  35
ENDBRANCH   1  25
TORSDOF 12
