MODEL 1790
MODEL 1
REMARK VINA RESULT:    -7.379      0.000      0.000
REMARK INTER + INTRA:         -10.067
REMARK INTER:                  -9.537
REMARK INTRA:                  -0.531
REMARK UNBOUND:                -0.531
REMARK  Name = No_1790-gen_results/8p0m/2024-11-27-11-27-31/
REMARK  5 active torsions:
REMARK  status: ('A' for Active; 'I' for Inactive)
REMARK    1  A    between atoms: C_2  and  O_8
REMARK    2  A    between atoms: O_8  and  C_21
REMARK    3  A    between atoms: C_10  and  C_15
REMARK    4  A    between atoms: C_21  and  C_22
REMARK    5  A    between atoms: C_23  and  C_24
REMARK                            x       y       z     vdW  Elec       q    Type
REMARK                         _______ _______ _______ _____ _____    ______ ____
ROOT
ATOM      1  C   UNL A   1     -25.532  -0.075  27.517  0.00  0.00    +0.035 C 
ATOM      2  C   UNL A   1     -25.138   0.440  26.686  0.00  0.00    +0.146 C 
ATOM      3  C   UNL A   1     -24.943   0.307  28.857  0.00  0.00    +0.034 C 
ATOM      4  C   UNL A   1     -24.896   1.652  29.187  0.00  0.00    +0.118 C 
ATOM      5  C   UNL A   1     -25.216   2.006  26.604  0.00  0.00    +0.181 C 
ATOM      6  C   UNL A   1     -24.635   2.548  27.889  0.00  0.00    +0.065 C 
ATOM      7  O   UNL A   1     -24.552   2.660  25.590  0.00  0.00    -0.221 OA
ATOM      8  O   UNL A   1     -23.954   1.977  30.202  0.00  0.00    -0.356 OA
ATOM      9  C   UNL A   1     -24.547  -0.607  29.938  0.00  0.00    +0.027 C 
ATOM     10  C   UNL A   1     -23.584  -0.377  30.833  0.00  0.00    +0.031 C 
ATOM     11  C   UNL A   1     -23.499   1.127  31.200  0.00  0.00    +0.142 C 
ATOM     12  C   UNL A   1     -23.325  -1.248  32.022  0.00  0.00    +0.003 C 
ATOM     13  C   UNL A   1     -22.165  -0.425  29.991  0.00  0.00    +0.003 C 
ENDROOT
BRANCH   9  14
ATOM     14  C   UNL A   1     -24.735  -2.013  29.718  0.00  0.00    -0.022 A 
ATOM     15  C   UNL A   1     -23.974  -2.643  29.001  0.00  0.00    -0.004 A 
ATOM     16  C   UNL A   1     -23.980  -3.850  28.720  0.00  0.00    -0.000 A 
ATOM     17  C   UNL A   1     -25.978  -2.491  30.136  0.00  0.00    -0.004 A 
ATOM     18  C   UNL A   1     -26.266  -3.842  29.806  0.00  0.00    -0.000 A 
ATOM     19  C   UNL A   1     -25.262  -4.549  29.070  0.00  0.00    -0.000 A 
ENDBRANCH   9  14
BRANCH   2  20
ATOM     20  O   UNL A   1     -24.960   0.040  25.382  0.00  0.00    -0.349 OA
BRANCH  20  21
ATOM     21  C   UNL A   1     -26.042  -0.548  24.777  0.00  0.00    +0.168 C 
BRANCH  21  22
ATOM     22  C   UNL A   1     -27.002   0.281  24.173  0.00  0.00    +0.006 C 
ATOM     23  C   UNL A   1     -28.215  -0.063  24.169  0.00  0.00    -0.002 C 
BRANCH  23  24
ATOM     24  C   UNL A   1     -29.283   0.819  23.740  0.00  0.00    -0.000 C 
ATOM     25  C   UNL A   1     -29.048   2.163  23.419  0.00  0.00    -0.000 C 
ENDBRANCH  23  24
ENDBRANCH  21  22
ENDBRANCH  20  21
ENDBRANCH   2  20
TORSDOF 5
ENDMDL
ENDMDL
