MODEL 1791
MODEL 1
REMARK VINA RESULT:    -7.020      0.000      0.000
REMARK INTER + INTRA:          -9.499
REMARK INTER:                  -8.662
REMARK INTRA:                  -0.838
REMARK UNBOUND:                -0.838
REMARK  Name = No_1791-gen_results/8p0m/2024-11-27-11-27-31/
REMARK  4 active torsions:
REMARK  status: ('A' for Active; 'I' for Inactive)
REMARK    1  A    between atoms: C_3  and  C_4
REMARK    2  A    between atoms: C_7  and  C_13
REMARK    3  A    between atoms: C_13  and  O_14
REMARK    4  A    between atoms: O_14  and  C_17
REMARK                            x       y       z     vdW  Elec       q    Type
REMARK                         _______ _______ _______ _____ _____    ______ ____
ROOT
ATOM      1  C   UNL A   1     -25.575   2.866  26.077  0.00  0.00    +0.006 A 
ATOM      2  C   UNL A   1     -26.681   2.604  25.667  0.00  0.00    -0.004 A 
ATOM      3  C   UNL A   1     -27.012   1.394  25.057  0.00  0.00    -0.022 A 
ATOM      4  C   UNL A   1     -24.460   1.919  25.772  0.00  0.00    +0.076 A 
ATOM      5  C   UNL A   1     -24.690   0.675  25.255  0.00  0.00    +0.006 A 
ATOM      6  C   UNL A   1     -25.999   0.339  24.813  0.00  0.00    -0.004 A 
ENDROOT
BRANCH   3   7
ATOM      7  C   UNL A   1     -28.327   0.996  24.518  0.00  0.00    +0.030 C 
ATOM      8  C   UNL A   1     -29.131   1.769  23.607  0.00  0.00    +0.005 C 
ATOM      9  C   UNL A   1     -30.369   1.281  23.146  0.00  0.00    +0.008 C 
ATOM     10  C   UNL A   1     -30.744  -0.087  23.322  0.00  0.00    +0.065 C 
ATOM     11  C   UNL A   1     -28.842  -0.359  24.705  0.00  0.00    +0.069 C 
ATOM     12  C   UNL A   1     -29.990  -0.832  24.140  0.00  0.00    +0.151 C 
ATOM     13  O   UNL A   1     -30.313  -2.123  24.380  0.00  0.00    -0.296 OA
ENDBRANCH   3   7
BRANCH   4  14
ATOM     14  C   UNL A   1     -23.076   2.231  26.209  0.00  0.00    +0.347 C 
ATOM     15  O   UNL A   1     -22.159   2.326  25.286  0.00  0.00    -0.244 OA
BRANCH  14  16
ATOM     16  O   UNL A   1     -22.848   2.465  27.300  0.00  0.00    -0.403 OA
BRANCH  16  17
ATOM     17  C   UNL A   1     -22.725   1.451  28.319  0.00  0.00    +0.233 A 
ATOM     18  C   UNL A   1     -21.987   0.573  28.186  0.00  0.00    +0.058 A 
ATOM     19  C   UNL A   1     -21.771  -0.476  29.206  0.00  0.00    +0.006 A 
ATOM     20  N   UNL A   1     -23.457   1.672  29.426  0.00  0.00    -0.210 NA
ATOM     21  C   UNL A   1     -23.429   0.792  30.431  0.00  0.00    +0.102 A 
ATOM     22  C   UNL A   1     -22.545  -0.292  30.380  0.00  0.00    +0.021 A 
ENDBRANCH  16  17
ENDBRANCH  14  16
ENDBRANCH   4  14
TORSDOF 4
ENDMDL
ENDMDL
