MODEL 1792
MODEL 1
REMARK VINA RESULT:    -5.521      0.000      0.000
REMARK INTER + INTRA:         -10.213
REMARK INTER:                  -9.071
REMARK INTRA:                  -1.142
REMARK UNBOUND:                -1.142
REMARK  Name = No_1792-gen_results/8p0m/2024-11-27-11-27-31/
REMARK  11 active torsions:
REMARK  status: ('A' for Active; 'I' for Inactive)
REMARK    1  A    between atoms: C_1  and  C_11
REMARK    2  A    between atoms: C_5  and  C_7
REMARK    3  A    between atoms: C_11  and  O_13
REMARK    4  A    between atoms: O_13  and  C_14
REMARK    5  A    between atoms: C_14  and  C_16
REMARK    6  A    between atoms: C_16  and  O_18
REMARK    7  A    between atoms: O_18  and  C_19
REMARK    8  A    between atoms: C_19  and  C_20
REMARK    9  A    between atoms: C_20  and  O_21
REMARK   10  A    between atoms: O_21  and  C_22
REMARK   11  A    between atoms: C_22  and  C_23
REMARK                            x       y       z     vdW  Elec       q    Type
REMARK                         _______ _______ _______ _____ _____    ______ ____
ROOT
ATOM      1  C   UNL A   1     -22.813  -1.270  29.171  0.00  0.00    +0.342 C 
ATOM      2  O   UNL A   1     -21.779  -1.457  28.978  0.00  0.00    -0.245 OA
ENDROOT
BRANCH   1   3
ATOM      3  C   UNL A   1     -23.976  -2.244  29.351  0.00  0.00    +0.078 A 
ATOM      4  C   UNL A   1     -23.876  -3.392  28.985  0.00  0.00    +0.038 A 
ATOM      5  C   UNL A   1     -24.880  -4.343  29.060  0.00  0.00    +0.168 A 
ATOM      6  C   UNL A   1     -26.137  -3.919  29.584  0.00  0.00    +0.174 A 
ATOM      7  C   UNL A   1     -26.270  -2.606  29.833  0.00  0.00    +0.110 A 
ATOM      8  C   UNL A   1     -25.279  -1.773  29.691  0.00  0.00    +0.015 A 
ATOM      9  F   UNL A   1     -24.667  -5.661  28.779  0.00  0.00    -0.202 F 
ATOM     10  F   UNL A   1     -27.073  -4.830  29.666  0.00  0.00    -0.202 F 
BRANCH   7  11
ATOM     11  C   UNL A   1     -27.603  -2.201  30.345  0.00  0.00    +0.390 C 
ATOM     12  O   UNL A   1     -28.520  -1.858  29.642  0.00  0.00    -0.240 OA
ATOM     13  O   UNL A   1     -27.877  -2.427  31.619  0.00  0.00    -0.240 OA
ENDBRANCH   7  11
ENDBRANCH   1   3
BRANCH   1  14
ATOM     14  O   UNL A   1     -23.350   0.035  28.922  0.00  0.00    -0.433 OA
BRANCH  14  15
ATOM     15  C   UNL A   1     -23.282   0.578  27.697  0.00  0.00    +0.317 C 
BRANCH  15  16
ATOM     16  C   UNL A   1     -22.987   1.987  27.549  0.00  0.00    +0.362 C 
ATOM     17  O   UNL A   1     -21.985   2.262  27.630  0.00  0.00    -0.246 OA
BRANCH  16  18
ATOM     18  O   UNL A   1     -23.990   2.764  28.017  0.00  0.00    -0.443 OA
BRANCH  18  19
ATOM     19  C   UNL A   1     -24.727   3.442  27.044  0.00  0.00    +0.240 C 
BRANCH  19  20
ATOM     20  C   UNL A   1     -26.148   3.094  27.204  0.00  0.00    +0.190 C 
BRANCH  20  21
ATOM     21  O   UNL A   1     -26.521   2.001  26.789  0.00  0.00    -0.342 OA
BRANCH  21  22
ATOM     22  C   UNL A   1     -26.503   1.663  25.407  0.00  0.00    +0.214 C 
BRANCH  22  23
ATOM     23  C   UNL A   1     -26.140   0.273  25.141  0.00  0.00    +0.240 C 
ATOM     24  O   UNL A   1     -24.992   0.070  24.633  0.00  0.00    -0.285 OA
ENDBRANCH  22  23
ENDBRANCH  21  22
ENDBRANCH  20  21
ENDBRANCH  19  20
ENDBRANCH  18  19
ENDBRANCH  16  18
ENDBRANCH  15  16
ENDBRANCH  14  15
ENDBRANCH   1  14
TORSDOF 11
ENDMDL
ENDMDL
