MODEL 1793
MODEL 1
REMARK VINA RESULT:    -8.330      0.000      0.000
REMARK INTER + INTRA:         -12.063
REMARK INTER:                 -10.278
REMARK INTRA:                  -1.784
REMARK UNBOUND:                -1.784
REMARK  Name = No_1793-gen_results/8p0m/2024-11-27-11-27-31/
REMARK  4 active torsions:
REMARK  status: ('A' for Active; 'I' for Inactive)
REMARK    1  A    between atoms: C_3  and  C_7
REMARK    2  A    between atoms: C_7  and  C_8
REMARK    3  A    between atoms: C_7  and  C_9
REMARK    4  A    between atoms: C_9  and  C_10
REMARK                            x       y       z     vdW  Elec       q    Type
REMARK                         _______ _______ _______ _____ _____    ______ ____
ROOT
ATOM      1  C   UNL A   1     -24.187  -0.583  29.853  0.00  0.00    +0.049 C 
ENDROOT
BRANCH   1   4
ATOM      2  C   UNL A   1     -21.755  -0.498  29.050  0.00  0.00    -0.004 A 
ATOM      3  C   UNL A   1     -21.024   0.016  28.492  0.00  0.00    -0.000 A 
ATOM      4  C   UNL A   1     -23.048   0.066  29.122  0.00  0.00    -0.018 A 
ATOM      5  C   UNL A   1     -23.360   1.258  28.499  0.00  0.00    -0.004 A 
ATOM      6  C   UNL A   1     -21.095   1.284  27.739  0.00  0.00    -0.000 A 
ATOM      7  C   UNL A   1     -22.316   1.859  27.782  0.00  0.00    -0.000 A 
ENDBRANCH   1   4
BRANCH   1   8
ATOM      8  C   UNL A   1     -24.221  -0.302  31.191  0.00  0.00    -0.018 A 
ATOM      9  C   UNL A   1     -25.235   0.434  31.756  0.00  0.00    -0.004 A 
ATOM     10  C   UNL A   1     -25.561   0.430  33.150  0.00  0.00    -0.000 A 
ATOM     11  C   UNL A   1     -24.860  -0.369  34.021  0.00  0.00    -0.000 A 
ATOM     12  C   UNL A   1     -23.488  -1.125  32.143  0.00  0.00    -0.004 A 
ATOM     13  C   UNL A   1     -23.825  -1.167  33.544  0.00  0.00    -0.000 A 
ENDBRANCH   1   8
BRANCH   1  14
ATOM     14  C   UNL A   1     -25.119  -1.387  29.239  0.00  0.00    +0.030 C 
ATOM     15  C   UNL A   1     -25.915  -0.669  28.346  0.00  0.00    +0.005 C 
BRANCH  14  16
ATOM     16  C   UNL A   1     -25.032  -2.740  29.217  0.00  0.00    -0.022 A 
ATOM     17  C   UNL A   1     -26.131  -3.454  29.727  0.00  0.00    -0.004 A 
ATOM     18  C   UNL A   1     -26.117  -4.863  29.652  0.00  0.00    -0.000 A 
ATOM     19  C   UNL A   1     -25.063  -5.502  29.036  0.00  0.00    -0.000 A 
ATOM     20  C   UNL A   1     -24.019  -4.813  28.484  0.00  0.00    -0.000 A 
ATOM     21  C   UNL A   1     -23.966  -3.468  28.571  0.00  0.00    -0.004 A 
ENDBRANCH  14  16
ENDBRANCH   1  14
TORSDOF 4
ENDMDL
ENDMDL
