MODEL 1794
MODEL 1
REMARK VINA RESULT:    -5.842      0.000      0.000
REMARK INTER + INTRA:          -6.178
REMARK INTER:                  -6.183
REMARK INTRA:                   0.005
REMARK UNBOUND:                 0.005
REMARK  Name = No_1794-gen_results/8p0m/2024-11-27-11-27-31/
REMARK  1 active torsions:
REMARK  status: ('A' for Active; 'I' for Inactive)
REMARK    1  A    between atoms: C_2  and  C_7
REMARK                            x       y       z     vdW  Elec       q    Type
REMARK                         _______ _______ _______ _____ _____    ______ ____
ROOT
ATOM      1  C   UNL A   1     -22.657  -0.554  29.323  0.00  0.00    +0.249 C 
ATOM      2  O   UNL A   1     -21.930  -1.455  29.182  0.00  0.00    -0.270 OA
ATOM      3  N   UNL A   1     -23.005  -0.071  30.560  0.00  0.00    -0.276 N 
ATOM      4  C   UNL A   1     -22.704  -0.867  31.691  0.00  0.00    +0.094 C 
ATOM      5  C   UNL A   1     -23.814   1.131  30.756  0.00  0.00    +0.094 C 
ATOM      6  C   UNL A   1     -24.948   0.852  31.311  0.00  0.00    +0.022 C 
ATOM      7  C   UNL A   1     -24.899   0.171  32.621  0.00  0.00    +0.004 C 
ATOM      8  C   UNL A   1     -23.998  -1.058  32.487  0.00  0.00    +0.022 C 
ENDROOT
BRANCH   1  10
ATOM      9  C   UNL A   1     -24.101   0.167  27.603  0.00  0.00    +0.004 A 
ATOM     10  C   UNL A   1     -23.187   0.359  28.091  0.00  0.00    +0.054 A 
ATOM     11  C   UNL A   1     -24.413   1.069  26.430  0.00  0.00    +0.000 A 
ATOM     12  C   UNL A   1     -23.436   1.983  25.981  0.00  0.00    +0.000 A 
ATOM     13  C   UNL A   1     -22.003   1.203  27.814  0.00  0.00    +0.004 A 
ATOM     14  C   UNL A   1     -22.250   2.043  26.737  0.00  0.00    +0.000 A 
ENDBRANCH   1  10
TORSDOF 1
ENDMDL
ENDMDL
