REMARK  Name = outputs/IAG933/test6/raw/output_1794_IAG933_linker_design_.xyz
REMARK  9 active torsions:
REMARK  status: ('A' for Active; 'I' for Inactive)
REMARK    1  A    between atoms: C_1  and  C_2
REMARK    2  A    between atoms: C_1  and  C_8
REMARK    3  A    between atoms: C_1  and  N_32
REMARK    4  A    between atoms: C_13  and  C_37
REMARK    5  A    between atoms: C_14  and  C_15
REMARK    6  A    between atoms: C_21  and  O_22
REMARK    7  A    between atoms: O_22  and  C_23
REMARK    8  A    between atoms: C_23  and  C_24
REMARK    9  A    between atoms: C_30  and  C_36
REMARK                            x       y       z     vdW  Elec       q    Type
REMARK                         _______ _______ _______ _____ _____    ______ ____
ROOT
ATOM      1  O   UNL A   1     -20.506   1.338  27.290  0.00  0.00    -0.289 OA
ATOM      2  O   UNL A   1     -21.219   1.851  26.210  0.00  0.00    -0.257 OA
ATOM      3  C   UNL A   1     -25.250   0.679  28.504  0.00  0.00    +0.146 C 
ATOM      4  C   UNL A   1     -23.182   1.314  27.393  0.00  0.00    +0.055 C 
ATOM      5  N   UNL A   1     -24.320   0.063  29.483  0.00  0.00    -0.263 N 
ATOM      6  F   UNL A   1     -23.011   2.784  25.461  0.00  0.00    -0.159 F 
ATOM      7  C   UNL A   1     -21.047   0.503  28.235  0.00  0.00    +0.178 C 
ATOM      8  C   UNL A   1     -24.659   1.222  27.458  0.00  0.00    +0.066 C 
ATOM      9  O   UNL A   1     -22.399   0.262  30.781  0.00  0.00    -0.270 OA
ATOM     10  C   UNL A   1     -22.509   1.901  26.318  0.00  0.00    +0.330 C 
ATOM     11  C   UNL A   1     -22.384   0.743  28.409  0.00  0.00    +0.090 C 
ATOM     12  C   UNL A   1     -20.351  -0.376  28.970  0.00  0.00    +0.077 C 
ATOM     13  C   UNL A   1     -23.006   0.355  29.713  0.00  0.00    +0.253 C 
ENDROOT
BRANCH   8  14
ATOM     14  C   UNL A   1     -25.688   1.614  26.461  0.00  0.00    +0.077 C 
ATOM     15  C   UNL A   1     -26.250   2.920  26.395  0.00  0.00    +0.055 C 
ATOM     16  C   UNL A   1     -27.438   3.091  25.645  0.00  0.00    +0.102 C 
ATOM     17  N   UNL A   1     -28.075   2.089  25.003  0.00  0.00    -0.212 NA
ATOM     18  C   UNL A   1     -27.543   0.849  25.079  0.00  0.00    +0.234 C 
ATOM     19  C   UNL A   1     -26.354   0.576  25.777  0.00  0.00    +0.240 C 
ATOM     20  F   UNL A   1     -25.860  -0.681  25.795  0.00  0.00    -0.227 F 
BRANCH  15  21
ATOM     21  C   UNL A   1     -25.642   4.093  27.123  0.00  0.00    +0.263 C 
ATOM     22  N   UNL A   1     -25.614   5.252  26.449  0.00  0.00    -0.200 NA
ATOM     23  C   UNL A   1     -25.026   6.479  26.963  0.00  0.00    +0.139 C 
ATOM     24  O   UNL A   1     -25.143   3.966  28.243  0.00  0.00    -0.269 OA
ENDBRANCH  15  21
BRANCH  18  25
ATOM     25  O   UNL A   1     -28.193  -0.208  24.477  0.00  0.00    -0.459 OA
BRANCH  25  26
ATOM     26  C   UNL A   1     -29.460   0.005  23.866  0.00  0.00    +0.242 C 
BRANCH  26  27
ATOM     27  C   UNL A   1     -30.065  -1.377  23.573  0.00  0.00    +0.229 C 
ATOM     28  O   UNL A   1     -30.729  -1.878  24.721  0.00  0.00    -0.216 OA
ENDBRANCH  26  27
ENDBRANCH  25  26
ENDBRANCH  18  25
ENDBRANCH   8  14
BRANCH   3  30
ATOM     29  C   UNL A   1     -27.756   1.321  29.356  0.00  0.00    -0.013 C 
ATOM     30  C   UNL A   1     -26.600   0.937  28.956  0.00  0.00    -0.058 C 
ENDBRANCH   3  30
BRANCH   5  31
ATOM     31  C   UNL A   1     -24.855  -1.012  30.143  0.00  0.00    +0.115 C 
BRANCH  31  32
ATOM     32  C   UNL A   1     -24.973  -2.505  29.788  0.00  0.00    -0.003 C 
ATOM     33  C   UNL A   1     -23.906  -3.173  29.146  0.00  0.00    -0.003 C 
ATOM     34  C   UNL A   1     -23.989  -4.549  28.853  0.00  0.00    -0.000 C 
ATOM     35  C   UNL A   1     -25.137  -5.280  29.205  0.00  0.00    -0.000 C 
ATOM     36  C   UNL A   1     -26.232  -4.611  29.784  0.00  0.00    -0.000 C 
ATOM     37  C   UNL A   1     -26.155  -3.232  30.065  0.00  0.00    -0.003 C 
ENDBRANCH  31  32
BRANCH  31  38
ATOM     38  C   UNL A   1     -25.387  -0.679  31.571  0.00  0.00    +0.095 C 
ATOM     39  C   UNL A   1     -25.189   0.773  32.028  0.00  0.00    +0.021 C 
ATOM     40  C   UNL A   1     -25.336   0.684  33.544  0.00  0.00    +0.020 C 
ATOM     41  C   UNL A   1     -24.829  -0.715  33.905  0.00  0.00    +0.089 C 
ATOM     42  N   UNL A   1     -24.758  -1.481  32.646  0.00  0.00    -0.217 NA
ENDBRANCH  31  38
ENDBRANCH   5  31
TORSDOF 9
