MODEL 1795
MODEL 1
REMARK VINA RESULT:    -7.844      0.000      0.000
REMARK INTER + INTRA:         -11.146
REMARK INTER:                 -10.136
REMARK INTRA:                  -1.010
REMARK UNBOUND:                -1.010
REMARK  Name = No_1795-gen_results/8p0m/2024-11-27-11-27-31/
REMARK  5 active torsions:
REMARK  status: ('A' for Active; 'I' for Inactive)
REMARK    1  A    between atoms: C_2  and  O_7
REMARK    2  A    between atoms: O_7  and  C_8
REMARK    3  A    between atoms: C_9  and  C_10
REMARK    4  A    between atoms: C_10  and  C_11
REMARK    5  A    between atoms: C_20  and  C_21
REMARK                            x       y       z     vdW  Elec       q    Type
REMARK                         _______ _______ _______ _____ _____    ______ ____
ROOT
ATOM      1  C   UNL A   1      -8.998   0.627  35.394  0.00  0.00    +0.142 A 
ATOM      2  C   UNL A   1     -10.095   0.374  36.065  0.00  0.00    +0.017 A 
ATOM      3  C   UNL A   1     -11.295   1.063  35.885  0.00  0.00    +0.006 A 
ATOM      4  C   UNL A   1      -9.240   1.433  34.209  0.00  0.00    +0.037 A 
ATOM      5  C   UNL A   1     -10.393   1.722  33.654  0.00  0.00    +0.010 A 
ATOM      6  C   UNL A   1     -11.519   1.531  34.466  0.00  0.00    +0.080 A 
ENDROOT
BRANCH   6   7
ATOM      7  C   UNL A   1     -12.861   1.989  34.139  0.00  0.00    +0.388 C 
ATOM      8  O   UNL A   1     -13.275   2.035  33.120  0.00  0.00    -0.241 OA
ATOM      9  O   UNL A   1     -13.440   2.671  35.111  0.00  0.00    -0.241 OA
ENDBRANCH   6   7
BRANCH   1  10
ATOM     10  O   UNL A   1      -7.807   0.633  35.877  0.00  0.00    -0.454 OA
BRANCH  10  12
ATOM     11  C   UNL A   1      -7.259  -1.189  34.881  0.00  0.00    +0.037 A 
ATOM     12  C   UNL A   1      -6.847  -0.304  35.275  0.00  0.00    +0.145 A 
ATOM     13  C   UNL A   1      -6.267  -2.149  34.263  0.00  0.00    +0.003 A 
ATOM     14  C   UNL A   1      -4.886  -1.883  34.376  0.00  0.00    +0.000 A 
ATOM     15  C   UNL A   1      -5.478   0.191  35.545  0.00  0.00    +0.037 A 
ATOM     16  C   UNL A   1      -4.537  -0.669  34.996  0.00  0.00    +0.003 A 
ENDBRANCH  10  12
ENDBRANCH   1  10
BRANCH   2  17
ATOM     17  C   UNL A   1      -9.900   0.213  37.498  0.00  0.00    +0.056 C 
BRANCH  17  18
ATOM     18  C   UNL A   1     -10.622  -0.824  38.227  0.00  0.00    -0.018 A 
ATOM     19  C   UNL A   1     -11.089  -1.956  37.560  0.00  0.00    -0.004 A 
ATOM     20  C   UNL A   1     -11.974  -2.775  38.178  0.00  0.00    -0.000 A 
ATOM     21  C   UNL A   1     -12.394  -2.530  39.517  0.00  0.00    -0.000 A 
ATOM     22  C   UNL A   1     -12.020  -1.376  40.120  0.00  0.00    -0.000 A 
ATOM     23  C   UNL A   1     -11.207  -0.433  39.418  0.00  0.00    -0.004 A 
ENDBRANCH  17  18
ENDBRANCH   2  17
TORSDOF 5
ENDMDL
ENDMDL
