REMARK  Name = outputs/IAG933/test6/raw/output_1796_IAG933_linker_design_.xyz
REMARK  12 active torsions:
REMARK  status: ('A' for Active; 'I' for Inactive)
REMARK    1  A    between atoms: C_1  and  C_2
REMARK    2  A    between atoms: C_1  and  C_8
REMARK    3  A    between atoms: C_1  and  N_30
REMARK    4  A    between atoms: C_13  and  C_32
REMARK    5  A    between atoms: C_14  and  C_15
REMARK    6  A    between atoms: C_21  and  O_22
REMARK    7  A    between atoms: O_22  and  C_23
REMARK    8  A    between atoms: C_23  and  C_24
REMARK    9  A    between atoms: C_28  and  C_38
REMARK   10  A    between atoms: C_29  and  C_38
REMARK   11  A    between atoms: N_30  and  C_34
REMARK   12  A    between atoms: C_32  and  C_34
REMARK                            x       y       z     vdW  Elec       q    Type
REMARK                         _______ _______ _______ _____ _____    ______ ____
ROOT
ATOM      1  C   UNL A   1     -24.604   1.384  27.319  0.00  0.00    -0.001 C 
ATOM      2  C   UNL A   1     -23.357   1.701  26.857  0.00  0.00    +0.045 C 
ENDROOT
BRANCH   1   3
ATOM      3  C   UNL A   1     -25.688   1.614  26.461  0.00  0.00    +0.035 C 
ATOM      4  C   UNL A   1     -26.250   2.920  26.395  0.00  0.00    +0.076 C 
ATOM      5  C   UNL A   1     -27.438   3.091  25.645  0.00  0.00    +0.107 C 
ATOM      6  N   UNL A   1     -28.075   2.089  25.003  0.00  0.00    -0.208 NA
ATOM      7  C   UNL A   1     -27.543   0.849  25.079  0.00  0.00    +0.253 C 
ATOM      8  C   UNL A   1     -26.354   0.576  25.777  0.00  0.00    +0.193 C 
ATOM      9  F   UNL A   1     -25.860  -0.681  25.795  0.00  0.00    -0.199 F 
BRANCH   4  10
ATOM     10  C   UNL A   1     -25.642   4.093  27.123  0.00  0.00    +0.266 C 
ATOM     11  N   UNL A   1     -25.614   5.252  26.449  0.00  0.00    -0.200 NA
ATOM     12  C   UNL A   1     -25.026   6.479  26.963  0.00  0.00    +0.139 C 
ATOM     13  O   UNL A   1     -25.143   3.966  28.243  0.00  0.00    -0.268 OA
ENDBRANCH   4  10
BRANCH   7  14
ATOM     14  O   UNL A   1     -28.193  -0.208  24.477  0.00  0.00    -0.456 OA
BRANCH  14  15
ATOM     15  C   UNL A   1     -29.460   0.005  23.866  0.00  0.00    +0.243 C 
BRANCH  15  16
ATOM     16  C   UNL A   1     -30.065  -1.377  23.573  0.00  0.00    +0.229 C 
ATOM     17  O   UNL A   1     -30.729  -1.878  24.721  0.00  0.00    -0.216 OA
ENDBRANCH  15  16
ENDBRANCH  14  15
ENDBRANCH   7  14
ENDBRANCH   1   3
BRANCH   2  18
ATOM     18  C   UNL A   1     -22.172   1.642  27.662  0.00  0.00    +0.337 C 
ATOM     19  N   UNL A   1     -21.883  -0.141  29.317  0.00  0.00    +0.197 NA
ATOM     20  N   UNL A   1     -20.849   1.387  27.928  0.00  0.00    -0.014 NA
ATOM     21  C   UNL A   1     -21.621   0.891  28.527  0.00  0.00    +0.441 C 
ENDBRANCH   2  18
BRANCH   2  22
ATOM     22  C   UNL A   1     -23.082   2.203  25.457  0.00  0.00    +0.209 C 
ATOM     23  O   UNL A   1     -21.814   2.467  25.462  0.00  0.00    -0.215 OA
ENDBRANCH   2  22
BRANCH   1  24
ATOM     24  C   UNL A   1     -24.831   1.040  28.664  0.00  0.00    +0.120 C 
BRANCH  24  25
ATOM     25  N   UNL A   1     -25.414  -0.139  29.120  0.00  0.00    -0.265 N 
ATOM     26  O   UNL A   1     -27.535  -0.810  28.993  0.00  0.00    -0.265 OA
ATOM     27  C   UNL A   1     -26.516  -0.417  28.537  0.00  0.00    +0.303 C 
BRANCH  25  28
ATOM     28  C   UNL A   1     -24.855  -1.012  30.143  0.00  0.00    +0.115 C 
BRANCH  28  29
ATOM     29  C   UNL A   1     -24.973  -2.505  29.788  0.00  0.00    -0.003 C 
ATOM     30  C   UNL A   1     -23.906  -3.173  29.146  0.00  0.00    -0.003 C 
ATOM     31  C   UNL A   1     -23.989  -4.549  28.853  0.00  0.00    -0.000 C 
ATOM     32  C   UNL A   1     -25.137  -5.280  29.205  0.00  0.00    -0.000 C 
ATOM     33  C   UNL A   1     -26.232  -4.611  29.784  0.00  0.00    -0.000 C 
ATOM     34  C   UNL A   1     -26.155  -3.232  30.065  0.00  0.00    -0.003 C 
ENDBRANCH  28  29
BRANCH  28  35
ATOM     35  C   UNL A   1     -25.387  -0.679  31.571  0.00  0.00    +0.095 C 
ATOM     36  C   UNL A   1     -25.189   0.773  32.028  0.00  0.00    +0.021 C 
ATOM     37  C   UNL A   1     -25.336   0.684  33.544  0.00  0.00    +0.020 C 
ATOM     38  C   UNL A   1     -24.829  -0.715  33.905  0.00  0.00    +0.089 C 
ATOM     39  N   UNL A   1     -24.758  -1.481  32.646  0.00  0.00    -0.217 NA
ENDBRANCH  28  35
ENDBRANCH  25  28
ENDBRANCH  24  25
ENDBRANCH   1  24
TORSDOF 12
