MODEL 1796
MODEL 1
REMARK VINA RESULT:    -8.227      0.000      0.000
REMARK INTER + INTRA:         -11.225
REMARK INTER:                 -10.151
REMARK INTRA:                  -1.074
REMARK UNBOUND:                -1.074
REMARK  Name = No_1796-gen_results/8p0m/2024-11-27-11-27-31/
REMARK  4 active torsions:
REMARK  status: ('A' for Active; 'I' for Inactive)
REMARK    1  A    between atoms: C_1  and  O_20
REMARK    2  A    between atoms: C_5  and  C_7
REMARK    3  A    between atoms: O_20  and  C_21
REMARK    4  A    between atoms: C_21  and  C_22
REMARK                            x       y       z     vdW  Elec       q    Type
REMARK                         _______ _______ _______ _____ _____    ______ ____
ROOT
ATOM      1  C   UNL A   1     -10.610   1.796  37.189  0.00  0.00    +0.142 A 
ATOM      2  C   UNL A   1     -11.733   2.021  36.801  0.00  0.00    +0.071 A 
ATOM      3  C   UNL A   1     -12.072   2.379  35.507  0.00  0.00    +0.005 A 
ATOM      4  C   UNL A   1     -11.012   2.458  34.557  0.00  0.00    +0.004 A 
ATOM      5  C   UNL A   1      -9.802   2.051  34.973  0.00  0.00    +0.083 A 
ATOM      6  C   UNL A   1      -9.583   1.686  36.204  0.00  0.00    +0.044 A 
ATOM      7  C   UNL A   1     -13.482   2.830  35.138  0.00  0.00    +0.137 C 
ATOM      8  C   UNL A   1     -14.375   3.056  36.081  0.00  0.00    +0.002 A 
ATOM      9  C   UNL A   1     -14.282   2.901  37.451  0.00  0.00    +0.037 A 
ATOM     10  C   UNL A   1     -12.912   2.408  37.818  0.00  0.00    +0.198 C 
ATOM     11  C   UNL A   1     -15.812   3.468  35.694  0.00  0.00    -0.003 A 
ATOM     12  C   UNL A   1     -16.680   3.998  36.659  0.00  0.00    -0.000 A 
ATOM     13  C   UNL A   1     -16.401   3.765  38.021  0.00  0.00    +0.000 A 
ATOM     14  C   UNL A   1     -15.136   3.264  38.427  0.00  0.00    +0.003 A 
ATOM     15  O   UNL A   1     -12.636   2.234  39.077  0.00  0.00    -0.286 OA
ATOM     16  N   UNL A   1     -13.701   3.024  33.798  0.00  0.00    -0.123 NA
ENDROOT
BRANCH   5  17
ATOM     17  C   UNL A   1      -8.733   2.117  33.945  0.00  0.00    +0.388 C 
ATOM     18  O   UNL A   1      -7.839   1.382  33.993  0.00  0.00    -0.241 OA
ATOM     19  O   UNL A   1      -9.011   2.850  32.838  0.00  0.00    -0.241 OA
ENDBRANCH   5  17
BRANCH   1  20
ATOM     20  O   UNL A   1     -10.267   1.436  38.438  0.00  0.00    -0.470 OA
BRANCH  20  21
ATOM     21  C   UNL A   1      -9.746   0.232  38.744  0.00  0.00    +0.232 C 
BRANCH  21  22
ATOM     22  C   UNL A   1     -10.562  -0.761  38.813  0.00  0.00    +0.021 A 
ATOM     23  C   UNL A   1     -11.204  -1.130  39.760  0.00  0.00    -0.001 A 
ATOM     24  C   UNL A   1     -12.228  -2.174  39.891  0.00  0.00    -0.000 A 
ATOM     25  C   UNL A   1     -12.427  -2.936  38.769  0.00  0.00    -0.000 A 
ATOM     26  C   UNL A   1     -11.690  -2.595  37.603  0.00  0.00    -0.000 A 
ATOM     27  C   UNL A   1     -10.805  -1.563  37.595  0.00  0.00    -0.001 A 
ENDBRANCH  21  22
ENDBRANCH  20  21
ENDBRANCH   1  20
TORSDOF 4
ENDMDL
ENDMDL
