MODEL 1797
MODEL 1
REMARK VINA RESULT:    -6.137      0.000      0.000
REMARK INTER + INTRA:          -7.378
REMARK INTER:                  -6.854
REMARK INTRA:                  -0.524
REMARK UNBOUND:                -0.524
REMARK  Name = No_1797-gen_results/8p0m/2024-11-27-11-27-31/
REMARK  2 active torsions:
REMARK  status: ('A' for Active; 'I' for Inactive)
REMARK    1  A    between atoms: C_2  and  C_7
REMARK    2  A    between atoms: C_8  and  C_9
REMARK                            x       y       z     vdW  Elec       q    Type
REMARK                         _______ _______ _______ _____ _____    ______ ____
ROOT
ATOM      1  C   UNL A   1     -24.925  -1.140  28.467  0.00  0.00    +0.000 C 
ATOM      2  C   UNL A   1     -24.754  -0.193  29.218  0.00  0.00    +0.000 C 
ENDROOT
BRANCH   1   4
ATOM      3  C   UNL A   1     -24.078  -3.384  28.512  0.00  0.00    +0.000 A 
ATOM      4  C   UNL A   1     -24.964  -2.599  28.760  0.00  0.00    +0.000 A 
ATOM      5  C   UNL A   1     -26.136  -3.012  29.383  0.00  0.00    +0.000 A 
ATOM      6  C   UNL A   1     -26.351  -4.397  29.713  0.00  0.00    +0.000 A 
ATOM      7  C   UNL A   1     -25.286  -5.240  29.370  0.00  0.00    +0.000 A 
ATOM      8  C   UNL A   1     -24.205  -4.802  28.766  0.00  0.00    +0.000 A 
ENDBRANCH   1   4
BRANCH   2   9
ATOM      9  C   UNL A   1     -24.530  -0.512  30.696  0.00  0.00    +0.000 A 
ATOM     10  C   UNL A   1     -25.355  -0.374  31.606  0.00  0.00    +0.000 A 
ATOM     11  C   UNL A   1     -25.075  -0.752  33.000  0.00  0.00    +0.000 A 
ATOM     12  C   UNL A   1     -23.788  -1.136  33.336  0.00  0.00    +0.000 A 
ATOM     13  C   UNL A   1     -22.839  -1.201  32.363  0.00  0.00    +0.000 A 
ATOM     14  C   UNL A   1     -23.147  -0.870  31.074  0.00  0.00    +0.000 A 
ENDBRANCH   2   9
TORSDOF 2
ENDMDL
ENDMDL
