MODEL 1798
MODEL 1
REMARK VINA RESULT:    -5.754      0.000      0.000
REMARK INTER + INTRA:          -6.254
REMARK INTER:                  -6.091
REMARK INTRA:                  -0.163
REMARK UNBOUND:                -0.163
REMARK  Name = No_1798-gen_results/8p0m/2024-11-27-11-27-31/
REMARK  1 active torsions:
REMARK  status: ('A' for Active; 'I' for Inactive)
REMARK    1  A    between atoms: C_4  and  C_8
REMARK                            x       y       z     vdW  Elec       q    Type
REMARK                         _______ _______ _______ _____ _____    ______ ____
ROOT
ATOM      1  C   UNL A   1     -26.447  -3.464  29.866  0.00  0.00    +0.004 C 
ATOM      2  C   UNL A   1     -25.581  -2.628  29.748  0.00  0.00    +0.022 C 
ATOM      3  C   UNL A   1     -24.351  -2.944  29.182  0.00  0.00    -0.044 C 
ATOM      4  C   UNL A   1     -23.329  -1.986  28.954  0.00  0.00    -0.009 C 
ATOM      5  C   UNL A   1     -26.139  -4.877  29.635  0.00  0.00    +0.001 C 
ATOM      6  C   UNL A   1     -24.992  -5.269  28.991  0.00  0.00    +0.004 C 
ATOM      7  C   UNL A   1     -24.028  -4.286  28.752  0.00  0.00    +0.022 C 
ENDROOT
BRANCH   4   8
ATOM      8  C   UNL A   1     -23.503  -0.653  29.050  0.00  0.00    -0.005 C 
ATOM      9  C   UNL A   1     -22.433   0.246  28.918  0.00  0.00    -0.026 C 
ATOM     10  C   UNL A   1     -21.161  -0.157  28.677  0.00  0.00    +0.031 C 
ENDBRANCH   4   8
TORSDOF 1
ENDMDL
ENDMDL
