REMARK  Name = outputs/IAG933/test6/raw/output_1799_IAG933_linker_design_.xyz
REMARK  11 active torsions:
REMARK  status: ('A' for Active; 'I' for Inactive)
REMARK    1  A    between atoms: C_1  and  C_2
REMARK    2  A    between atoms: C_1  and  C_8
REMARK    3  A    between atoms: C_1  and  C_30
REMARK    4  A    between atoms: C_13  and  C_28
REMARK    5  A    between atoms: C_14  and  C_15
REMARK    6  A    between atoms: C_21  and  O_22
REMARK    7  A    between atoms: O_22  and  C_23
REMARK    8  A    between atoms: C_23  and  C_24
REMARK    9  A    between atoms: C_29  and  C_33
REMARK   10  A    between atoms: C_31  and  C_35
REMARK   11  A    between atoms: C_33  and  N_36
REMARK                            x       y       z     vdW  Elec       q    Type
REMARK                         _______ _______ _______ _____ _____    ______ ____
ROOT
ATOM      1  C   UNL A   1     -24.633   1.241  27.347  0.00  0.00    +0.007 C 
ATOM      2  C   UNL A   1     -24.260  -0.050  29.299  0.00  0.00    -0.013 C 
ATOM      3  C   UNL A   1     -23.300   1.566  27.188  0.00  0.00    +0.000 C 
ATOM      4  C   UNL A   1     -25.167   0.559  28.399  0.00  0.00    +0.051 C 
ATOM      5  C   UNL A   1     -22.906   0.276  29.176  0.00  0.00    -0.004 C 
ATOM      6  C   UNL A   1     -22.440   1.127  28.175  0.00  0.00    -0.000 C 
ENDROOT
BRANCH   1   7
ATOM      7  C   UNL A   1     -25.688   1.614  26.461  0.00  0.00    +0.038 C 
ATOM      8  C   UNL A   1     -26.250   2.920  26.395  0.00  0.00    +0.076 C 
ATOM      9  C   UNL A   1     -27.438   3.091  25.645  0.00  0.00    +0.107 C 
ATOM     10  N   UNL A   1     -28.075   2.089  25.003  0.00  0.00    -0.208 NA
ATOM     11  C   UNL A   1     -27.543   0.849  25.079  0.00  0.00    +0.253 C 
ATOM     12  C   UNL A   1     -26.354   0.576  25.777  0.00  0.00    +0.193 C 
ATOM     13  F   UNL A   1     -25.860  -0.681  25.795  0.00  0.00    -0.199 F 
BRANCH   8  14
ATOM     14  C   UNL A   1     -25.642   4.093  27.123  0.00  0.00    +0.266 C 
ATOM     15  N   UNL A   1     -25.614   5.252  26.449  0.00  0.00    -0.200 NA
ATOM     16  C   UNL A   1     -25.026   6.479  26.963  0.00  0.00    +0.139 C 
ATOM     17  O   UNL A   1     -25.143   3.966  28.243  0.00  0.00    -0.268 OA
ENDBRANCH   8  14
BRANCH  11  18
ATOM     18  O   UNL A   1     -28.193  -0.208  24.477  0.00  0.00    -0.456 OA
BRANCH  18  19
ATOM     19  C   UNL A   1     -29.460   0.005  23.866  0.00  0.00    +0.243 C 
BRANCH  19  20
ATOM     20  C   UNL A   1     -30.065  -1.377  23.573  0.00  0.00    +0.229 C 
ATOM     21  O   UNL A   1     -30.729  -1.878  24.721  0.00  0.00    -0.216 OA
ENDBRANCH  19  20
ENDBRANCH  18  19
ENDBRANCH  11  18
ENDBRANCH   1   7
BRANCH   4  22
ATOM     22  C   UNL A   1     -26.619   0.338  28.586  0.00  0.00    +0.264 C 
ATOM     23  O   UNL A   1     -27.055  -0.800  28.350  0.00  0.00    -0.268 OA
ATOM     24  N   UNL A   1     -27.353   1.299  29.136  0.00  0.00    -0.205 NA
BRANCH  24  25
ATOM     25  C   UNL A   1     -28.544   1.637  29.891  0.00  0.00    +0.079 C 
ATOM     26  C   UNL A   1     -29.076   0.720  31.068  0.00  0.00    +0.022 C 
ATOM     27  C   UNL A   1     -29.438   1.439  28.721  0.00  0.00    +0.022 C 
BRANCH  25  28
ATOM     28  C   UNL A   1     -28.525   2.931  30.635  0.00  0.00    +0.020 C 
ATOM     29  C   UNL A   1     -28.201   3.687  29.535  0.00  0.00    +0.002 C 
ENDBRANCH  25  28
ENDBRANCH  24  25
ENDBRANCH   4  22
BRANCH   2  30
ATOM     30  C   UNL A   1     -24.855  -1.012  30.143  0.00  0.00    +0.061 C 
BRANCH  30  31
ATOM     31  C   UNL A   1     -24.973  -2.505  29.788  0.00  0.00    -0.017 C 
ATOM     32  C   UNL A   1     -23.906  -3.173  29.146  0.00  0.00    -0.004 C 
ATOM     33  C   UNL A   1     -23.989  -4.549  28.853  0.00  0.00    -0.000 C 
ATOM     34  C   UNL A   1     -25.137  -5.280  29.205  0.00  0.00    -0.000 C 
ATOM     35  C   UNL A   1     -26.232  -4.611  29.784  0.00  0.00    -0.000 C 
ATOM     36  C   UNL A   1     -26.155  -3.232  30.065  0.00  0.00    -0.004 C 
ENDBRANCH  30  31
BRANCH  30  37
ATOM     37  C   UNL A   1     -25.387  -0.679  31.571  0.00  0.00    +0.081 C 
ATOM     38  C   UNL A   1     -25.189   0.773  32.028  0.00  0.00    +0.019 C 
ATOM     39  C   UNL A   1     -25.336   0.684  33.544  0.00  0.00    +0.020 C 
ATOM     40  C   UNL A   1     -24.829  -0.715  33.905  0.00  0.00    +0.089 C 
ATOM     41  N   UNL A   1     -24.758  -1.481  32.646  0.00  0.00    -0.219 NA
ENDBRANCH  30  37
ENDBRANCH   2  30
TORSDOF 11
