MODEL 1799
MODEL 1
REMARK VINA RESULT:    -6.379      0.000      0.000
REMARK INTER + INTRA:          -8.114
REMARK INTER:                  -7.497
REMARK INTRA:                  -0.616
REMARK UNBOUND:                -0.616
REMARK  Name = No_1799-gen_results/8p0m/2024-11-27-11-27-31/
REMARK  3 active torsions:
REMARK  status: ('A' for Active; 'I' for Inactive)
REMARK    1  A    between atoms: C_3  and  C_13
REMARK    2  A    between atoms: C_14  and  C_15
REMARK    3  A    between atoms: C_16  and  C_17
REMARK                            x       y       z     vdW  Elec       q    Type
REMARK                         _______ _______ _______ _____ _____    ______ ____
ROOT
ATOM      1 CL   UNL A   1     -23.098   2.250  25.532  0.00  0.00    -0.082 Cl
ATOM      2  C   UNL A   1     -23.673   1.278  26.429  0.00  0.00    +0.065 A 
ATOM      3  C   UNL A   1     -24.636   0.618  26.276  0.00  0.00    +0.053 A 
ATOM      4  C   UNL A   1     -25.140  -0.359  27.238  0.00  0.00    +0.013 A 
ATOM      5  C   UNL A   1     -24.463  -0.515  28.487  0.00  0.00    +0.052 A 
ATOM      6  C   UNL A   1     -23.356   0.251  28.660  0.00  0.00    -0.015 A 
ATOM      7  C   UNL A   1     -22.929   1.111  27.723  0.00  0.00    +0.008 A 
ATOM      8  C   UNL A   1     -24.965  -1.435  29.515  0.00  0.00    +0.265 C 
ATOM      9  N   UNL A   1     -24.270  -1.621  30.642  0.00  0.00    -0.201 NA
ATOM     10  O   UNL A   1     -25.903  -2.163  29.382  0.00  0.00    -0.268 OA
ATOM     11  C   UNL A   1     -23.027  -1.079  30.984  0.00  0.00    +0.120 C 
ATOM     12  C   UNL A   1     -22.506  -0.190  29.940  0.00  0.00    +0.050 C 
ENDROOT
BRANCH   3  13
ATOM     13  C   UNL A   1     -25.518   0.698  25.042  0.00  0.00    -0.059 C 
ATOM     14  C   UNL A   1     -26.825   0.880  25.168  0.00  0.00    -0.059 C 
BRANCH  14  15
ATOM     15  C   UNL A   1     -27.473   1.453  24.109  0.00  0.00    +0.050 C 
ATOM     16  C   UNL A   1     -28.619   0.797  23.570  0.00  0.00    +0.009 C 
BRANCH  16  17
ATOM     17  C   UNL A   1     -29.008  -0.483  24.133  0.00  0.00    +0.001 C 
ATOM     18  C   UNL A   1     -29.003  -1.641  23.376  0.00  0.00    +0.000 C 
ENDBRANCH  16  17
ENDBRANCH  14  15
ENDBRANCH   3  13
TORSDOF 3
ENDMDL
ENDMDL
