MODEL 179
MODEL 1
REMARK VINA RESULT:    -6.718      0.000      0.000
REMARK INTER + INTRA:          -9.213
REMARK INTER:                  -8.289
REMARK INTRA:                  -0.924
REMARK UNBOUND:                -0.924
REMARK  Name = No_179-gen_results/8p0m/2024-11-27-11-27-31/
REMARK  4 active torsions:
REMARK  status: ('A' for Active; 'I' for Inactive)
REMARK    1  A    between atoms: C_2  and  C_7
REMARK    2  A    between atoms: C_4  and  C_15
REMARK    3  A    between atoms: C_15  and  C_16
REMARK    4  A    between atoms: C_15  and  C_17
REMARK                            x       y       z     vdW  Elec       q    Type
REMARK                         _______ _______ _______ _____ _____    ______ ____
ROOT
ATOM      1  C   UNL A   1     -21.993   0.426  28.741  0.00  0.00    -0.004 A 
ATOM      2  C   UNL A   1     -22.979  -0.272  28.679  0.00  0.00    -0.019 A 
ATOM      3  C   UNL A   1     -23.996  -0.073  27.802  0.00  0.00    -0.008 A 
ATOM      4  C   UNL A   1     -23.905   1.012  26.909  0.00  0.00    -0.012 A 
ATOM      5  C   UNL A   1     -21.790   1.494  27.796  0.00  0.00    -0.001 A 
ATOM      6  C   UNL A   1     -22.796   1.754  26.914  0.00  0.00    -0.004 A 
ENDROOT
BRANCH   2   7
ATOM      7  C   UNL A   1     -23.184  -1.486  29.576  0.00  0.00    +0.044 C 
ATOM      8  C   UNL A   1     -22.996  -1.356  30.956  0.00  0.00    +0.009 C 
ATOM      9  C   UNL A   1     -23.830  -2.676  29.129  0.00  0.00    -0.027 C 
ATOM     10  C   UNL A   1     -25.243  -2.863  29.244  0.00  0.00    -0.030 C 
ATOM     11  C   UNL A   1     -26.054  -2.063  30.092  0.00  0.00    +0.026 C 
ATOM     12  C   UNL A   1     -25.714  -0.865  30.533  0.00  0.00    +0.005 C 
ATOM     13  C   UNL A   1     -24.546  -0.809  31.528  0.00  0.00    +0.001 C 
ATOM     14  C   UNL A   1     -24.604  -0.401  32.877  0.00  0.00    +0.000 C 
ENDBRANCH   2   7
BRANCH   4  15
ATOM     15  C   UNL A   1     -25.041   1.264  25.935  0.00  0.00    +0.126 C 
BRANCH  15  16
ATOM     16  C   UNL A   1     -25.723   2.274  26.052  0.00  0.00    +0.368 C 
ATOM     17  O   UNL A   1     -25.549   3.360  25.555  0.00  0.00    -0.245 OA
ATOM     18  O   UNL A   1     -26.757   2.311  26.969  0.00  0.00    -0.245 OA
ENDBRANCH  15  16
BRANCH  15  19
ATOM     19  C   UNL A   1     -25.117   0.368  24.824  0.00  0.00    +0.016 C 
ATOM     20  C   UNL A   1     -26.076  -0.390  24.655  0.00  0.00    +0.001 C 
ENDBRANCH  15  19
ENDBRANCH   4  15
TORSDOF 4
ENDMDL
ENDMDL
