MODEL 17
MODEL 1
REMARK VINA RESULT:    -7.152      0.000      0.000
REMARK INTER + INTRA:          -9.762
REMARK INTER:                  -8.406
REMARK INTRA:                  -1.356
REMARK UNBOUND:                -1.356
REMARK  Name = No_17-gen_results/8p0m/2024-11-27-11-27-31/
REMARK  3 active torsions:
REMARK  status: ('A' for Active; 'I' for Inactive)
REMARK    1  A    between atoms: C_2  and  C_3
REMARK    2  A    between atoms: C_7  and  C_14
REMARK    3  A    between atoms: C_15  and  C_20
REMARK                            x       y       z     vdW  Elec       q    Type
REMARK                         _______ _______ _______ _____ _____    ______ ____
ROOT
ATOM      1  C   UNL A   1     -24.578  -0.364  27.386  0.00  0.00    +0.011 A 
ATOM      2  C   UNL A   1     -24.482  -0.790  28.514  0.00  0.00    +0.001 A 
ATOM      3  C   UNL A   1     -23.846   0.856  27.069  0.00  0.00    +0.058 A 
ATOM      4  C   UNL A   1     -23.525   1.753  28.063  0.00  0.00    +0.011 A 
ATOM      5  C   UNL A   1     -24.059   0.097  29.643  0.00  0.00    +0.000 A 
ATOM      6  C   UNL A   1     -23.568   1.345  29.371  0.00  0.00    +0.001 A 
ATOM      7 CL   UNL A   1     -23.852   1.426  25.420  0.00  0.00    -0.082 Cl
ENDROOT
BRANCH   2   8
ATOM      8  C   UNL A   1     -24.906  -2.048  28.895  0.00  0.00    +0.000 A 
ATOM      9  C   UNL A   1     -26.041  -2.244  29.319  0.00  0.00    +0.000 A 
ATOM     10  C   UNL A   1     -26.516  -3.597  29.733  0.00  0.00    +0.000 A 
ATOM     11  C   UNL A   1     -25.645  -4.672  29.644  0.00  0.00    +0.000 A 
ATOM     12  C   UNL A   1     -24.042  -3.222  28.656  0.00  0.00    +0.000 A 
ATOM     13  C   UNL A   1     -24.444  -4.499  29.069  0.00  0.00    +0.000 A 
ENDBRANCH   2   8
BRANCH   5  14
ATOM     14  C   UNL A   1     -24.138  -0.319  31.052  0.00  0.00    +0.006 A 
ATOM     15  C   UNL A   1     -24.999  -0.048  31.968  0.00  0.00    +0.080 A 
ATOM     16  C   UNL A   1     -25.033  -0.528  33.283  0.00  0.00    +0.007 A 
ATOM     17  C   UNL A   1     -23.831  -1.168  33.751  0.00  0.00    +0.000 A 
ATOM     18  C   UNL A   1     -22.983  -1.105  31.543  0.00  0.00    +0.000 A 
ATOM     19  C   UNL A   1     -22.957  -1.555  32.903  0.00  0.00    +0.000 A 
BRANCH  15  20
ATOM     20  C   UNL A   1     -26.255   0.806  31.534  0.00  0.00    +0.388 C 
ATOM     21  O   UNL A   1     -26.166   2.057  31.647  0.00  0.00    -0.241 OA
ATOM     22  O   UNL A   1     -27.291   0.205  31.115  0.00  0.00    -0.241 OA
ENDBRANCH  15  20
ENDBRANCH   5  14
TORSDOF 3
ENDMDL
ENDMDL
