MODEL 1800
MODEL 1
REMARK VINA RESULT:    -7.842      0.000      0.000
REMARK INTER + INTRA:          -9.625
REMARK INTER:                  -9.218
REMARK INTRA:                  -0.408
REMARK UNBOUND:                -0.408
REMARK  Name = No_1800-gen_results/8p0m/2024-11-27-11-27-31/
REMARK  3 active torsions:
REMARK  status: ('A' for Active; 'I' for Inactive)
REMARK    1  A    between atoms: C_5  and  O_17
REMARK    2  A    between atoms: O_17  and  C_22
REMARK    3  A    between atoms: C_23  and  C_24
REMARK                            x       y       z     vdW  Elec       q    Type
REMARK                         _______ _______ _______ _____ _____    ______ ____
ROOT
ATOM      1  C   UNL A   1     -26.902   1.166  28.378  0.00  0.00    +0.018 A 
ATOM      2  C   UNL A   1     -25.729   1.337  28.141  0.00  0.00    +0.048 A 
ATOM      3  C   UNL A   1     -25.218   1.828  26.952  0.00  0.00    -0.002 A 
ATOM      4  C   UNL A   1     -26.159   2.187  25.941  0.00  0.00    +0.035 A 
ATOM      5  C   UNL A   1     -27.456   2.138  26.285  0.00  0.00    +0.145 A 
ATOM      6  C   UNL A   1     -27.844   1.702  27.449  0.00  0.00    +0.039 A 
ATOM      7  C   UNL A   1     -23.742   1.891  26.656  0.00  0.00    +0.047 C 
ATOM      8  C   UNL A   1     -23.010   1.068  27.426  0.00  0.00    -0.005 A 
ATOM      9  C   UNL A   1     -21.547   1.161  27.354  0.00  0.00    -0.003 A 
ATOM     10  C   UNL A   1     -20.730   0.444  28.299  0.00  0.00    -0.001 A 
ATOM     11  C   UNL A   1     -21.275  -0.429  29.190  0.00  0.00    -0.003 A 
ATOM     12  C   UNL A   1     -22.678  -0.617  29.217  0.00  0.00    -0.004 A 
ATOM     13  C   UNL A   1     -23.495   0.153  28.388  0.00  0.00    +0.044 A 
ATOM     14  N   UNL A   1     -24.795   0.470  28.888  0.00  0.00    -0.282 N 
ATOM     15  C   UNL A   1     -25.256  -0.197  30.066  0.00  0.00    +0.133 C 
ATOM     16  C   UNL A   1     -23.260   2.658  25.574  0.00  0.00    +0.009 C 
ATOM     17  C   UNL A   1     -25.580  -1.568  29.735  0.00  0.00    +0.052 C 
ATOM     18  C   UNL A   1     -24.607  -2.522  29.478  0.00  0.00    -0.013 C 
ATOM     19  C   UNL A   1     -23.221  -2.021  29.079  0.00  0.00    +0.054 C 
ATOM     20 CL   UNL A   1     -27.176  -2.112  29.887  0.00  0.00    -0.086 Cl
ENDROOT
BRANCH   5  21
ATOM     21  O   UNL A   1     -28.335   2.644  25.404  0.00  0.00    -0.450 OA
BRANCH  21  22
ATOM     22  C   UNL A   1     -28.105   2.821  24.182  0.00  0.00    +0.179 C 
ATOM     23  C   UNL A   1     -28.591   2.020  23.390  0.00  0.00    +0.040 C 
BRANCH  23  24
ATOM     24  C   UNL A   1     -29.136   0.859  23.785  0.00  0.00    -0.001 C 
ATOM     25  C   UNL A   1     -28.910  -0.114  23.336  0.00  0.00    -0.026 C 
ATOM     26  C   UNL A   1     -29.583  -1.474  23.684  0.00  0.00    +0.031 C 
ENDBRANCH  23  24
ENDBRANCH  21  22
ENDBRANCH   5  21
TORSDOF 3
ENDMDL
ENDMDL
