MODEL 1801
MODEL 1
REMARK VINA RESULT:    -5.155      0.000      0.000
REMARK INTER + INTRA:          -5.538
REMARK INTER:                  -5.456
REMARK INTRA:                  -0.082
REMARK UNBOUND:                -0.082
REMARK  Name = No_1801-gen_results/8p0m/2024-11-27-11-27-31/
REMARK  1 active torsions:
REMARK  status: ('A' for Active; 'I' for Inactive)
REMARK    1  A    between atoms: C_5  and  C_8
REMARK                            x       y       z     vdW  Elec       q    Type
REMARK                         _______ _______ _______ _____ _____    ______ ____
ROOT
ATOM      1  C   UNL A   1     -26.538  -3.952  29.817  0.00  0.00    -0.087 C 
ATOM      2  C   UNL A   1     -26.126  -4.914  29.692  0.00  0.00    -0.090 C 
ATOM      3  C   UNL A   1     -25.908  -2.641  29.575  0.00  0.00    +0.098 C 
ATOM      4  C   UNL A   1     -24.568  -2.769  28.940  0.00  0.00    -0.035 C 
ATOM      5  C   UNL A   1     -23.790  -1.596  28.661  0.00  0.00    -0.034 C 
ATOM      6  C   UNL A   1     -24.819  -5.241  29.002  0.00  0.00    +0.080 C 
ATOM      7  C   UNL A   1     -24.055  -4.088  28.639  0.00  0.00    +0.037 C 
ENDROOT
BRANCH   5   8
ATOM      8  C   UNL A   1     -22.987  -1.110  29.634  0.00  0.00    +0.025 C 
ATOM      9  C   UNL A   1     -21.871  -0.373  29.497  0.00  0.00    +0.005 C 
ENDBRANCH   5   8
TORSDOF 1
ENDMDL
ENDMDL
