REMARK  Name = No_1802-gen_results/8p0m/2024-11-27-11-27-31/
REMARK  4 active torsions:
REMARK  status: ('A' for Active; 'I' for Inactive)
REMARK    1  A    between atoms: C_7  and  C_8
REMARK    2  A    between atoms: N_9  and  C_11
REMARK    3  A    between atoms: C_14  and  C_15
REMARK    4  A    between atoms: C_16  and  C_17
REMARK                            x       y       z     vdW  Elec       q    Type
REMARK                         _______ _______ _______ _____ _____    ______ ____
ROOT
ATOM      1  F   UNL A   1     -28.073  -1.254  28.532  0.00  0.00    -0.202 F 
ATOM      2  C   UNL A   1     -27.359  -0.379  28.722  0.00  0.00    +0.172 A 
ATOM      3  C   UNL A   1     -26.332  -0.644  29.452  0.00  0.00    +0.171 A 
ATOM      4  C   UNL A   1     -25.256   0.320  29.782  0.00  0.00    +0.074 A 
ATOM      5  C   UNL A   1     -25.424   1.627  29.203  0.00  0.00    +0.198 A 
ATOM      6  C   UNL A   1     -26.526   1.825  28.403  0.00  0.00    +0.049 A 
ATOM      7  C   UNL A   1     -27.451   0.860  28.136  0.00  0.00    +0.088 A 
ATOM      8  O   UNL A   1     -24.524   2.568  29.507  0.00  0.00    -0.286 OA
ATOM      9  F   UNL A   1     -26.048  -1.816  30.065  0.00  0.00    -0.202 F 
ENDROOT
BRANCH   7  10
ATOM     10  C   UNL A   1     -28.540   1.202  27.245  0.00  0.00    +0.271 C 
ATOM     11  N   UNL A   1     -28.488   1.942  26.271  0.00  0.00    -0.174 NA
ATOM     12  O   UNL A   1     -29.472   0.311  27.163  0.00  0.00    -0.268 OA
BRANCH  11  13
ATOM     13  C   UNL A   1     -29.517   2.186  25.247  0.00  0.00    +0.089 C 
ATOM     14  C   UNL A   1     -29.861   3.093  24.988  0.00  0.00    +0.018 C 
BRANCH  14  15
ATOM     15  C   UNL A   1     -30.941   3.405  23.930  0.00  0.00    +0.001 C 
ATOM     16  C   UNL A   1     -31.587   4.556  23.672  0.00  0.00    +0.000 C 
BRANCH  16  17
ATOM     17  C   UNL A   1     -32.735   4.476  22.884  0.00  0.00    +0.000 C 
ATOM     18  C   UNL A   1     -32.948   3.278  22.092  0.00  0.00    +0.000 C 
ENDBRANCH  16  17
ENDBRANCH  14  15
ENDBRANCH  11  13
ENDBRANCH   7  10
TORSDOF 4
