MODEL 1802
MODEL 1
REMARK VINA RESULT:    -5.754      0.000      0.000
REMARK INTER + INTRA:          -7.441
REMARK INTER:                  -7.100
REMARK INTRA:                  -0.341
REMARK UNBOUND:                -0.341
REMARK  Name = No_1802-gen_results/8p0m/2024-11-27-11-27-31/
REMARK  4 active torsions:
REMARK  status: ('A' for Active; 'I' for Inactive)
REMARK    1  A    between atoms: C_7  and  C_8
REMARK    2  A    between atoms: N_9  and  C_11
REMARK    3  A    between atoms: C_14  and  C_15
REMARK    4  A    between atoms: C_16  and  C_17
REMARK                            x       y       z     vdW  Elec       q    Type
REMARK                         _______ _______ _______ _____ _____    ______ ____
ROOT
ATOM      1  F   UNL A   1     -22.694   2.653  25.844  0.00  0.00    -0.202 F 
ATOM      2  C   UNL A   1     -22.893   1.774  26.552  0.00  0.00    +0.172 A 
ATOM      3  C   UNL A   1     -21.974   1.538  27.422  0.00  0.00    +0.171 A 
ATOM      4  C   UNL A   1     -22.045   0.488  28.465  0.00  0.00    +0.074 A 
ATOM      5  C   UNL A   1     -23.262  -0.281  28.459  0.00  0.00    +0.198 A 
ATOM      6  C   UNL A   1     -24.215   0.054  27.525  0.00  0.00    +0.049 A 
ATOM      7  C   UNL A   1     -24.066   1.062  26.619  0.00  0.00    +0.088 A 
ATOM      8  O   UNL A   1     -23.372  -1.287  29.333  0.00  0.00    -0.286 OA
ATOM      9  F   UNL A   1     -20.783   2.168  27.541  0.00  0.00    -0.202 F 
ENDROOT
BRANCH   7  10
ATOM     10  C   UNL A   1     -25.170   1.325  25.720  0.00  0.00    +0.271 C 
ATOM     11  N   UNL A   1     -25.841   0.497  25.118  0.00  0.00    -0.174 NA
ATOM     12  O   UNL A   1     -25.800   2.430  25.947  0.00  0.00    -0.268 OA
BRANCH  11  13
ATOM     13  C   UNL A   1     -27.068   0.705  24.332  0.00  0.00    +0.089 C 
ATOM     14  C   UNL A   1     -27.879   0.114  24.371  0.00  0.00    +0.018 C 
BRANCH  14  15
ATOM     15  C   UNL A   1     -29.185   0.281  23.566  0.00  0.00    +0.001 C 
ATOM     16  C   UNL A   1     -29.869   1.397  23.255  0.00  0.00    +0.000 C 
BRANCH  16  17
ATOM     17  C   UNL A   1     -31.176   1.232  22.798  0.00  0.00    +0.000 C 
ATOM     18  C   UNL A   1     -31.713   2.212  21.871  0.00  0.00    +0.000 C 
ENDBRANCH  16  17
ENDBRANCH  14  15
ENDBRANCH  11  13
ENDBRANCH   7  10
TORSDOF 4
ENDMDL
ENDMDL
