MODEL 1803
MODEL 1
REMARK VINA RESULT:    -7.111      0.000      0.000
REMARK INTER + INTRA:          -9.868
REMARK INTER:                  -8.358
REMARK INTRA:                  -1.509
REMARK UNBOUND:                -1.509
REMARK  Name = No_1803-gen_results/8p0m/2024-11-27-11-27-31/
REMARK  3 active torsions:
REMARK  status: ('A' for Active; 'I' for Inactive)
REMARK    1  A    between atoms: C_3  and  C_7
REMARK    2  A    between atoms: C_8  and  C_19
REMARK    3  A    between atoms: C_10  and  C_11
REMARK                            x       y       z     vdW  Elec       q    Type
REMARK                         _______ _______ _______ _____ _____    ______ ____
ROOT
ATOM      1  C   UNL A   1     -23.726   0.786  27.173  0.00  0.00    +0.006 A 
ATOM      2  C   UNL A   1     -22.967   1.648  26.784  0.00  0.00    +0.080 A 
ATOM      3  C   UNL A   1     -21.566   1.676  27.264  0.00  0.00    +0.007 A 
ATOM      4  C   UNL A   1     -23.338  -0.144  28.165  0.00  0.00    +0.000 A 
ATOM      5  C   UNL A   1     -21.239   0.812  28.344  0.00  0.00    +0.000 A 
ATOM      6  C   UNL A   1     -22.158  -0.021  28.801  0.00  0.00    +0.000 A 
ENDROOT
BRANCH   1   9
ATOM      7  C   UNL A   1     -25.398  -0.110  25.451  0.00  0.00    +0.000 A 
ATOM      8  C   UNL A   1     -26.406  -0.194  25.156  0.00  0.00    +0.000 A 
ATOM      9  C   UNL A   1     -25.114   0.622  26.624  0.00  0.00    +0.000 A 
ATOM     10  C   UNL A   1     -26.108   1.227  27.367  0.00  0.00    +0.000 A 
ATOM     11  C   UNL A   1     -27.641   0.344  25.761  0.00  0.00    +0.000 A 
ATOM     12  C   UNL A   1     -27.413   1.054  26.887  0.00  0.00    +0.000 A 
ENDBRANCH   1   9
BRANCH   4  13
ATOM     13  C   UNL A   1     -24.365  -1.169  28.672  0.00  0.00    +0.000 A 
ATOM     14  C   UNL A   1     -24.767  -2.232  28.528  0.00  0.00    +0.000 A 
ATOM     15  C   UNL A   1     -25.698  -2.874  29.299  0.00  0.00    +0.000 A 
ATOM     16  C   UNL A   1     -24.956  -0.785  30.058  0.00  0.00    +0.000 A 
ATOM     17  C   UNL A   1     -25.712  -1.395  30.650  0.00  0.00    +0.000 A 
ATOM     18  C   UNL A   1     -26.276  -2.500  30.420  0.00  0.00    +0.000 A 
ENDBRANCH   4  13
BRANCH   2  19
ATOM     19  C   UNL A   1     -23.147   2.612  25.630  0.00  0.00    +0.388 C 
ATOM     20  O   UNL A   1     -22.373   2.537  24.763  0.00  0.00    -0.241 OA
ATOM     21  O   UNL A   1     -23.899   3.621  25.808  0.00  0.00    -0.241 OA
ENDBRANCH   2  19
TORSDOF 3
ENDMDL
ENDMDL
