MODEL 1804
MODEL 1
REMARK VINA RESULT:    -6.909      0.000      0.000
REMARK INTER + INTRA:          -9.220
REMARK INTER:                  -8.525
REMARK INTRA:                  -0.696
REMARK UNBOUND:                -0.696
REMARK  Name = No_1804-gen_results/8p0m/2024-11-27-11-27-31/
REMARK  4 active torsions:
REMARK  status: ('A' for Active; 'I' for Inactive)
REMARK    1  A    between atoms: C_1  and  O_15
REMARK    2  A    between atoms: C_3  and  C_8
REMARK    3  A    between atoms: O_15  and  C_16
REMARK    4  A    between atoms: C_16  and  C_17
REMARK                            x       y       z     vdW  Elec       q    Type
REMARK                         _______ _______ _______ _____ _____    ______ ____
ROOT
ATOM      1  C   UNL A   1     -23.837   0.509  27.484  0.00  0.00    +0.159 A 
ATOM      2  C   UNL A   1     -24.476  -0.495  27.696  0.00  0.00    +0.038 A 
ATOM      3  C   UNL A   1     -24.046  -1.520  28.538  0.00  0.00    +0.003 A 
ATOM      4  C   UNL A   1     -22.738  -1.422  29.157  0.00  0.00    +0.001 A 
ATOM      5  C   UNL A   1     -22.046  -0.227  28.856  0.00  0.00    +0.015 A 
ATOM      6  C   UNL A   1     -22.531   0.679  28.046  0.00  0.00    +0.092 A 
ATOM      7 CL   UNL A   1     -21.548   2.038  27.717  0.00  0.00    -0.079 Cl
ENDROOT
BRANCH   3   8
ATOM      8  C   UNL A   1     -24.794  -2.786  28.861  0.00  0.00    +0.001 A 
ATOM      9  C   UNL A   1     -24.267  -3.978  28.734  0.00  0.00    +0.000 A 
ATOM     10  C   UNL A   1     -25.016  -5.129  29.061  0.00  0.00    +0.001 A 
ATOM     11  C   UNL A   1     -26.271  -4.926  29.793  0.00  0.00    +0.011 A 
ATOM     12  C   UNL A   1     -26.072  -2.818  29.558  0.00  0.00    +0.011 A 
ATOM     13  C   UNL A   1     -26.747  -3.808  29.953  0.00  0.00    +0.058 A 
ATOM     14 CL   UNL A   1     -28.265  -3.614  30.755  0.00  0.00    -0.082 Cl
ENDBRANCH   3   8
BRANCH   1  15
ATOM     15  O   UNL A   1     -24.231   1.498  26.636  0.00  0.00    -0.416 OA
BRANCH  15  16
ATOM     16  C   UNL A   1     -25.278   2.286  27.031  0.00  0.00    +0.427 C 
ATOM     17  O   UNL A   1     -26.465   2.098  26.661  0.00  0.00    -0.237 OA
BRANCH  16  18
ATOM     18  C   UNL A   1     -24.959   3.312  27.809  0.00  0.00    +0.463 C 
ATOM     19  O   UNL A   1     -24.496   4.299  27.410  0.00  0.00    -0.233 OA
ATOM     20  O   UNL A   1     -25.183   3.255  29.083  0.00  0.00    -0.233 OA
ENDBRANCH  16  18
ENDBRANCH  15  16
ENDBRANCH   1  15
TORSDOF 4
ENDMDL
ENDMDL
