REMARK  Name = No_1805-gen_results/8p0m/2024-11-27-11-27-31/
REMARK  0 active torsions:
REMARK  status: ('A' for Active; 'I' for Inactive)
REMARK                            x       y       z     vdW  Elec       q    Type
REMARK                         _______ _______ _______ _____ _____    ______ ____
ROOT
ATOM      1  N   UNL A   1     -28.054  -1.050  28.725  0.00  0.00    -0.234 NA
ATOM      2  C   UNL A   1     -26.966  -0.472  28.771  0.00  0.00    +0.080 A 
ATOM      3  C   UNL A   1     -25.929  -1.020  29.506  0.00  0.00    +0.080 A 
ATOM      4  C   UNL A   1     -24.631  -0.446  29.599  0.00  0.00    +0.017 A 
ATOM      5  C   UNL A   1     -24.403   0.789  28.931  0.00  0.00    +0.001 A 
ATOM      6  C   UNL A   1     -25.477   1.331  28.173  0.00  0.00    +0.001 A 
ATOM      7  C   UNL A   1     -26.674   0.717  28.081  0.00  0.00    +0.017 A 
ATOM      8  C   UNL A   1     -28.605  -1.526  29.916  0.00  0.00    +0.136 C 
ATOM      9  C   UNL A   1     -27.745  -2.464  30.616  0.00  0.00    +0.136 C 
ATOM     10  N   UNL A   1     -26.351  -1.934  30.653  0.00  0.00    -0.234 NA
ENDROOT
TORSDOF 0
