MODEL 1805
MODEL 1
REMARK VINA RESULT:    -5.057      0.000      0.000
REMARK INTER + INTRA:          -5.057
REMARK INTER:                  -5.057
REMARK INTRA:                   0.000
REMARK UNBOUND:                 0.000
REMARK  Name = No_1805-gen_results/8p0m/2024-11-27-11-27-31/
REMARK  0 active torsions:
REMARK  status: ('A' for Active; 'I' for Inactive)
REMARK                            x       y       z     vdW  Elec       q    Type
REMARK                         _______ _______ _______ _____ _____    ______ ____
ROOT
ATOM      1  N   UNL A   1     -23.198  -2.019  28.898  0.00  0.00    -0.234 NA
ATOM      2  C   UNL A   1     -24.065  -2.873  29.097  0.00  0.00    +0.080 A 
ATOM      3  C   UNL A   1     -25.267  -2.507  29.679  0.00  0.00    +0.080 A 
ATOM      4  C   UNL A   1     -26.337  -3.411  29.924  0.00  0.00    +0.017 A 
ATOM      5  C   UNL A   1     -26.139  -4.780  29.593  0.00  0.00    +0.001 A 
ATOM      6  C   UNL A   1     -24.902  -5.134  28.987  0.00  0.00    +0.001 A 
ATOM      7  C   UNL A   1     -23.940  -4.224  28.733  0.00  0.00    +0.017 A 
ATOM      8  C   UNL A   1     -22.899  -1.122  29.925  0.00  0.00    +0.136 C 
ATOM      9  C   UNL A   1     -24.046  -0.352  30.372  0.00  0.00    +0.136 C 
ATOM     10  N   UNL A   1     -25.218  -1.258  30.553  0.00  0.00    -0.234 NA
ENDROOT
TORSDOF 0
ENDMDL
ENDMDL
