REMARK  Name = No_1807-gen_results/8p0m/2024-11-27-11-27-31/
REMARK  2 active torsions:
REMARK  status: ('A' for Active; 'I' for Inactive)
REMARK    1  A    between atoms: C_2  and  C_7
REMARK    2  A    between atoms: C_7  and  C_8
REMARK                            x       y       z     vdW  Elec       q    Type
REMARK                         _______ _______ _______ _____ _____    ______ ____
ROOT
ATOM      1  C   UNL A   1     -27.106   1.102  27.759  0.00  0.00    +0.053 C 
ENDROOT
BRANCH   1   3
ATOM      2  C   UNL A   1     -28.016  -0.814  28.878  0.00  0.00    -0.004 A 
ATOM      3  C   UNL A   1     -27.064  -0.119  28.608  0.00  0.00    -0.018 A 
ATOM      4  C   UNL A   1     -25.792  -0.430  29.076  0.00  0.00    -0.004 A 
ATOM      5  C   UNL A   1     -25.576  -1.565  29.936  0.00  0.00    -0.000 A 
ATOM      6  C   UNL A   1     -26.735  -2.300  30.217  0.00  0.00    -0.000 A 
ATOM      7  C   UNL A   1     -27.918  -1.954  29.763  0.00  0.00    -0.000 A 
ENDBRANCH   1   3
BRANCH   1   8
ATOM      8  C   UNL A   1     -26.716   2.235  27.994  0.00  0.00    -0.018 A 
ATOM      9  C   UNL A   1     -26.069   2.477  29.357  0.00  0.00    -0.004 A 
ATOM     10  C   UNL A   1     -25.440   3.764  29.560  0.00  0.00    -0.000 A 
ATOM     11  C   UNL A   1     -25.522   4.722  28.622  0.00  0.00    -0.000 A 
ATOM     12  C   UNL A   1     -26.012   4.499  27.353  0.00  0.00    -0.000 A 
ATOM     13  C   UNL A   1     -26.592   3.265  27.052  0.00  0.00    -0.004 A 
ENDBRANCH   1   8
TORSDOF 2
