MODEL 1807
MODEL 1
REMARK VINA RESULT:    -6.837      0.000      0.000
REMARK INTER + INTRA:          -7.936
REMARK INTER:                  -7.636
REMARK INTRA:                  -0.300
REMARK UNBOUND:                -0.300
REMARK  Name = No_1807-gen_results/8p0m/2024-11-27-11-27-31/
REMARK  2 active torsions:
REMARK  status: ('A' for Active; 'I' for Inactive)
REMARK    1  A    between atoms: C_2  and  C_7
REMARK    2  A    between atoms: C_7  and  C_8
REMARK                            x       y       z     vdW  Elec       q    Type
REMARK                         _______ _______ _______ _____ _____    ______ ____
ROOT
ATOM      1  C   UNL A   1     -24.444  -1.135  29.070  0.00  0.00    +0.053 C 
ENDROOT
BRANCH   1   3
ATOM      2  C   UNL A   1     -23.860  -3.418  28.626  0.00  0.00    -0.004 A 
ATOM      3  C   UNL A   1     -24.644  -2.609  29.065  0.00  0.00    -0.018 A 
ATOM      4  C   UNL A   1     -25.843  -3.011  29.642  0.00  0.00    -0.004 A 
ATOM      5  C   UNL A   1     -26.210  -4.403  29.695  0.00  0.00    -0.000 A 
ATOM      6  C   UNL A   1     -25.256  -5.268  29.143  0.00  0.00    -0.000 A 
ATOM      7  C   UNL A   1     -24.145  -4.836  28.593  0.00  0.00    -0.000 A 
ENDBRANCH   1   3
BRANCH   1   8
ATOM      8  C   UNL A   1     -23.554  -0.462  28.573  0.00  0.00    -0.018 A 
ATOM      9  C   UNL A   1     -23.977   0.635  27.597  0.00  0.00    -0.004 A 
ATOM     10  C   UNL A   1     -22.946   1.549  27.157  0.00  0.00    -0.000 A 
ATOM     11  C   UNL A   1     -21.666   1.363  27.520  0.00  0.00    -0.000 A 
ATOM     12  C   UNL A   1     -21.274   0.446  28.472  0.00  0.00    -0.000 A 
ATOM     13  C   UNL A   1     -22.216  -0.444  28.990  0.00  0.00    -0.004 A 
ENDBRANCH   1   8
TORSDOF 2
ENDMDL
ENDMDL
