MODEL 1808
MODEL 1
REMARK VINA RESULT:    -6.558      0.000      0.000
REMARK INTER + INTRA:          -8.401
REMARK INTER:                  -7.708
REMARK INTRA:                  -0.693
REMARK UNBOUND:                -0.693
REMARK  Name = No_1808-gen_results/8p0m/2024-11-27-11-27-31/
REMARK  3 active torsions:
REMARK  status: ('A' for Active; 'I' for Inactive)
REMARK    1  A    between atoms: C_5  and  C_15
REMARK    2  A    between atoms: C_15  and  O_17
REMARK    3  A    between atoms: O_17  and  C_18
REMARK                            x       y       z     vdW  Elec       q    Type
REMARK                         _______ _______ _______ _____ _____    ______ ____
ROOT
ATOM      1  N   UNL A   1     -26.968  -0.799  32.131  0.00  0.00    -0.244 NA
ATOM      2  C   UNL A   1     -26.188  -0.595  31.439  0.00  0.00    +0.081 A 
ATOM      3  C   UNL A   1     -25.814  -1.528  30.533  0.00  0.00    +0.018 A 
ATOM      4  C   UNL A   1     -24.657  -1.433  29.593  0.00  0.00    +0.008 A 
ATOM      5  C   UNL A   1     -23.881  -0.273  29.769  0.00  0.00    +0.076 A 
ATOM      6  C   UNL A   1     -24.214   0.667  30.769  0.00  0.00    +0.008 A 
ATOM      7  C   UNL A   1     -25.269   0.509  31.625  0.00  0.00    +0.018 A 
ATOM      8  C   UNL A   1     -26.797  -0.376  33.481  0.00  0.00    +0.099 A 
ATOM      9  C   UNL A   1     -26.124   0.847  33.779  0.00  0.00    +0.021 A 
ATOM     10  C   UNL A   1     -25.480   1.390  32.812  0.00  0.00    +0.003 A 
ATOM     11  C   UNL A   1     -26.567  -2.766  30.232  0.00  0.00    +0.002 A 
ATOM     12  C   UNL A   1     -25.983  -3.933  29.790  0.00  0.00    +0.000 A 
ATOM     13  C   UNL A   1     -24.879  -3.797  28.903  0.00  0.00    +0.000 A 
ATOM     14  C   UNL A   1     -24.071  -2.568  28.958  0.00  0.00    +0.000 A 
ENDROOT
BRANCH   5  15
ATOM     15  C   UNL A   1     -22.681  -0.105  28.900  0.00  0.00    +0.346 C 
ATOM     16  O   UNL A   1     -21.601  -0.070  29.369  0.00  0.00    -0.244 OA
BRANCH  15  17
ATOM     17  O   UNL A   1     -22.896  -0.078  27.628  0.00  0.00    -0.421 OA
BRANCH  17  18
ATOM     18  C   UNL A   1     -23.670   0.938  27.160  0.00  0.00    +0.149 A 
ATOM     19  C   UNL A   1     -24.573   0.531  26.456  0.00  0.00    +0.038 A 
ATOM     20  C   UNL A   1     -25.507   1.538  25.887  0.00  0.00    +0.003 A 
ATOM     21  C   UNL A   1     -25.268   2.902  26.124  0.00  0.00    +0.000 A 
ATOM     22  C   UNL A   1     -24.169   3.212  26.923  0.00  0.00    +0.003 A 
ATOM     23  C   UNL A   1     -23.332   2.291  27.410  0.00  0.00    +0.038 A 
ENDBRANCH  17  18
ENDBRANCH  15  17
ENDBRANCH   5  15
TORSDOF 3
ENDMDL
ENDMDL
