REMARK  Name = No_1808-gen_results/8p0m/2024-11-27-11-27-31/
REMARK  3 active torsions:
REMARK  status: ('A' for Active; 'I' for Inactive)
REMARK    1  A    between atoms: C_5  and  C_15
REMARK    2  A    between atoms: C_15  and  O_17
REMARK    3  A    between atoms: O_17  and  C_18
REMARK                            x       y       z     vdW  Elec       q    Type
REMARK                         _______ _______ _______ _____ _____    ______ ____
ROOT
ATOM      1  N   UNL A   1     -28.054  -1.050  28.725  0.00  0.00    -0.244 NA
ATOM      2  C   UNL A   1     -27.746  -0.073  29.010  0.00  0.00    +0.081 A 
ATOM      3  C   UNL A   1     -27.174   0.756  28.107  0.00  0.00    +0.018 A 
ATOM      4  C   UNL A   1     -26.577   2.096  28.392  0.00  0.00    +0.008 A 
ATOM      5  C   UNL A   1     -26.576   2.434  29.757  0.00  0.00    +0.076 A 
ATOM      6  C   UNL A   1     -27.095   1.539  30.718  0.00  0.00    +0.008 A 
ATOM      7  C   UNL A   1     -27.599   0.308  30.400  0.00  0.00    +0.018 A 
ATOM      8  C   UNL A   1     -27.793  -2.126  29.622  0.00  0.00    +0.099 A 
ATOM      9  C   UNL A   1     -27.875  -1.930  31.034  0.00  0.00    +0.021 A 
ATOM     10  C   UNL A   1     -27.939  -0.714  31.435  0.00  0.00    +0.003 A 
ATOM     11  C   UNL A   1     -27.147   0.528  26.645  0.00  0.00    +0.002 A 
ATOM     12  C   UNL A   1     -26.153   0.994  25.812  0.00  0.00    +0.000 A 
ATOM     13  C   UNL A   1     -25.607   2.270  26.124  0.00  0.00    +0.000 A 
ATOM     14  C   UNL A   1     -25.652   2.741  27.518  0.00  0.00    +0.000 A 
ENDROOT
BRANCH   5  15
ATOM     15  C   UNL A   1     -25.968   3.739  30.146  0.00  0.00    +0.346 C 
ATOM     16  O   UNL A   1     -25.093   3.782  30.933  0.00  0.00    -0.244 OA
BRANCH  15  17
ATOM     17  O   UNL A   1     -26.403   4.781  29.521  0.00  0.00    -0.421 OA
BRANCH  17  18
ATOM     18  C   UNL A   1     -27.107   5.684  30.255  0.00  0.00    +0.149 A 
ATOM     19  C   UNL A   1     -27.846   6.354  29.560  0.00  0.00    +0.038 A 
ATOM     20  C   UNL A   1     -28.688   7.375  30.237  0.00  0.00    +0.003 A 
ATOM     21  C   UNL A   1     -28.544   7.569  31.621  0.00  0.00    +0.000 A 
ATOM     22  C   UNL A   1     -27.629   6.746  32.274  0.00  0.00    +0.003 A 
ATOM     23  C   UNL A   1     -26.869   5.846  31.642  0.00  0.00    +0.038 A 
ENDBRANCH  17  18
ENDBRANCH  15  17
ENDBRANCH   5  15
TORSDOF 3
