MODEL 1809
MODEL 1
REMARK VINA RESULT:    -6.571      0.000      0.000
REMARK INTER + INTRA:          -7.308
REMARK INTER:                  -6.955
REMARK INTRA:                  -0.353
REMARK UNBOUND:                -0.353
REMARK  Name = No_1809-gen_results/8p0m/2024-11-27-11-27-31/
REMARK  1 active torsions:
REMARK  status: ('A' for Active; 'I' for Inactive)
REMARK    1  A    between atoms: C_2  and  C_7
REMARK                            x       y       z     vdW  Elec       q    Type
REMARK                         _______ _______ _______ _____ _____    ______ ____
ROOT
ATOM      1  C   UNL A   1     -25.651  -2.495  29.643  0.00  0.00    +0.000 A 
ATOM      2  C   UNL A   1     -24.563  -2.629  29.131  0.00  0.00    +0.000 A 
ATOM      3  C   UNL A   1     -24.101  -3.883  28.745  0.00  0.00    +0.000 A 
ATOM      4  C   UNL A   1     -24.885  -5.067  28.983  0.00  0.00    +0.000 A 
ATOM      5  C   UNL A   1     -26.119  -4.824  29.600  0.00  0.00    +0.000 A 
ATOM      6  C   UNL A   1     -26.502  -3.620  29.961  0.00  0.00    +0.000 A 
ENDROOT
BRANCH   2   7
ATOM      7  C   UNL A   1     -23.612  -1.525  28.836  0.00  0.00    +0.000 A 
ATOM      8  C   UNL A   1     -22.685  -1.304  29.206  0.00  0.00    +0.000 A 
ATOM      9  C   UNL A   1     -21.783  -0.119  28.953  0.00  0.00    +0.000 A 
ATOM     10  C   UNL A   1     -22.275   0.884  28.140  0.00  0.00    +0.000 A 
ATOM     11  C   UNL A   1     -23.566   0.757  27.622  0.00  0.00    +0.000 A 
ATOM     12  C   UNL A   1     -24.279  -0.374  27.891  0.00  0.00    +0.000 A 
ENDBRANCH   2   7
TORSDOF 1
ENDMDL
ENDMDL
