MODEL 180
MODEL 1
REMARK VINA RESULT:    -5.659      0.000      0.000
REMARK INTER + INTRA:          -5.659
REMARK INTER:                  -5.659
REMARK INTRA:                   0.000
REMARK UNBOUND:                 0.000
REMARK  Name = No_180-gen_results/8p0m/2024-11-27-11-27-31/
REMARK  0 active torsions:
REMARK  status: ('A' for Active; 'I' for Inactive)
REMARK                            x       y       z     vdW  Elec       q    Type
REMARK                         _______ _______ _______ _____ _____    ______ ____
ROOT
ATOM      1  C   UNL A   1     -25.187  -1.047  27.836  0.00  0.00    -0.004 A 
ATOM      2  C   UNL A   1     -24.958  -1.818  28.516  0.00  0.00    -0.000 A 
ATOM      3  C   UNL A   1     -24.208  -0.054  27.612  0.00  0.00    -0.018 A 
ATOM      4  C   UNL A   1     -22.990  -0.068  28.264  0.00  0.00    -0.004 A 
ATOM      5  C   UNL A   1     -21.956   0.934  28.059  0.00  0.00    -0.000 C 
ATOM      6  C   UNL A   1     -23.792  -2.140  29.328  0.00  0.00    -0.000 A 
ATOM      7  C   UNL A   1     -22.744  -1.150  29.148  0.00  0.00    -0.000 A 
ATOM      8  C   UNL A   1     -22.032   1.924  27.360  0.00  0.00    -0.000 C 
ATOM      9  C   UNL A   1     -22.841   2.037  26.276  0.00  0.00    -0.004 C 
ATOM     10  C   UNL A   1     -24.115   1.580  26.043  0.00  0.00    -0.021 C 
ATOM     11  C   UNL A   1     -24.464   0.860  26.546  0.00  0.00    +0.052 C 
ENDROOT
TORSDOF 0
ENDMDL
ENDMDL
