MODEL 1810
MODEL 1
REMARK VINA RESULT:    -4.323      0.000      0.000
REMARK INTER + INTRA:          -4.323
REMARK INTER:                  -4.323
REMARK INTRA:                   0.000
REMARK UNBOUND:                 0.000
REMARK  Name = No_1810-gen_results/8p0m/2024-11-27-11-27-31/
REMARK  0 active torsions:
REMARK  status: ('A' for Active; 'I' for Inactive)
REMARK                            x       y       z     vdW  Elec       q    Type
REMARK                         _______ _______ _______ _____ _____    ______ ____
ROOT
ATOM      1  C   UNL A   1     -24.781  -2.692  29.057  0.00  0.00    +0.000 A 
ATOM      2  C   UNL A   1     -24.048  -3.353  28.687  0.00  0.00    +0.000 A 
ATOM      3  C   UNL A   1     -25.926  -3.374  29.672  0.00  0.00    +0.000 A 
ATOM      4  C   UNL A   1     -26.098  -4.695  29.597  0.00  0.00    +0.000 A 
ATOM      5  C   UNL A   1     -24.019  -4.781  28.481  0.00  0.00    +0.000 A 
ATOM      6  C   UNL A   1     -25.103  -5.394  29.037  0.00  0.00    +0.000 A 
ENDROOT
TORSDOF 0
ENDMDL
ENDMDL
