MODEL 1811
MODEL 1
REMARK VINA RESULT:    -5.829      0.000      0.000
REMARK INTER + INTRA:          -6.307
REMARK INTER:                  -6.170
REMARK INTRA:                  -0.137
REMARK UNBOUND:                -0.137
REMARK  Name = No_1811-gen_results/8p0m/2024-11-27-11-27-31/
REMARK  1 active torsions:
REMARK  status: ('A' for Active; 'I' for Inactive)
REMARK    1  A    between atoms: C_9  and  C_11
REMARK                            x       y       z     vdW  Elec       q    Type
REMARK                         _______ _______ _______ _____ _____    ______ ____
ROOT
ATOM      1  C   UNL A   1     -24.482  -4.926  28.738  0.00  0.00    -0.000 A 
ATOM      2  C   UNL A   1     -23.885  -3.874  28.731  0.00  0.00    -0.004 A 
ATOM      3  C   UNL A   1     -24.345  -2.723  29.368  0.00  0.00    -0.022 A 
ATOM      4  C   UNL A   1     -25.633  -2.750  30.033  0.00  0.00    -0.026 A 
ATOM      5  C   UNL A   1     -26.174  -1.668  30.682  0.00  0.00    +0.026 C 
ATOM      6  C   UNL A   1     -25.835  -5.033  29.285  0.00  0.00    -0.000 A 
ATOM      7  C   UNL A   1     -26.386  -3.944  29.960  0.00  0.00    -0.005 A 
ATOM      8  C   UNL A   1     -25.312  -0.979  31.569  0.00  0.00    +0.005 C 
ATOM      9  C   UNL A   1     -23.579  -1.468  29.603  0.00  0.00    +0.044 C 
ATOM     10  C   UNL A   1     -24.155  -0.369  30.575  0.00  0.00    +0.009 C 
ENDROOT
BRANCH   9  11
ATOM     11  C   UNL A   1     -22.355  -1.120  29.024  0.00  0.00    -0.022 C 
ATOM     12  C   UNL A   1     -21.868  -0.018  29.020  0.00  0.00    -0.005 C 
ENDBRANCH   9  11
TORSDOF 1
ENDMDL
ENDMDL
