REMARK  Name = outputs/IAG933/test6/raw/output_1811_IAG933_linker_design_.xyz
REMARK  7 active torsions:
REMARK  status: ('A' for Active; 'I' for Inactive)
REMARK    1  A    between atoms: C_1  and  C_2
REMARK    2  A    between atoms: C_13  and  C_32
REMARK    3  A    between atoms: C_14  and  C_15
REMARK    4  A    between atoms: C_21  and  O_22
REMARK    5  A    between atoms: O_22  and  C_23
REMARK    6  A    between atoms: C_23  and  C_24
REMARK    7  A    between atoms: C_29  and  C_38
REMARK                            x       y       z     vdW  Elec       q    Type
REMARK                         _______ _______ _______ _____ _____    ______ ____
ROOT
ATOM      1  C   UNL A   1     -24.855  -1.012  30.143  0.00  0.00    +0.060 C 
ATOM      2  C   UNL A   1     -25.387  -0.679  31.571  0.00  0.00    +0.079 C 
ATOM      3  C   UNL A   1     -25.189   0.773  32.028  0.00  0.00    +0.029 C 
ATOM      4  C   UNL A   1     -25.336   0.684  33.544  0.00  0.00    +0.021 C 
ATOM      5  C   UNL A   1     -24.829  -0.715  33.905  0.00  0.00    +0.089 C 
ATOM      6  N   UNL A   1     -24.758  -1.481  32.646  0.00  0.00    -0.219 NA
ATOM      7  C   UNL A   1     -24.992  -0.224  28.832  0.00  0.00    +0.119 C 
ATOM      8  C   UNL A   1     -24.771   1.718  30.776  0.00  0.00    +0.109 C 
ATOM      9  C   UNL A   1     -23.093   1.381  28.729  0.00  0.00    -0.025 C 
ATOM     10  C   UNL A   1     -23.291   1.511  25.949  0.00  0.00    +0.054 C 
ATOM     11  C   UNL A   1     -24.308   1.302  26.830  0.00  0.00    -0.007 C 
ATOM     12  C   UNL A   1     -24.129   0.782  28.088  0.00  0.00    -0.011 C 
ATOM     13  C   UNL A   1     -22.009   1.758  26.536  0.00  0.00    +0.011 C 
ATOM     14  C   UNL A   1     -23.289   1.711  30.236  0.00  0.00    +0.037 C 
ATOM     15  N   UNL A   1     -26.512  -0.133  28.605  0.00  0.00    -0.128 NA
ATOM     16 CL   UNL A   1     -23.403   1.090  24.236  0.00  0.00    -0.083 Cl
ATOM     17  C   UNL A   1     -21.933   1.722  27.942  0.00  0.00    -0.004 C 
ENDROOT
BRANCH  11  18
ATOM     18  C   UNL A   1     -25.688   1.614  26.461  0.00  0.00    +0.093 C 
ATOM     19  C   UNL A   1     -26.250   2.920  26.395  0.00  0.00    +0.059 C 
ATOM     20  C   UNL A   1     -27.438   3.091  25.645  0.00  0.00    +0.102 C 
ATOM     21  N   UNL A   1     -28.075   2.089  25.003  0.00  0.00    -0.212 NA
ATOM     22  C   UNL A   1     -27.543   0.849  25.079  0.00  0.00    +0.234 C 
ATOM     23  C   UNL A   1     -26.354   0.576  25.777  0.00  0.00    +0.244 C 
ATOM     24  F   UNL A   1     -25.860  -0.681  25.795  0.00  0.00    -0.227 F 
BRANCH  19  25
ATOM     25  C   UNL A   1     -25.642   4.093  27.123  0.00  0.00    +0.263 C 
ATOM     26  N   UNL A   1     -25.614   5.252  26.449  0.00  0.00    -0.200 NA
ATOM     27  C   UNL A   1     -25.026   6.479  26.963  0.00  0.00    +0.139 C 
ATOM     28  O   UNL A   1     -25.143   3.966  28.243  0.00  0.00    -0.269 OA
ENDBRANCH  19  25
BRANCH  22  29
ATOM     29  O   UNL A   1     -28.193  -0.208  24.477  0.00  0.00    -0.459 OA
BRANCH  29  30
ATOM     30  C   UNL A   1     -29.460   0.005  23.866  0.00  0.00    +0.242 C 
BRANCH  30  31
ATOM     31  C   UNL A   1     -30.065  -1.377  23.573  0.00  0.00    +0.229 C 
ATOM     32  O   UNL A   1     -30.729  -1.878  24.721  0.00  0.00    -0.216 OA
ENDBRANCH  30  31
ENDBRANCH  29  30
ENDBRANCH  22  29
ENDBRANCH  11  18
BRANCH   1  33
ATOM     33  C   UNL A   1     -24.973  -2.505  29.788  0.00  0.00    -0.019 C 
ATOM     34  C   UNL A   1     -23.906  -3.173  29.146  0.00  0.00    -0.004 C 
ATOM     35  C   UNL A   1     -23.989  -4.549  28.853  0.00  0.00    -0.000 C 
ATOM     36  C   UNL A   1     -25.137  -5.280  29.205  0.00  0.00    -0.000 C 
ATOM     37  C   UNL A   1     -26.232  -4.611  29.784  0.00  0.00    -0.000 C 
ATOM     38  C   UNL A   1     -26.155  -3.232  30.065  0.00  0.00    -0.004 C 
ENDBRANCH   1  33
BRANCH   8  40
ATOM     39  O   UNL A   1     -24.773   4.062  31.044  0.00  0.00    -0.246 OA
ATOM     40  C   UNL A   1     -25.387   3.053  31.223  0.00  0.00    +0.365 C 
ATOM     41  O   UNL A   1     -26.465   3.099  31.821  0.00  0.00    -0.246 OA
ENDBRANCH   8  40
TORSDOF 7
