MODEL 1813
MODEL 1
REMARK VINA RESULT:    -5.028      0.000      0.000
REMARK INTER + INTRA:          -5.594
REMARK INTER:                  -5.616
REMARK INTRA:                   0.022
REMARK UNBOUND:                 0.022
REMARK  Name = No_1813-gen_results/8p0m/2024-11-27-11-27-31/
REMARK  2 active torsions:
REMARK  status: ('A' for Active; 'I' for Inactive)
REMARK    1  A    between atoms: C_3  and  C_8
REMARK    2  A    between atoms: C_8  and  N_9
REMARK                            x       y       z     vdW  Elec       q    Type
REMARK                         _______ _______ _______ _____ _____    ______ ____
ROOT
ATOM      1  C   UNL A   1     -29.769 -10.081  31.471  0.00  0.00    +0.042 A 
ATOM      2  C   UNL A   1     -29.269 -10.254  32.559  0.00  0.00    +0.008 A 
ATOM      3  C   UNL A   1     -28.258 -11.181  32.805  0.00  0.00    +0.056 A 
ATOM      4  C   UNL A   1     -27.805 -12.036  31.724  0.00  0.00    +0.008 A 
ATOM      5  C   UNL A   1     -28.440 -11.784  30.487  0.00  0.00    +0.042 A 
ATOM      6  C   UNL A   1     -29.389 -10.892  30.354  0.00  0.00    +0.196 A 
ATOM      7  O   UNL A   1     -29.968 -10.771  29.122  0.00  0.00    -0.287 OA
ENDROOT
BRANCH   3   8
ATOM      8  C   UNL A   1     -27.591 -11.450  34.120  0.00  0.00    +0.269 C 
ATOM      9  O   UNL A   1     -27.652 -12.590  34.573  0.00  0.00    -0.268 OA
BRANCH   8  10
ATOM     10  N   UNL A   1     -26.679 -10.686  34.539  0.00  0.00    -0.173 NA
ATOM     11  C   UNL A   1     -27.030  -9.438  35.033  0.00  0.00    +0.107 C 
ENDBRANCH   8  10
ENDBRANCH   3   8
TORSDOF 2
ENDMDL
ENDMDL
