REMARK  Name = outputs/IAG933/test6/raw/output_1814_IAG933_linker_design_.xyz
REMARK  12 active torsions:
REMARK  status: ('A' for Active; 'I' for Inactive)
REMARK    1  A    between atoms: C_1  and  C_2
REMARK    2  A    between atoms: C_1  and  C_8
REMARK    3  A    between atoms: C_1  and  C_29
REMARK    4  A    between atoms: C_13  and  C_40
REMARK    5  A    between atoms: C_14  and  C_15
REMARK    6  A    between atoms: C_21  and  O_22
REMARK    7  A    between atoms: O_22  and  C_23
REMARK    8  A    between atoms: C_23  and  C_24
REMARK    9  A    between atoms: C_28  and  C_41
REMARK   10  A    between atoms: C_29  and  C_36
REMARK   11  A    between atoms: C_29  and  C_37
REMARK   12  A    between atoms: C_38  and  C_39
REMARK                            x       y       z     vdW  Elec       q    Type
REMARK                         _______ _______ _______ _____ _____    ______ ____
ROOT
ATOM      1  C   UNL A   1     -21.986   0.721  28.657  0.00  0.00    +0.097 C 
ATOM      2  C   UNL A   1     -24.370   0.531  28.349  0.00  0.00    +0.070 C 
ATOM      3  C   UNL A   1     -21.920   1.264  27.451  0.00  0.00    +0.036 C 
ATOM      4  C   UNL A   1     -24.476   1.307  27.166  0.00  0.00    +0.023 C 
ATOM      5  C   UNL A   1     -23.065   1.687  26.727  0.00  0.00    +0.081 C 
ATOM      6  N   UNL A   1     -23.155   0.280  29.029  0.00  0.00    -0.248 NA
ENDROOT
BRANCH   4   7
ATOM      7  C   UNL A   1     -25.688   1.614  26.461  0.00  0.00    +0.039 C 
ATOM      8  C   UNL A   1     -26.250   2.920  26.395  0.00  0.00    +0.077 C 
ATOM      9  C   UNL A   1     -27.438   3.091  25.645  0.00  0.00    +0.107 C 
ATOM     10  N   UNL A   1     -28.075   2.089  25.003  0.00  0.00    -0.208 NA
ATOM     11  C   UNL A   1     -27.543   0.849  25.079  0.00  0.00    +0.253 C 
ATOM     12  C   UNL A   1     -26.354   0.576  25.777  0.00  0.00    +0.193 C 
ATOM     13  F   UNL A   1     -25.860  -0.681  25.795  0.00  0.00    -0.199 F 
BRANCH   8  14
ATOM     14  C   UNL A   1     -25.642   4.093  27.123  0.00  0.00    +0.266 C 
ATOM     15  N   UNL A   1     -25.614   5.252  26.449  0.00  0.00    -0.200 NA
ATOM     16  C   UNL A   1     -25.026   6.479  26.963  0.00  0.00    +0.139 C 
ATOM     17  O   UNL A   1     -25.143   3.966  28.243  0.00  0.00    -0.268 OA
ENDBRANCH   8  14
BRANCH  11  18
ATOM     18  O   UNL A   1     -28.193  -0.208  24.477  0.00  0.00    -0.456 OA
BRANCH  18  19
ATOM     19  C   UNL A   1     -29.460   0.005  23.866  0.00  0.00    +0.243 C 
BRANCH  19  20
ATOM     20  C   UNL A   1     -30.065  -1.377  23.573  0.00  0.00    +0.229 C 
ATOM     21  O   UNL A   1     -30.729  -1.878  24.721  0.00  0.00    -0.216 OA
ENDBRANCH  19  20
ENDBRANCH  18  19
ENDBRANCH  11  18
ENDBRANCH   4   7
BRANCH   5  22
ATOM     22  C   UNL A   1     -22.962   2.495  25.466  0.00  0.00    +0.388 C 
ATOM     23  O   UNL A   1     -21.937   2.290  24.856  0.00  0.00    -0.241 OA
ATOM     24  O   UNL A   1     -23.910   3.163  25.022  0.00  0.00    -0.241 OA
ENDBRANCH   5  22
BRANCH   3  26
ATOM     25  O   UNL A   1     -19.891   2.098  28.166  0.00  0.00    -0.215 OA
ATOM     26  C   UNL A   1     -20.512   1.349  27.249  0.00  0.00    +0.210 C 
ENDBRANCH   3  26
BRANCH   2  27
ATOM     27  C   UNL A   1     -25.486  -0.040  29.120  0.00  0.00    +0.149 C 
BRANCH  27  30
ATOM     28  O   UNL A   1     -26.945   1.704  29.214  0.00  0.00    -0.245 OA
ATOM     29  O   UNL A   1     -27.809  -0.324  29.068  0.00  0.00    -0.245 OA
ATOM     30  C   UNL A   1     -26.853   0.416  29.124  0.00  0.00    +0.370 C 
ENDBRANCH  27  30
BRANCH  27  31
ATOM     31  C   UNL A   1     -24.855  -1.012  30.143  0.00  0.00    +0.055 C 
BRANCH  31  32
ATOM     32  C   UNL A   1     -24.973  -2.505  29.788  0.00  0.00    -0.020 C 
ATOM     33  C   UNL A   1     -23.906  -3.173  29.146  0.00  0.00    -0.004 C 
ATOM     34  C   UNL A   1     -23.989  -4.549  28.853  0.00  0.00    -0.000 C 
ATOM     35  C   UNL A   1     -25.137  -5.280  29.205  0.00  0.00    -0.000 C 
ATOM     36  C   UNL A   1     -26.232  -4.611  29.784  0.00  0.00    -0.000 C 
ATOM     37  C   UNL A   1     -26.155  -3.232  30.065  0.00  0.00    -0.004 C 
ENDBRANCH  31  32
BRANCH  31  38
ATOM     38  C   UNL A   1     -25.387  -0.679  31.571  0.00  0.00    +0.078 C 
ATOM     39  C   UNL A   1     -25.189   0.773  32.028  0.00  0.00    +0.019 C 
ATOM     40  C   UNL A   1     -25.336   0.684  33.544  0.00  0.00    +0.020 C 
ATOM     41  C   UNL A   1     -24.829  -0.715  33.905  0.00  0.00    +0.089 C 
ATOM     42  N   UNL A   1     -24.758  -1.481  32.646  0.00  0.00    -0.219 NA
ENDBRANCH  31  38
ENDBRANCH  27  31
ENDBRANCH   2  27
TORSDOF 12
