MODEL 1815
MODEL 1
REMARK VINA RESULT:    -4.308      0.000      0.000
REMARK INTER + INTRA:          -4.308
REMARK INTER:                  -4.308
REMARK INTRA:                   0.000
REMARK UNBOUND:                 0.000
REMARK  Name = No_1815-gen_results/8p0m/2024-11-27-11-27-31/
REMARK  0 active torsions:
REMARK  status: ('A' for Active; 'I' for Inactive)
REMARK                            x       y       z     vdW  Elec       q    Type
REMARK                         _______ _______ _______ _____ _____    ______ ____
ROOT
ATOM      1  C   UNL A   1     -24.959  -5.414  28.970  0.00  0.00    +0.000 A 
ATOM      2  C   UNL A   1     -24.200  -4.736  28.695  0.00  0.00    +0.000 A 
ATOM      3  C   UNL A   1     -26.109  -4.776  29.610  0.00  0.00    +0.000 A 
ATOM      4  C   UNL A   1     -26.177  -3.418  29.804  0.00  0.00    +0.000 A 
ATOM      5  C   UNL A   1     -24.004  -3.289  28.769  0.00  0.00    +0.000 A 
ATOM      6  C   UNL A   1     -25.112  -2.662  29.387  0.00  0.00    +0.000 A 
ENDROOT
TORSDOF 0
ENDMDL
ENDMDL
