MODEL 1816
MODEL 1
REMARK VINA RESULT:    -5.822      0.000      0.000
REMARK INTER + INTRA:          -6.802
REMARK INTER:                  -6.503
REMARK INTRA:                  -0.299
REMARK UNBOUND:                -0.299
REMARK  Name = No_1816-gen_results/8p0m/2024-11-27-11-27-31/
REMARK  2 active torsions:
REMARK  status: ('A' for Active; 'I' for Inactive)
REMARK    1  A    between atoms: C_2  and  C_11
REMARK    2  A    between atoms: C_3  and  C_7
REMARK                            x       y       z     vdW  Elec       q    Type
REMARK                         _______ _______ _______ _____ _____    ______ ____
ROOT
ATOM      1  C   UNL A   1     -28.358 -11.854  31.197  0.00  0.00    +0.010 A 
ATOM      2  C   UNL A   1     -28.281 -11.475  32.177  0.00  0.00    +0.080 A 
ATOM      3  C   UNL A   1     -29.306 -11.121  30.359  0.00  0.00    +0.072 A 
ATOM      4  C   UNL A   1     -30.002 -10.032  30.824  0.00  0.00    +0.004 A 
ATOM      5  C   UNL A   1     -28.873 -10.367  32.927  0.00  0.00    +0.007 A 
ATOM      6  C   UNL A   1     -29.792  -9.651  32.124  0.00  0.00    +0.000 A 
ENDROOT
BRANCH   3   7
ATOM      7  C   UNL A   1     -29.524 -11.482  28.928  0.00  0.00    +0.419 C 
ATOM      8  F   UNL A   1     -28.391 -11.751  28.496  0.00  0.00    -0.166 F 
ATOM      9  F   UNL A   1     -30.342 -12.523  28.833  0.00  0.00    -0.166 F 
ATOM     10  F   UNL A   1     -30.037 -10.431  28.235  0.00  0.00    -0.166 F 
ENDBRANCH   3   7
BRANCH   2  11
ATOM     11  C   UNL A   1     -27.183 -12.153  33.173  0.00  0.00    +0.388 C 
ATOM     12  O   UNL A   1     -26.427 -13.021  32.663  0.00  0.00    -0.241 OA
ATOM     13  O   UNL A   1     -27.419 -12.232  34.352  0.00  0.00    -0.241 OA
ENDBRANCH   2  11
TORSDOF 2
ENDMDL
ENDMDL
