REMARK  Name = outputs/IAG933/test6/raw/output_1817_IAG933_linker_design_.xyz
REMARK  12 active torsions:
REMARK  status: ('A' for Active; 'I' for Inactive)
REMARK    1  A    between atoms: C_1  and  C_2
REMARK    2  A    between atoms: C_1  and  C_8
REMARK    3  A    between atoms: C_9  and  C_47
REMARK    4  A    between atoms: C_13  and  C_36
REMARK    5  A    between atoms: C_14  and  C_15
REMARK    6  A    between atoms: C_21  and  O_22
REMARK    7  A    between atoms: O_22  and  C_23
REMARK    8  A    between atoms: C_23  and  C_24
REMARK    9  A    between atoms: N_33  and  C_47
REMARK   10  A    between atoms: C_35  and  C_39
REMARK   11  A    between atoms: C_37  and  N_38
REMARK   12  A    between atoms: C_37  and  C_47
REMARK                            x       y       z     vdW  Elec       q    Type
REMARK                         _______ _______ _______ _____ _____    ______ ____
ROOT
ATOM      1  N   UNL A   1     -22.806   0.433  30.233  0.00  0.00    +0.195 NA
ATOM      2  N   UNL A   1     -24.632   1.937  30.007  0.00  0.00    -0.029 NA
ATOM      3  C   UNL A   1     -23.545   1.218  29.602  0.00  0.00    +0.422 C 
ENDROOT
BRANCH   3   7
ATOM      4  O   UNL A   1     -22.135   2.159  26.149  0.00  0.00    -0.322 OA
ATOM      5  C   UNL A   1     -21.974   1.646  27.425  0.00  0.00    +0.318 C 
ATOM      6  O   UNL A   1     -23.995   0.594  27.484  0.00  0.00    -0.340 OA
ATOM      7  C   UNL A   1     -23.116   1.188  28.161  0.00  0.00    +0.291 C 
ATOM      8  C   UNL A   1     -24.247   1.404  26.459  0.00  0.00    +0.153 C 
ATOM      9  C   UNL A   1     -23.376   1.942  25.596  0.00  0.00    +0.175 C 
ATOM     10  F   UNL A   1     -20.779   1.579  27.919  0.00  0.00    -0.201 F 
BRANCH   8  11
ATOM     11  C   UNL A   1     -25.688   1.614  26.461  0.00  0.00    +0.100 C 
ATOM     12  C   UNL A   1     -26.250   2.920  26.395  0.00  0.00    +0.057 C 
ATOM     13  C   UNL A   1     -27.438   3.091  25.645  0.00  0.00    +0.102 C 
ATOM     14  N   UNL A   1     -28.075   2.089  25.003  0.00  0.00    -0.212 NA
ATOM     15  C   UNL A   1     -27.543   0.849  25.079  0.00  0.00    +0.234 C 
ATOM     16  C   UNL A   1     -26.354   0.576  25.777  0.00  0.00    +0.242 C 
ATOM     17  F   UNL A   1     -25.860  -0.681  25.795  0.00  0.00    -0.227 F 
BRANCH  12  18
ATOM     18  C   UNL A   1     -25.642   4.093  27.123  0.00  0.00    +0.263 C 
ATOM     19  N   UNL A   1     -25.614   5.252  26.449  0.00  0.00    -0.200 NA
ATOM     20  C   UNL A   1     -25.026   6.479  26.963  0.00  0.00    +0.139 C 
ATOM     21  O   UNL A   1     -25.143   3.966  28.243  0.00  0.00    -0.269 OA
ENDBRANCH  12  18
BRANCH  15  22
ATOM     22  O   UNL A   1     -28.193  -0.208  24.477  0.00  0.00    -0.459 OA
BRANCH  22  23
ATOM     23  C   UNL A   1     -29.460   0.005  23.866  0.00  0.00    +0.242 C 
BRANCH  23  24
ATOM     24  C   UNL A   1     -30.065  -1.377  23.573  0.00  0.00    +0.229 C 
ATOM     25  O   UNL A   1     -30.729  -1.878  24.721  0.00  0.00    -0.216 OA
ENDBRANCH  23  24
ENDBRANCH  22  23
ENDBRANCH  15  22
ENDBRANCH   8  11
ENDBRANCH   3   7
BRANCH   2  26
ATOM     26  C   UNL A   1     -25.682   1.857  31.053  0.00  0.00    +0.256 C 
BRANCH  26  28
ATOM     27  C   UNL A   1     -25.387  -0.679  31.571  0.00  0.00    +0.081 C 
ATOM     28  C   UNL A   1     -25.189   0.773  32.028  0.00  0.00    +0.069 C 
ATOM     29  C   UNL A   1     -25.336   0.684  33.544  0.00  0.00    +0.025 C 
ATOM     30  C   UNL A   1     -24.829  -0.715  33.905  0.00  0.00    +0.089 C 
ATOM     31  N   UNL A   1     -24.758  -1.481  32.646  0.00  0.00    -0.219 NA
BRANCH  27  32
ATOM     32  C   UNL A   1     -24.855  -1.012  30.143  0.00  0.00    +0.044 C 
BRANCH  32  33
ATOM     33  C   UNL A   1     -24.973  -2.505  29.788  0.00  0.00    -0.021 C 
ATOM     34  C   UNL A   1     -23.906  -3.173  29.146  0.00  0.00    -0.004 C 
ATOM     35  C   UNL A   1     -23.989  -4.549  28.853  0.00  0.00    -0.000 C 
ATOM     36  C   UNL A   1     -25.137  -5.280  29.205  0.00  0.00    -0.000 C 
ATOM     37  C   UNL A   1     -26.232  -4.611  29.784  0.00  0.00    -0.000 C 
ATOM     38  C   UNL A   1     -26.155  -3.232  30.065  0.00  0.00    -0.004 C 
ENDBRANCH  32  33
ENDBRANCH  27  32
ENDBRANCH  26  28
BRANCH  26  40
ATOM     39  O   UNL A   1     -24.991   4.004  31.254  0.00  0.00    -0.196 OA
ATOM     40  C   UNL A   1     -26.171   3.315  31.140  0.00  0.00    +0.277 C 
BRANCH  40  42
ATOM     41  C   UNL A   1     -27.318   3.328  33.515  0.00  0.00    +0.228 C 
ATOM     42  N   UNL A   1     -26.607   3.656  32.513  0.00  0.00    -0.249 N 
ATOM     43  C   UNL A   1     -27.755   5.718  34.424  0.00  0.00    +0.041 C 
ATOM     44  C   UNL A   1     -27.096   4.279  34.712  0.00  0.00    +0.088 C 
ATOM     45  C   UNL A   1     -28.745   6.834  34.917  0.00  0.00    +0.003 C 
ATOM     46  O   UNL A   1     -29.208   5.415  32.565  0.00  0.00    -0.221 OA
ATOM     47  C   UNL A   1     -27.839   5.848  32.889  0.00  0.00    +0.172 C 
ATOM     48  C   UNL A   1     -26.478   5.192  32.474  0.00  0.00    +0.129 C 
ATOM     49  O   UNL A   1     -28.281   2.533  33.439  0.00  0.00    -0.275 OA
ENDBRANCH  40  42
ENDBRANCH  26  40
ENDBRANCH   2  26
TORSDOF 12
