MODEL 1817
MODEL 1
REMARK VINA RESULT:    -5.227      0.000      0.000
REMARK INTER + INTRA:          -5.592
REMARK INTER:                  -5.533
REMARK INTRA:                  -0.059
REMARK UNBOUND:                -0.059
REMARK  Name = No_1817-gen_results/8p0m/2024-11-27-11-27-31/
REMARK  1 active torsions:
REMARK  status: ('A' for Active; 'I' for Inactive)
REMARK    1  A    between atoms: C_2  and  C_3
REMARK                            x       y       z     vdW  Elec       q    Type
REMARK                         _______ _______ _______ _____ _____    ______ ____
ROOT
ATOM      1  C   UNL A   1     -24.354  -2.556  29.262  0.00  0.00    +0.055 A 
ATOM      2  C   UNL A   1     -24.009  -3.744  28.764  0.00  0.00    +0.005 A 
ATOM      3  C   UNL A   1     -25.709  -2.410  29.741  0.00  0.00    +0.005 A 
ATOM      4  C   UNL A   1     -24.805  -4.967  29.039  0.00  0.00    +0.000 A 
ATOM      5  C   UNL A   1     -26.063  -4.839  29.559  0.00  0.00    +0.000 A 
ATOM      6  C   UNL A   1     -26.545  -3.568  29.895  0.00  0.00    +0.000 A 
ENDROOT
BRANCH   1   8
ATOM      7  O   UNL A   1     -24.224  -0.587  28.259  0.00  0.00    -0.268 OA
ATOM      8  C   UNL A   1     -23.677  -1.442  28.806  0.00  0.00    +0.265 C 
ATOM      9  N   UNL A   1     -22.259  -1.378  29.204  0.00  0.00    -0.200 NA
ATOM     10  C   UNL A   1     -21.537  -0.191  28.830  0.00  0.00    +0.139 C 
ENDBRANCH   1   8
TORSDOF 1
ENDMDL
ENDMDL
