MODEL 1818
MODEL 1
REMARK VINA RESULT:    -7.895      0.000      0.000
REMARK INTER + INTRA:          -9.946
REMARK INTER:                  -9.280
REMARK INTRA:                  -0.666
REMARK UNBOUND:                -0.666
REMARK  Name = No_1818-gen_results/8p0m/2024-11-27-11-27-31/
REMARK  3 active torsions:
REMARK  status: ('A' for Active; 'I' for Inactive)
REMARK    1  A    between atoms: C_2  and  C_13
REMARK    2  A    between atoms: C_4  and  C_6
REMARK    3  A    between atoms: C_16  and  C_17
REMARK                            x       y       z     vdW  Elec       q    Type
REMARK                         _______ _______ _______ _____ _____    ______ ____
ROOT
ATOM      1  C   UNL A   1      -6.301   0.466  34.985  0.00  0.00    +0.000 A 
ATOM      2  C   UNL A   1      -6.999  -0.323  34.970  0.00  0.00    +0.055 A 
ATOM      3  C   UNL A   1      -4.879   0.090  34.929  0.00  0.00    -0.022 A 
ATOM      4  C   UNL A   1      -4.496  -1.267  34.723  0.00  0.00    -0.004 A 
ATOM      5  C   UNL A   1      -6.871  -1.783  34.710  0.00  0.00    +0.005 A 
ATOM      6  C   UNL A   1      -5.545  -2.180  34.626  0.00  0.00    -0.000 A 
ATOM      7  C   UNL A   1      -3.915   1.094  35.226  0.00  0.00    +0.031 C 
ENDROOT
BRANCH   4   8
ATOM      8  C   UNL A   1      -3.157  -1.689  34.661  0.00  0.00    -0.000 A 
ATOM      9  C   UNL A   1      -2.458  -1.778  35.397  0.00  0.00    -0.000 A 
ATOM     10  C   UNL A   1      -0.979  -2.034  35.306  0.00  0.00    -0.000 A 
ATOM     11  C   UNL A   1      -0.574  -2.153  34.030  0.00  0.00    -0.000 A 
ATOM     12  C   UNL A   1      -2.644  -1.787  33.253  0.00  0.00    -0.000 A 
ATOM     13  C   UNL A   1      -1.354  -1.967  32.988  0.00  0.00    -0.000 A 
ENDBRANCH   4   8
BRANCH   2  14
ATOM     14  C   UNL A   1      -8.559   0.069  35.078  0.00  0.00    +0.272 C 
ATOM     15  O   UNL A   1      -9.131   0.696  34.299  0.00  0.00    -0.268 OA
ATOM     16  N   UNL A   1      -9.124  -0.341  36.228  0.00  0.00    -0.137 NA
ATOM     17  C   UNL A   1     -10.481  -0.001  36.541  0.00  0.00    +0.272 C 
ATOM     18  O   UNL A   1     -11.007   0.856  35.863  0.00  0.00    -0.268 OA
BRANCH  17  19
ATOM     19  C   UNL A   1     -10.960  -0.504  37.497  0.00  0.00    +0.056 A 
ATOM     20  C   UNL A   1     -11.146   0.031  38.686  0.00  0.00    +0.005 A 
ATOM     21  C   UNL A   1     -11.768  -0.570  39.822  0.00  0.00    +0.000 A 
ATOM     22  C   UNL A   1     -12.135  -1.928  39.716  0.00  0.00    +0.000 A 
ATOM     23  C   UNL A   1     -11.907  -2.630  38.529  0.00  0.00    +0.000 A 
ATOM     24  C   UNL A   1     -11.409  -1.993  37.482  0.00  0.00    +0.005 A 
ENDBRANCH  17  19
ENDBRANCH   2  14
TORSDOF 3
ENDMDL
ENDMDL
