REMARK  Name = No_1818-gen_results/8p0m/2024-11-27-11-27-31/
REMARK  3 active torsions:
REMARK  status: ('A' for Active; 'I' for Inactive)
REMARK    1  A    between atoms: C_2  and  C_13
REMARK    2  A    between atoms: C_4  and  C_6
REMARK    3  A    between atoms: C_16  and  C_17
REMARK                            x       y       z     vdW  Elec       q    Type
REMARK                         _______ _______ _______ _____ _____    ______ ____
ROOT
ATOM      1  C   UNL A   1     -28.016  -0.814  28.878  0.00  0.00    +0.000 A 
ATOM      2  C   UNL A   1     -28.469  -0.785  29.829  0.00  0.00    +0.055 A 
ATOM      3  C   UNL A   1     -26.546  -0.876  28.850  0.00  0.00    -0.022 A 
ATOM      4  C   UNL A   1     -25.804  -1.032  30.057  0.00  0.00    -0.004 A 
ATOM      5  C   UNL A   1     -27.944  -0.987  31.207  0.00  0.00    +0.005 A 
ATOM      6  C   UNL A   1     -26.561  -1.075  31.227  0.00  0.00    -0.000 A 
ATOM      7  C   UNL A   1     -25.895  -0.635  27.607  0.00  0.00    +0.031 C 
ENDROOT
BRANCH   4   8
ATOM      8  C   UNL A   1     -24.401  -1.097  30.096  0.00  0.00    -0.000 A 
ATOM      9  C   UNL A   1     -23.764  -1.147  30.890  0.00  0.00    -0.000 A 
ATOM     10  C   UNL A   1     -22.267  -1.015  30.944  0.00  0.00    -0.000 A 
ATOM     11  C   UNL A   1     -21.744  -0.795  29.726  0.00  0.00    -0.000 A 
ATOM     12  C   UNL A   1     -23.769  -0.806  28.765  0.00  0.00    -0.000 A 
ATOM     13  C   UNL A   1     -22.460  -0.615  28.638  0.00  0.00    -0.000 A 
ENDBRANCH   4   8
BRANCH   2  14
ATOM     14  C   UNL A   1     -30.077  -0.670  29.878  0.00  0.00    +0.272 C 
ATOM     15  O   UNL A   1     -30.774  -1.454  30.352  0.00  0.00    -0.268 OA
ATOM     16  N   UNL A   1     -30.545   0.409  29.224  0.00  0.00    -0.137 NA
ATOM     17  C   UNL A   1     -31.954   0.626  29.081  0.00  0.00    +0.272 C 
ATOM     18  O   UNL A   1     -32.687  -0.303  29.348  0.00  0.00    -0.268 OA
BRANCH  17  19
ATOM     19  C   UNL A   1     -32.301   1.657  28.620  0.00  0.00    +0.056 A 
ATOM     20  C   UNL A   1     -33.519   2.158  28.584  0.00  0.00    +0.005 A 
ATOM     21  C   UNL A   1     -33.922   3.426  28.065  0.00  0.00    +0.000 A 
ATOM     22  C   UNL A   1     -32.939   4.200  27.413  0.00  0.00    +0.000 A 
ATOM     23  C   UNL A   1     -31.626   3.733  27.310  0.00  0.00    +0.000 A 
ATOM     24  C   UNL A   1     -31.295   2.591  27.890  0.00  0.00    +0.005 A 
ENDBRANCH  17  19
ENDBRANCH   2  14
TORSDOF 3
