MODEL 1819
MODEL 1
REMARK VINA RESULT:    -7.432      0.000      0.000
REMARK INTER + INTRA:         -14.013
REMARK INTER:                 -10.039
REMARK INTRA:                  -3.973
REMARK UNBOUND:                -3.973
REMARK  Name = No_1819-gen_results/8p0m/2024-11-27-11-27-31/
REMARK  6 active torsions:
REMARK  status: ('A' for Active; 'I' for Inactive)
REMARK    1  A    between atoms: C_2  and  C_16
REMARK    2  A    between atoms: C_4  and  C_7
REMARK    3  A    between atoms: C_7  and  C_8
REMARK    4  A    between atoms: C_16  and  O_18
REMARK    5  A    between atoms: O_18  and  C_19
REMARK    6  A    between atoms: C_20  and  C_21
REMARK                            x       y       z     vdW  Elec       q    Type
REMARK                         _______ _______ _______ _____ _____    ______ ____
ROOT
ATOM      1  C   UNL A   1     -31.680  -8.784  10.498  0.00  0.00    +0.341 C 
ATOM      2  O   UNL A   1     -32.108  -8.064  11.293  0.00  0.00    -0.245 OA
ENDROOT
BRANCH   1   4
ATOM      3  C   UNL A   1     -31.234 -10.859  11.558  0.00  0.00    +0.036 A 
ATOM      4  C   UNL A   1     -31.793 -10.381  10.805  0.00  0.00    +0.078 A 
ATOM      5  C   UNL A   1     -31.409 -12.315  11.685  0.00  0.00    +0.137 A 
ATOM      6  C   UNL A   1     -32.190 -13.036  10.735  0.00  0.00    +0.010 A 
ATOM      7  C   UNL A   1     -32.614 -10.892   9.673  0.00  0.00    +0.006 A 
ATOM      8  C   UNL A   1     -32.808 -12.239   9.762  0.00  0.00    -0.002 A 
ATOM      9  F   UNL A   1     -30.866 -13.054  12.633  0.00  0.00    -0.204 F 
BRANCH   6  10
ATOM     10  C   UNL A   1     -32.383 -14.447  10.805  0.00  0.00    +0.055 C 
BRANCH  10  11
ATOM     11  C   UNL A   1     -31.432 -15.222  10.129  0.00  0.00    -0.018 A 
ATOM     12  C   UNL A   1     -31.458 -15.356   8.712  0.00  0.00    -0.008 A 
ATOM     13  C   UNL A   1     -30.466 -16.019   8.037  0.00  0.00    -0.022 A 
ATOM     14  C   UNL A   1     -30.135 -15.535  10.631  0.00  0.00    -0.004 A 
ATOM     15  C   UNL A   1     -29.098 -16.109   9.990  0.00  0.00    -0.001 A 
ATOM     16  C   UNL A   1     -30.472 -16.174   6.536  0.00  0.00    +0.031 C 
ATOM     17  C   UNL A   1     -29.164 -16.286   8.660  0.00  0.00    -0.004 A 
ENDBRANCH  10  11
ENDBRANCH   6  10
ENDBRANCH   1   4
BRANCH   1  18
ATOM     18  O   UNL A   1     -31.423  -8.355   9.310  0.00  0.00    -0.447 OA
BRANCH  18  19
ATOM     19  C   UNL A   1     -30.153  -8.121   8.997  0.00  0.00    +0.188 C 
ATOM     20  C   UNL A   1     -29.661  -8.851   7.967  0.00  0.00    +0.121 C 
ATOM     21  N   UNL A   1     -28.689  -8.041   7.135  0.00  0.00    -0.269 NA
ATOM     22  C   UNL A   1     -28.597  -8.082   5.939  0.00  0.00    +0.072 C 
ATOM     23  C   UNL A   1     -27.584  -7.284   5.303  0.00  0.00    +0.017 C 
ATOM     24  C   UNL A   1     -27.762  -7.244   7.836  0.00  0.00    +0.058 C 
ATOM     25  C   UNL A   1     -27.743  -7.083   9.139  0.00  0.00    +0.020 C 
ATOM     26  C   UNL A   1     -29.180  -7.281   9.769  0.00  0.00    +0.047 C 
ATOM     27  C   UNL A   1     -26.845  -6.625   7.071  0.00  0.00    +0.016 C 
ATOM     28  C   UNL A   1     -26.773  -6.600   5.804  0.00  0.00    +0.003 C 
BRANCH  20  29
ATOM     29  C   UNL A   1     -29.257  -9.909   8.105  0.00  0.00    -0.004 A 
ATOM     30  C   UNL A   1     -28.447 -10.302   9.252  0.00  0.00    -0.003 A 
ATOM     31  C   UNL A   1     -28.295 -11.580   9.681  0.00  0.00    -0.000 A 
ATOM     32  C   UNL A   1     -28.764 -12.636   8.872  0.00  0.00    -0.000 A 
ATOM     33  C   UNL A   1     -29.477 -12.428   7.733  0.00  0.00    -0.000 A 
ATOM     34  C   UNL A   1     -29.792 -11.144   7.418  0.00  0.00    -0.003 A 
ENDBRANCH  20  29
ENDBRANCH  18  19
ENDBRANCH   1  18
TORSDOF 6
ENDMDL
ENDMDL
