MODEL 181
MODEL 1
REMARK VINA RESULT:    -7.294      0.000      0.000
REMARK INTER + INTRA:         -11.527
REMARK INTER:                 -10.279
REMARK INTRA:                  -1.248
REMARK UNBOUND:                -1.248
REMARK  Name = No_181-gen_results/8p0m/2024-11-27-11-27-31/
REMARK  7 active torsions:
REMARK  status: ('A' for Active; 'I' for Inactive)
REMARK    1  A    between atoms: C_1  and  C_2
REMARK    2  A    between atoms: C_5  and  C_9
REMARK    3  A    between atoms: C_17  and  O_18
REMARK    4  A    between atoms: O_18  and  C_28
REMARK    5  A    between atoms: C_20  and  C_31
REMARK    6  A    between atoms: C_28  and  C_29
REMARK    7  A    between atoms: C_31  and  C_33
REMARK                            x       y       z     vdW  Elec       q    Type
REMARK                         _______ _______ _______ _____ _____    ______ ____
ROOT
ATOM      1  C   UNL A   1     -11.792   3.214  35.685  0.00  0.00    +0.249 C 
ATOM      2  N   UNL A   1     -10.700   2.450  36.285  0.00  0.00    -0.272 N 
ATOM      3  O   UNL A   1     -11.858   3.019  34.432  0.00  0.00    -0.270 OA
ATOM      4  C   UNL A   1      -9.516   1.967  35.586  0.00  0.00    +0.098 C 
ATOM      5  C   UNL A   1     -10.521   2.436  37.758  0.00  0.00    +0.123 C 
ATOM      6  C   UNL A   1      -9.367   0.592  35.769  0.00  0.00    +0.025 C 
ATOM      7  C   UNL A   1     -10.417   0.019  36.475  0.00  0.00    +0.033 C 
ATOM      8  C   UNL A   1     -10.627   0.607  37.856  0.00  0.00    +0.136 C 
ATOM      9  C   UNL A   1      -7.989   0.302  36.333  0.00  0.00    +0.007 C 
ATOM     10  C   UNL A   1      -7.008   0.831  35.421  0.00  0.00    +0.026 C 
ATOM     11  C   UNL A   1      -7.225   1.723  34.524  0.00  0.00    -0.024 A 
ATOM     12  C   UNL A   1      -6.244   2.351  33.694  0.00  0.00    -0.001 A 
ATOM     13  C   UNL A   1      -6.613   3.441  32.911  0.00  0.00    +0.042 A 
ATOM     14  C   UNL A   1      -8.607   2.314  34.527  0.00  0.00    -0.005 A 
ATOM     15  C   UNL A   1      -7.918   3.800  32.813  0.00  0.00    +0.196 A 
ATOM     16  O   UNL A   1      -8.268   4.749  31.969  0.00  0.00    -0.287 OA
ATOM     17  C   UNL A   1      -8.843   3.169  33.672  0.00  0.00    +0.039 A 
ENDROOT
BRANCH   1  18
ATOM     18  C   UNL A   1     -12.722   3.548  36.383  0.00  0.00    +0.054 A 
ATOM     19  C   UNL A   1     -12.790   4.733  37.041  0.00  0.00    +0.005 A 
ATOM     20  C   UNL A   1     -13.921   5.157  37.896  0.00  0.00    +0.005 A 
ATOM     21  C   UNL A   1     -15.025   4.249  38.008  0.00  0.00    +0.057 A 
ATOM     22  C   UNL A   1     -14.948   3.058  37.251  0.00  0.00    +0.005 A 
ATOM     23  C   UNL A   1     -13.864   2.731  36.478  0.00  0.00    +0.005 A 
BRANCH  21  24
ATOM     24  C   UNL A   1     -16.183   4.548  38.795  0.00  0.00    +0.284 C 
ATOM     25  N   UNL A   1     -16.284   5.526  39.608  0.00  0.00    -0.084 NA
ATOM     26  O   UNL A   1     -17.306   4.121  38.275  0.00  0.00    -0.267 OA
ENDBRANCH  21  24
ENDBRANCH   1  18
BRANCH  10  27
ATOM     27  C   UNL A   1      -5.629   0.243  35.643  0.00  0.00    +0.026 C 
ATOM     28  C   UNL A   1      -4.761   0.849  36.465  0.00  0.00    +0.005 C 
BRANCH  27  29
ATOM     29  C   UNL A   1      -5.220  -0.897  34.947  0.00  0.00    -0.031 C 
ATOM     30  C   UNL A   1      -3.963  -1.071  34.469  0.00  0.00    -0.030 C 
ATOM     31  C   UNL A   1      -3.578  -2.267  33.839  0.00  0.00    +0.030 C 
ENDBRANCH  27  29
ENDBRANCH  10  27
BRANCH   8  32
ATOM     32  O   UNL A   1     -11.842   0.338  38.485  0.00  0.00    -0.350 OA
BRANCH  32  33
ATOM     33  C   UNL A   1     -11.856  -0.321  39.633  0.00  0.00    +0.168 C 
BRANCH  33  34
ATOM     34  C   UNL A   1     -11.426  -1.650  39.567  0.00  0.00    +0.006 C 
ATOM     35  C   UNL A   1     -12.269  -2.609  38.851  0.00  0.00    -0.002 C 
ENDBRANCH  33  34
ENDBRANCH  32  33
ENDBRANCH   8  32
TORSDOF 7
ENDMDL
ENDMDL
