MODEL 1820
MODEL 1
REMARK VINA RESULT:    -8.059      0.000      0.000
REMARK INTER + INTRA:          -8.837
REMARK INTER:                  -8.531
REMARK INTRA:                  -0.306
REMARK UNBOUND:                -0.306
REMARK  Name = No_1820-gen_results/8p0m/2024-11-27-11-27-31/
REMARK  1 active torsions:
REMARK  status: ('A' for Active; 'I' for Inactive)
REMARK    1  A    between atoms: C_14  and  C_15
REMARK                            x       y       z     vdW  Elec       q    Type
REMARK                         _______ _______ _______ _____ _____    ______ ____
ROOT
ATOM      1  C   UNL A   1     -23.921  -3.331  28.460  0.00  0.00    +0.000 A 
ATOM      2  C   UNL A   1     -24.788  -2.609  28.894  0.00  0.00    +0.000 A 
ATOM      3  C   UNL A   1     -25.886  -3.133  29.569  0.00  0.00    +0.000 A 
ATOM      4  C   UNL A   1     -27.022  -2.353  30.140  0.00  0.00    +0.000 A 
ATOM      5  C   UNL A   1     -28.160  -2.914  30.818  0.00  0.00    +0.000 A 
ATOM      6  C   UNL A   1     -24.101  -4.791  28.469  0.00  0.00    +0.000 A 
ATOM      7  C   UNL A   1     -25.117  -5.386  29.176  0.00  0.00    +0.000 A 
ATOM      8  C   UNL A   1     -26.118  -4.578  29.741  0.00  0.00    +0.000 A 
ATOM      9  C   UNL A   1     -29.097  -2.063  31.361  0.00  0.00    +0.000 A 
ATOM     10  C   UNL A   1     -29.012  -0.718  31.512  0.00  0.00    +0.000 A 
ATOM     11  C   UNL A   1     -26.919  -0.909  30.283  0.00  0.00    +0.000 A 
ATOM     12  C   UNL A   1     -25.787  -0.275  29.768  0.00  0.00    +0.000 A 
ATOM     13  C   UNL A   1     -27.880  -0.107  30.963  0.00  0.00    +0.000 A 
ATOM     14  C   UNL A   1     -24.724  -1.134  29.131  0.00  0.00    +0.000 A 
ENDROOT
BRANCH  14  15
ATOM     15  C   UNL A   1     -23.529  -0.453  28.580  0.00  0.00    +0.000 A 
ATOM     16  C   UNL A   1     -22.524  -0.603  28.986  0.00  0.00    +0.000 A 
ATOM     17  C   UNL A   1     -23.830   0.399  27.462  0.00  0.00    +0.000 A 
ATOM     18  C   UNL A   1     -23.080   1.533  27.156  0.00  0.00    +0.000 A 
ATOM     19  C   UNL A   1     -21.452   0.435  28.647  0.00  0.00    +0.000 A 
ATOM     20  C   UNL A   1     -21.738   1.357  27.593  0.00  0.00    +0.000 A 
ENDBRANCH  14  15
TORSDOF 1
ENDMDL
ENDMDL
