REMARK  Name = outputs/IAG933/test6/raw/output_1820_IAG933_linker_design_.xyz
REMARK  16 active torsions:
REMARK  status: ('A' for Active; 'I' for Inactive)
REMARK    1  A    between atoms: C_1  and  C_2
REMARK    2  A    between atoms: C_1  and  C_8
REMARK    3  A    between atoms: C_1  and  C_44
REMARK    4  A    between atoms: C_13  and  C_36
REMARK    5  A    between atoms: C_14  and  C_15
REMARK    6  A    between atoms: C_21  and  O_22
REMARK    7  A    between atoms: O_22  and  C_23
REMARK    8  A    between atoms: C_23  and  C_24
REMARK    9  A    between atoms: C_29  and  C_32
REMARK   10  A    between atoms: C_29  and  C_40
REMARK   11  A    between atoms: C_32  and  C_39
REMARK   12  A    between atoms: C_36  and  C_38
REMARK   13  A    between atoms: C_36  and  C_46
REMARK   14  A    between atoms: C_42  and  O_47
REMARK   15  A    between atoms: C_44  and  C_46
REMARK   16  A    between atoms: C_44  and  O_47
REMARK                            x       y       z     vdW  Elec       q    Type
REMARK                         _______ _______ _______ _____ _____    ______ ____
ROOT
ATOM      1  C   UNL A   1     -25.219  -0.179  28.973  0.00  0.00    +0.138 C 
ENDROOT
BRANCH   1   3
ATOM      2  N   UNL A   1     -22.915  -0.141  28.787  0.00  0.00    -0.130 NA
ATOM      3  C   UNL A   1     -24.244   0.140  28.093  0.00  0.00    +0.126 C 
BRANCH   3   4
ATOM      4  C   UNL A   1     -24.460   1.375  27.166  0.00  0.00    +0.075 C 
BRANCH   4   5
ATOM      5  C   UNL A   1     -25.688   1.614  26.461  0.00  0.00    +0.019 C 
ATOM      6  C   UNL A   1     -26.250   2.920  26.395  0.00  0.00    +0.073 C 
ATOM      7  C   UNL A   1     -27.438   3.091  25.645  0.00  0.00    +0.106 C 
ATOM      8  N   UNL A   1     -28.075   2.089  25.003  0.00  0.00    -0.208 NA
ATOM      9  C   UNL A   1     -27.543   0.849  25.079  0.00  0.00    +0.253 C 
ATOM     10  C   UNL A   1     -26.354   0.576  25.777  0.00  0.00    +0.189 C 
ATOM     11  F   UNL A   1     -25.860  -0.681  25.795  0.00  0.00    -0.200 F 
BRANCH   6  12
ATOM     12  C   UNL A   1     -25.642   4.093  27.123  0.00  0.00    +0.266 C 
ATOM     13  N   UNL A   1     -25.614   5.252  26.449  0.00  0.00    -0.200 NA
ATOM     14  C   UNL A   1     -25.026   6.479  26.963  0.00  0.00    +0.139 C 
ATOM     15  O   UNL A   1     -25.143   3.966  28.243  0.00  0.00    -0.268 OA
ENDBRANCH   6  12
BRANCH   9  16
ATOM     16  O   UNL A   1     -28.193  -0.208  24.477  0.00  0.00    -0.456 OA
BRANCH  16  17
ATOM     17  C   UNL A   1     -29.460   0.005  23.866  0.00  0.00    +0.243 C 
BRANCH  17  18
ATOM     18  C   UNL A   1     -30.065  -1.377  23.573  0.00  0.00    +0.229 C 
ATOM     19  O   UNL A   1     -30.729  -1.878  24.721  0.00  0.00    -0.216 OA
ENDBRANCH  17  18
ENDBRANCH  16  17
ENDBRANCH   9  16
ENDBRANCH   4   5
BRANCH   4  22
ATOM     20 CL   UNL A   1     -23.107   2.697  25.502  0.00  0.00    -0.097 Cl
ATOM     21 CL   UNL A   1     -21.361   1.655  27.503  0.00  0.00    -0.097 Cl
ATOM     22  C   UNL A   1     -23.092   2.002  27.086  0.00  0.00    +0.164 C 
ENDBRANCH   4  22
ENDBRANCH   3   4
ENDBRANCH   1   3
BRANCH   1  23
ATOM     23  C   UNL A   1     -24.855  -1.012  30.143  0.00  0.00    +0.067 C 
BRANCH  23  24
ATOM     24  C   UNL A   1     -24.973  -2.505  29.788  0.00  0.00    -0.019 C 
ATOM     25  C   UNL A   1     -23.906  -3.173  29.146  0.00  0.00    -0.004 C 
ATOM     26  C   UNL A   1     -23.989  -4.549  28.853  0.00  0.00    -0.000 C 
ATOM     27  C   UNL A   1     -25.137  -5.280  29.205  0.00  0.00    -0.000 C 
ATOM     28  C   UNL A   1     -26.232  -4.611  29.784  0.00  0.00    -0.000 C 
ATOM     29  C   UNL A   1     -26.155  -3.232  30.065  0.00  0.00    -0.004 C 
ENDBRANCH  23  24
BRANCH  23  30
ATOM     30  C   UNL A   1     -25.387  -0.679  31.571  0.00  0.00    +0.079 C 
ATOM     31  C   UNL A   1     -25.189   0.773  32.028  0.00  0.00    +0.019 C 
ATOM     32  C   UNL A   1     -25.336   0.684  33.544  0.00  0.00    +0.020 C 
ATOM     33  C   UNL A   1     -24.829  -0.715  33.905  0.00  0.00    +0.089 C 
ATOM     34  N   UNL A   1     -24.758  -1.481  32.646  0.00  0.00    -0.219 NA
ENDBRANCH  23  30
ENDBRANCH   1  23
BRANCH   1  35
ATOM     35  O   UNL A   1     -26.625   0.316  28.865  0.00  0.00    -0.354 OA
BRANCH  35  41
ATOM     36  C   UNL A   1     -29.665   2.213  29.924  0.00  0.00    +0.127 C 
ATOM     37  C   UNL A   1     -30.421   0.000  28.549  0.00  0.00    +0.156 C 
ATOM     38  C   UNL A   1     -29.164  -0.483  29.348  0.00  0.00    +0.065 C 
ATOM     39  C   UNL A   1     -28.241   1.992  29.546  0.00  0.00    +0.196 C 
ATOM     40  C   UNL A   1     -30.482   1.571  28.879  0.00  0.00    +0.051 C 
ATOM     41  C   UNL A   1     -27.973   0.533  29.244  0.00  0.00    +0.149 C 
ATOM     42  O   UNL A   1     -27.316   2.773  30.272  0.00  0.00    -0.219 OA
ATOM     43  O   UNL A   1     -30.439  -0.454  27.233  0.00  0.00    -0.223 OA
ATOM     44  N   UNL A   1     -30.014   3.655  30.228  0.00  0.00    -0.130 NA
BRANCH  40  45
ATOM     45  C   UNL A   1     -32.029   2.012  28.778  0.00  0.00    +0.004 C 
BRANCH  45  46
ATOM     46  C   UNL A   1     -32.585   1.321  27.861  0.00  0.00    +0.000 C 
BRANCH  46  48
ATOM     47  C   UNL A   1     -32.630   2.806  25.951  0.00  0.00    +0.000 C 
ATOM     48  C   UNL A   1     -32.151   1.427  26.451  0.00  0.00    +0.000 C 
ENDBRANCH  46  48
ENDBRANCH  45  46
ENDBRANCH  40  45
ENDBRANCH  35  41
ENDBRANCH   1  35
TORSDOF 16
