REMARK  Name = outputs/IAG933/test6/raw/output_1821_IAG933_linker_design_.xyz
REMARK  15 active torsions:
REMARK  status: ('A' for Active; 'I' for Inactive)
REMARK    1  A    between atoms: C_1  and  C_2
REMARK    2  A    between atoms: C_1  and  C_8
REMARK    3  A    between atoms: C_1  and  N_33
REMARK    4  A    between atoms: C_13  and  C_38
REMARK    5  A    between atoms: C_14  and  C_15
REMARK    6  A    between atoms: C_21  and  O_22
REMARK    7  A    between atoms: O_22  and  C_23
REMARK    8  A    between atoms: C_23  and  C_24
REMARK    9  A    between atoms: C_31  and  N_33
REMARK   10  A    between atoms: C_31  and  C_37
REMARK   11  A    between atoms: C_31  and  C_38
REMARK   12  A    between atoms: C_35  and  C_36
REMARK   13  A    between atoms: C_35  and  C_40
REMARK   14  A    between atoms: C_36  and  C_42
REMARK   15  A    between atoms: C_42  and  N_43
REMARK                            x       y       z     vdW  Elec       q    Type
REMARK                         _______ _______ _______ _____ _____    ______ ____
ROOT
ATOM      1  O   UNL A   1     -27.192   1.182  29.178  0.00  0.00    -0.251 OA
ATOM      2  N   UNL A   1     -25.199   0.024  29.111  0.00  0.00    -0.261 N 
ATOM      3  C   UNL A   1     -26.935   0.094  29.077  0.00  0.00    +0.323 C 
ATOM      4  N   UNL A   1     -28.007  -0.919  29.063  0.00  0.00    -0.190 NA
ENDROOT
BRANCH   4   6
ATOM      5  C   UNL A   1     -30.245  -1.738  29.955  0.00  0.00    +0.024 C 
ATOM      6  C   UNL A   1     -29.371  -0.578  29.532  0.00  0.00    +0.098 C 
BRANCH   6   7
ATOM      7  C   UNL A   1     -30.022   0.688  29.609  0.00  0.00    +0.034 C 
BRANCH   7   8
ATOM      8  C   UNL A   1     -31.274   0.548  28.658  0.00  0.00    +0.116 C 
BRANCH   8  10
ATOM      9  O   UNL A   1     -30.110  -0.858  27.073  0.00  0.00    -0.246 OA
ATOM     10  C   UNL A   1     -31.160  -0.095  27.266  0.00  0.00    +0.365 C 
ATOM     11  O   UNL A   1     -31.987   0.324  26.456  0.00  0.00    -0.246 OA
ENDBRANCH   8  10
ENDBRANCH   7   8
ENDBRANCH   6   7
ENDBRANCH   4   6
BRANCH   2  12
ATOM     12  C   UNL A   1     -24.855  -1.012  30.143  0.00  0.00    +0.115 C 
BRANCH  12  13
ATOM     13  C   UNL A   1     -24.973  -2.505  29.788  0.00  0.00    -0.003 C 
ATOM     14  C   UNL A   1     -23.906  -3.173  29.146  0.00  0.00    -0.003 C 
ATOM     15  C   UNL A   1     -23.989  -4.549  28.853  0.00  0.00    -0.000 C 
ATOM     16  C   UNL A   1     -25.137  -5.280  29.205  0.00  0.00    -0.000 C 
ATOM     17  C   UNL A   1     -26.232  -4.611  29.784  0.00  0.00    -0.000 C 
ATOM     18  C   UNL A   1     -26.155  -3.232  30.065  0.00  0.00    -0.003 C 
ENDBRANCH  12  13
BRANCH  12  19
ATOM     19  C   UNL A   1     -25.387  -0.679  31.571  0.00  0.00    +0.095 C 
ATOM     20  C   UNL A   1     -25.189   0.773  32.028  0.00  0.00    +0.021 C 
ATOM     21  C   UNL A   1     -25.336   0.684  33.544  0.00  0.00    +0.020 C 
ATOM     22  C   UNL A   1     -24.829  -0.715  33.905  0.00  0.00    +0.089 C 
ATOM     23  N   UNL A   1     -24.758  -1.481  32.646  0.00  0.00    -0.217 NA
ENDBRANCH  12  19
ENDBRANCH   2  12
BRANCH   2  24
ATOM     24  C   UNL A   1     -24.246   0.919  28.359  0.00  0.00    +0.082 C 
BRANCH  24  26
ATOM     25  C   UNL A   1     -22.200   0.033  29.553  0.00  0.00    +0.002 C 
ATOM     26  C   UNL A   1     -22.703   0.581  28.233  0.00  0.00    +0.019 C 
ATOM     27  C   UNL A   1     -21.798   1.630  27.559  0.00  0.00    +0.002 C 
ENDBRANCH  24  26
BRANCH  24  28
ATOM     28  C   UNL A   1     -24.284   1.266  26.909  0.00  0.00    +0.049 C 
BRANCH  28  29
ATOM     29  C   UNL A   1     -25.688   1.614  26.461  0.00  0.00    +0.018 C 
ATOM     30  C   UNL A   1     -26.250   2.920  26.395  0.00  0.00    +0.073 C 
ATOM     31  C   UNL A   1     -27.438   3.091  25.645  0.00  0.00    +0.106 C 
ATOM     32  N   UNL A   1     -28.075   2.089  25.003  0.00  0.00    -0.208 NA
ATOM     33  C   UNL A   1     -27.543   0.849  25.079  0.00  0.00    +0.253 C 
ATOM     34  C   UNL A   1     -26.354   0.576  25.777  0.00  0.00    +0.189 C 
ATOM     35  F   UNL A   1     -25.860  -0.681  25.795  0.00  0.00    -0.200 F 
BRANCH  30  36
ATOM     36  C   UNL A   1     -25.642   4.093  27.123  0.00  0.00    +0.266 C 
ATOM     37  N   UNL A   1     -25.614   5.252  26.449  0.00  0.00    -0.200 NA
ATOM     38  C   UNL A   1     -25.026   6.479  26.963  0.00  0.00    +0.139 C 
ATOM     39  O   UNL A   1     -25.143   3.966  28.243  0.00  0.00    -0.268 OA
ENDBRANCH  30  36
BRANCH  33  40
ATOM     40  O   UNL A   1     -28.193  -0.208  24.477  0.00  0.00    -0.456 OA
BRANCH  40  41
ATOM     41  C   UNL A   1     -29.460   0.005  23.866  0.00  0.00    +0.243 C 
BRANCH  41  42
ATOM     42  C   UNL A   1     -30.065  -1.377  23.573  0.00  0.00    +0.229 C 
ATOM     43  O   UNL A   1     -30.729  -1.878  24.721  0.00  0.00    -0.216 OA
ENDBRANCH  41  42
ENDBRANCH  40  41
ENDBRANCH  33  40
ENDBRANCH  28  29
ENDBRANCH  24  28
ENDBRANCH   2  24
TORSDOF 15
