MODEL 1821
MODEL 1
REMARK VINA RESULT:    -7.465      0.000      0.000
REMARK INTER + INTRA:         -10.304
REMARK INTER:                  -9.647
REMARK INTRA:                  -0.657
REMARK UNBOUND:                -0.657
REMARK  Name = No_1821-gen_results/8p0m/2024-11-27-11-27-31/
REMARK  5 active torsions:
REMARK  status: ('A' for Active; 'I' for Inactive)
REMARK    1  A    between atoms: C_2  and  C_11
REMARK    2  A    between atoms: C_3  and  C_7
REMARK    3  A    between atoms: C_16  and  C_19
REMARK    4  A    between atoms: C_19  and  N_20
REMARK    5  A    between atoms: C_21  and  C_22
REMARK                            x       y       z     vdW  Elec       q    Type
REMARK                         _______ _______ _______ _____ _____    ______ ____
ROOT
ATOM      1  C   UNL A   1     -23.419   2.056  26.063  0.00  0.00    +0.249 C 
ATOM      2  N   UNL A   1     -22.901   1.565  27.030  0.00  0.00    -0.276 N 
ATOM      3  O   UNL A   1     -22.713   2.667  25.118  0.00  0.00    -0.270 OA
ATOM      4  C   UNL A   1     -21.545   1.849  27.437  0.00  0.00    +0.094 C 
ATOM      5  C   UNL A   1     -23.607   0.731  28.053  0.00  0.00    +0.096 C 
ATOM      6  C   UNL A   1     -22.869  -0.373  28.494  0.00  0.00    +0.044 C 
ATOM      7  C   UNL A   1     -21.647  -0.123  28.898  0.00  0.00    +0.005 C 
ATOM      8  C   UNL A   1     -20.801   0.698  27.967  0.00  0.00    +0.022 C 
ENDROOT
BRANCH   1  10
ATOM      9  C   UNL A   1     -25.730   1.996  25.974  0.00  0.00    +0.008 A 
ATOM     10  C   UNL A   1     -24.878   1.466  25.653  0.00  0.00    +0.053 A 
ATOM     11  C   UNL A   1     -26.991   1.340  25.629  0.00  0.00    +0.072 A 
ATOM     12  C   UNL A   1     -27.032   0.138  24.968  0.00  0.00    +0.004 A 
ATOM     13  C   UNL A   1     -24.623   0.205  24.956  0.00  0.00    +0.004 A 
ATOM     14  C   UNL A   1     -25.838  -0.438  24.618  0.00  0.00    +0.000 A 
BRANCH  11  15
ATOM     15  C   UNL A   1     -28.306   1.917  26.034  0.00  0.00    +0.419 C 
ATOM     16  F   UNL A   1     -29.144   1.281  25.375  0.00  0.00    -0.166 F 
ATOM     17  F   UNL A   1     -28.495   1.764  27.340  0.00  0.00    -0.166 F 
ATOM     18  F   UNL A   1     -28.195   3.271  25.723  0.00  0.00    -0.166 F 
ENDBRANCH  11  15
ENDBRANCH   1  10
BRANCH   6  19
ATOM     19  C   UNL A   1     -23.751  -1.102  29.574  0.00  0.00    +0.127 C 
BRANCH  19  20
ATOM     20  N   UNL A   1     -23.820  -2.308  29.580  0.00  0.00    -0.269 NA
ATOM     21  C   UNL A   1     -24.437  -3.000  28.901  0.00  0.00    +0.093 C 
BRANCH  21  22
ATOM     22  C   UNL A   1     -24.263  -4.457  28.931  0.00  0.00    +0.016 C 
ATOM     23  C   UNL A   1     -25.406  -5.225  29.313  0.00  0.00    -0.024 C 
ATOM     24  C   UNL A   1     -26.521  -4.608  29.799  0.00  0.00    +0.031 C 
ENDBRANCH  21  22
ENDBRANCH  19  20
ENDBRANCH   6  19
TORSDOF 5
ENDMDL
ENDMDL
