MODEL 1822
MODEL 1
REMARK VINA RESULT:    -5.917      0.000      0.000
REMARK INTER + INTRA:          -9.892
REMARK INTER:                  -8.339
REMARK INTRA:                  -1.554
REMARK UNBOUND:                -1.554
REMARK  Name = No_1822-gen_results/8p0m/2024-11-27-11-27-31/
REMARK  7 active torsions:
REMARK  status: ('A' for Active; 'I' for Inactive)
REMARK    1  A    between atoms: C_2  and  C_10
REMARK    2  A    between atoms: C_3  and  O_20
REMARK    3  A    between atoms: C_4  and  C_7
REMARK    4  A    between atoms: C_10  and  O_12
REMARK    5  A    between atoms: O_12  and  C_13
REMARK    6  A    between atoms: C_13  and  C_14
REMARK    7  A    between atoms: O_20  and  C_21
REMARK                            x       y       z     vdW  Elec       q    Type
REMARK                         _______ _______ _______ _____ _____    ______ ____
ROOT
ATOM      1  C   UNL A   1     -25.422  -0.628  27.082  0.00  0.00    +0.044 A 
ATOM      2  C   UNL A   1     -25.039   0.009  26.336  0.00  0.00    +0.079 A 
ATOM      3  C   UNL A   1     -24.746  -0.593  28.389  0.00  0.00    +0.152 A 
ATOM      4  C   UNL A   1     -23.722   0.363  28.650  0.00  0.00    +0.114 A 
ATOM      5  C   UNL A   1     -24.044   1.115  26.362  0.00  0.00    +0.007 A 
ATOM      6  C   UNL A   1     -23.388   1.173  27.555  0.00  0.00    +0.010 A 
ENDROOT
BRANCH   4   7
ATOM      7  C   UNL A   1     -23.043   0.446  29.900  0.00  0.00    +0.391 C 
ATOM      8  O   UNL A   1     -23.358   1.210  30.681  0.00  0.00    -0.240 OA
ATOM      9  O   UNL A   1     -21.988  -0.372  30.080  0.00  0.00    -0.240 OA
ENDBRANCH   4   7
BRANCH   2  10
ATOM     10  C   UNL A   1     -25.813  -0.194  24.928  0.00  0.00    +0.345 C 
ATOM     11  O   UNL A   1     -25.953  -1.211  24.401  0.00  0.00    -0.245 OA
BRANCH  10  12
ATOM     12  O   UNL A   1     -26.328   0.874  24.478  0.00  0.00    -0.391 OA
BRANCH  12  13
ATOM     13  C   UNL A   1     -27.440   1.315  24.594  0.00  0.00    +0.502 C 
ATOM     14  F   UNL A   1     -27.922   1.305  23.335  0.00  0.00    -0.156 F 
ATOM     15  F   UNL A   1     -28.174   0.356  25.249  0.00  0.00    -0.156 F 
BRANCH  13  16
ATOM     16  C   UNL A   1     -27.535   2.497  25.118  0.00  0.00    +0.497 C 
ATOM     17  F   UNL A   1     -28.273   3.234  24.723  0.00  0.00    -0.162 F 
ATOM     18  F   UNL A   1     -27.752   2.335  26.492  0.00  0.00    -0.162 F 
ATOM     19  F   UNL A   1     -26.335   3.222  25.170  0.00  0.00    -0.162 F 
ENDBRANCH  13  16
ENDBRANCH  12  13
ENDBRANCH  10  12
ENDBRANCH   2  10
BRANCH   3  20
ATOM     20  O   UNL A   1     -25.050  -1.413  29.386  0.00  0.00    -0.451 OA
BRANCH  20  21
ATOM     21  C   UNL A   1     -25.025  -2.746  29.109  0.00  0.00    +0.175 C 
ATOM     22  C   UNL A   1     -24.164  -3.398  28.946  0.00  0.00    +0.015 C 
ATOM     23  C   UNL A   1     -24.228  -4.850  28.645  0.00  0.00    +0.034 C 
ENDBRANCH  20  21
ENDBRANCH   3  20
TORSDOF 7
ENDMDL
ENDMDL
