REMARK  Name = No_1822-gen_results/8p0m/2024-11-27-11-27-31/
REMARK  7 active torsions:
REMARK  status: ('A' for Active; 'I' for Inactive)
REMARK    1  A    between atoms: C_2  and  C_10
REMARK    2  A    between atoms: C_3  and  O_20
REMARK    3  A    between atoms: C_4  and  C_7
REMARK    4  A    between atoms: C_10  and  O_12
REMARK    5  A    between atoms: O_12  and  C_13
REMARK    6  A    between atoms: C_13  and  C_14
REMARK    7  A    between atoms: O_20  and  C_21
REMARK                            x       y       z     vdW  Elec       q    Type
REMARK                         _______ _______ _______ _____ _____    ______ ____
ROOT
ATOM      1  C   UNL A   1     -28.016  -0.814  28.878  0.00  0.00    +0.044 A 
ATOM      2  C   UNL A   1     -28.469  -0.785  29.829  0.00  0.00    +0.079 A 
ATOM      3  C   UNL A   1     -26.546  -0.876  28.850  0.00  0.00    +0.152 A 
ATOM      4  C   UNL A   1     -25.804  -1.032  30.057  0.00  0.00    +0.114 A 
ATOM      5  C   UNL A   1     -27.944  -0.987  31.207  0.00  0.00    +0.007 A 
ATOM      6  C   UNL A   1     -26.582  -1.039  31.223  0.00  0.00    +0.010 A 
ENDROOT
BRANCH   4   7
ATOM      7  C   UNL A   1     -24.381  -1.108  30.085  0.00  0.00    +0.391 C 
ATOM      8  O   UNL A   1     -23.809  -1.583  29.225  0.00  0.00    -0.240 OA
ATOM      9  O   UNL A   1     -23.765  -0.651  31.192  0.00  0.00    -0.240 OA
ENDBRANCH   4   7
BRANCH   2  10
ATOM     10  C   UNL A   1     -30.076  -0.627  29.716  0.00  0.00    +0.345 C 
ATOM     11  O   UNL A   1     -30.838  -1.325  30.231  0.00  0.00    -0.245 OA
BRANCH  10  12
ATOM     12  O   UNL A   1     -30.437   0.395  29.058  0.00  0.00    -0.391 OA
BRANCH  12  13
ATOM     13  C   UNL A   1     -31.525   0.885  28.910  0.00  0.00    +0.502 C 
ATOM     14  F   UNL A   1     -32.272   0.301  29.869  0.00  0.00    -0.156 F 
ATOM     15  F   UNL A   1     -31.421   2.196  29.307  0.00  0.00    -0.156 F 
BRANCH  13  16
ATOM     16  C   UNL A   1     -32.067   0.731  27.742  0.00  0.00    +0.497 C 
ATOM     17  F   UNL A   1     -33.176   0.740  27.627  0.00  0.00    -0.162 F 
ATOM     18  F   UNL A   1     -31.518   1.698  26.890  0.00  0.00    -0.162 F 
ATOM     19  F   UNL A   1     -31.669  -0.422  27.049  0.00  0.00    -0.162 F 
ENDBRANCH  13  16
ENDBRANCH  12  13
ENDBRANCH  10  12
ENDBRANCH   2  10
BRANCH   3  20
ATOM     20  O   UNL A   1     -25.837  -0.811  27.731  0.00  0.00    -0.451 OA
BRANCH  20  21
ATOM     21  C   UNL A   1     -26.107   0.232  26.898  0.00  0.00    +0.175 C 
ATOM     22  C   UNL A   1     -26.361   1.264  27.150  0.00  0.00    +0.015 C 
ATOM     23  C   UNL A   1     -26.643   2.344  26.172  0.00  0.00    +0.034 C 
ENDBRANCH  20  21
ENDBRANCH   3  20
TORSDOF 7
