MODEL 1823
MODEL 1
REMARK VINA RESULT:    -6.717      0.000      0.000
REMARK INTER + INTRA:          -6.717
REMARK INTER:                  -6.717
REMARK INTRA:                   0.000
REMARK UNBOUND:                 0.000
REMARK  Name = No_1823-gen_results/8p0m/2024-11-27-11-27-31/
REMARK  0 active torsions:
REMARK  status: ('A' for Active; 'I' for Inactive)
REMARK                            x       y       z     vdW  Elec       q    Type
REMARK                         _______ _______ _______ _____ _____    ______ ____
ROOT
ATOM      1  C   UNL A   1     -26.604  -3.923  30.025  0.00  0.00    -0.004 A 
ATOM      2  C   UNL A   1     -26.224  -4.804  29.589  0.00  0.00    -0.000 A 
ATOM      3  C   UNL A   1     -25.785  -2.773  30.009  0.00  0.00    -0.015 A 
ATOM      4  C   UNL A   1     -26.210  -1.429  30.480  0.00  0.00    +0.053 C 
ATOM      5  C   UNL A   1     -24.930  -5.089  28.943  0.00  0.00    +0.000 A 
ATOM      6  C   UNL A   1     -24.065  -3.995  28.894  0.00  0.00    +0.003 A 
ATOM      7  C   UNL A   1     -24.483  -2.798  29.380  0.00  0.00    +0.035 A 
ATOM      8  C   UNL A   1     -25.199  -0.429  30.616  0.00  0.00    -0.012 A 
ATOM      9  C   UNL A   1     -23.952  -0.533  29.972  0.00  0.00    +0.054 A 
ATOM     10  C   UNL A   1     -23.539  -1.741  29.459  0.00  0.00    +0.197 C 
ATOM     11  C   UNL A   1     -23.062   0.680  30.088  0.00  0.00    +0.102 A 
ATOM     12  N   UNL A   1     -23.663   1.816  30.639  0.00  0.00    -0.242 NA
ATOM     13  C   UNL A   1     -24.952   1.943  30.917  0.00  0.00    +0.099 A 
ATOM     14  C   UNL A   1     -25.742   0.837  30.992  0.00  0.00    +0.017 A 
ATOM     15  O   UNL A   1     -22.331  -1.812  28.858  0.00  0.00    -0.286 OA
ENDROOT
TORSDOF 0
ENDMDL
ENDMDL
