MODEL 1824
MODEL 1
REMARK VINA RESULT:    -5.199      0.000      0.000
REMARK INTER + INTRA:          -5.697
REMARK INTER:                  -5.503
REMARK INTRA:                  -0.194
REMARK UNBOUND:                -0.194
REMARK  Name = No_1824-gen_results/8p0m/2024-11-27-11-27-31/
REMARK  1 active torsions:
REMARK  status: ('A' for Active; 'I' for Inactive)
REMARK    1  A    between atoms: C_5  and  C_7
REMARK                            x       y       z     vdW  Elec       q    Type
REMARK                         _______ _______ _______ _____ _____    ______ ____
ROOT
ATOM      1  C   UNL A   1     -24.227  -5.015  28.745  0.00  0.00    -0.000 A 
ATOM      2  C   UNL A   1     -25.292  -5.378  29.189  0.00  0.00    -0.000 A 
ATOM      3  C   UNL A   1     -26.262  -4.543  29.716  0.00  0.00    -0.000 A 
ATOM      4  C   UNL A   1     -25.990  -3.143  29.704  0.00  0.00    -0.004 A 
ATOM      5  C   UNL A   1     -24.863  -2.764  29.067  0.00  0.00    -0.022 A 
ATOM      6  C   UNL A   1     -24.035  -3.652  28.513  0.00  0.00    -0.004 A 
ENDROOT
BRANCH   5   7
ATOM      7  C   UNL A   1     -24.484  -1.364  28.867  0.00  0.00    +0.022 C 
ATOM      8  C   UNL A   1     -24.901  -0.678  27.807  0.00  0.00    +0.005 C 
ATOM      9  C   UNL A   1     -23.014  -1.189  29.027  0.00  0.00    +0.005 C 
ENDBRANCH   5   7
TORSDOF 1
ENDMDL
ENDMDL
