REMARK  Name = outputs/IAG933/test6/raw/output_1826_IAG933_linker_design_.xyz
REMARK  17 active torsions:
REMARK  status: ('A' for Active; 'I' for Inactive)
REMARK    1  A    between atoms: C_1  and  C_2
REMARK    2  A    between atoms: C_1  and  C_8
REMARK    3  A    between atoms: C_9  and  O_39
REMARK    4  A    between atoms: C_14  and  C_15
REMARK    5  A    between atoms: C_15  and  O_18
REMARK    6  A    between atoms: O_18  and  C_42
REMARK    7  A    between atoms: C_21  and  O_22
REMARK    8  A    between atoms: O_22  and  C_23
REMARK    9  A    between atoms: C_23  and  C_24
REMARK   10  A    between atoms: C_28  and  C_29
REMARK   11  A    between atoms: C_29  and  C_32
REMARK   12  A    between atoms: C_31  and  N_34
REMARK   13  A    between atoms: N_33  and  C_38
REMARK   14  A    between atoms: N_34  and  O_37
REMARK   15  A    between atoms: O_37  and  C_42
REMARK   16  A    between atoms: C_38  and  O_39
REMARK   17  A    between atoms: C_38  and  C_42
REMARK                            x       y       z     vdW  Elec       q    Type
REMARK                         _______ _______ _______ _____ _____    ______ ____
ROOT
ATOM      1  C   UNL A   1     -25.265   3.295  29.474  0.00  0.00    +0.357 C 
ENDROOT
BRANCH   1   2
ATOM      2  O   UNL A   1     -25.143   3.966  28.243  0.00  0.00    -0.432 OA
BRANCH   2   3
ATOM      3  C   UNL A   1     -25.642   4.093  27.123  0.00  0.00    +0.224 C 
ATOM      4  N   UNL A   1     -25.614   5.252  26.449  0.00  0.00    -0.236 NA
ATOM      5  C   UNL A   1     -25.026   6.479  26.963  0.00  0.00    +0.155 C 
BRANCH   3   7
ATOM      6  C   UNL A   1     -25.688   1.614  26.461  0.00  0.00    +0.041 C 
ATOM      7  C   UNL A   1     -26.250   2.920  26.395  0.00  0.00    +0.074 C 
ATOM      8  C   UNL A   1     -27.438   3.091  25.645  0.00  0.00    +0.107 C 
ATOM      9  N   UNL A   1     -28.075   2.089  25.003  0.00  0.00    -0.208 NA
ATOM     10  C   UNL A   1     -27.543   0.849  25.079  0.00  0.00    +0.253 C 
ATOM     11  C   UNL A   1     -26.354   0.576  25.777  0.00  0.00    +0.193 C 
ATOM     12  F   UNL A   1     -25.860  -0.681  25.795  0.00  0.00    -0.199 F 
BRANCH  10  13
ATOM     13  O   UNL A   1     -28.193  -0.208  24.477  0.00  0.00    -0.456 OA
BRANCH  13  14
ATOM     14  C   UNL A   1     -29.460   0.005  23.866  0.00  0.00    +0.243 C 
BRANCH  14  15
ATOM     15  C   UNL A   1     -30.065  -1.377  23.573  0.00  0.00    +0.229 C 
ATOM     16  O   UNL A   1     -30.729  -1.878  24.721  0.00  0.00    -0.216 OA
ENDBRANCH  14  15
ENDBRANCH  13  14
ENDBRANCH  10  13
ENDBRANCH   3   7
ENDBRANCH   2   3
ENDBRANCH   1   2
BRANCH   1  17
ATOM     17  O   UNL A   1     -26.129   4.111  30.280  0.00  0.00    -0.214 OA
BRANCH  17  18
ATOM     18  N   UNL A   1     -27.532   3.786  29.983  0.00  0.00    +0.015 NA
BRANCH  18  20
ATOM     19  F   UNL A   1     -29.255   3.040  30.854  0.00  0.00    -0.153 F 
ATOM     20  C   UNL A   1     -28.472   3.958  30.762  0.00  0.00    +0.501 C 
ATOM     21  F   UNL A   1     -27.989   4.077  32.035  0.00  0.00    -0.153 F 
ATOM     22  F   UNL A   1     -29.009   5.062  30.463  0.00  0.00    -0.153 F 
ENDBRANCH  18  20
ENDBRANCH  17  18
ENDBRANCH   1  17
BRANCH   1  23
ATOM     23  C   UNL A   1     -24.903   2.065  30.094  0.00  0.00    +0.285 C 
BRANCH  23  25
ATOM     24  C   UNL A   1     -22.861   0.627  28.689  0.00  0.00    +0.259 C 
ATOM     25  N   UNL A   1     -23.578   1.350  29.759  0.00  0.00    -0.171 NA
ATOM     26  O   UNL A   1     -23.369  -0.356  28.111  0.00  0.00    -0.272 OA
BRANCH  24  27
ATOM     27  C   UNL A   1     -21.418   1.024  28.290  0.00  0.00    +0.192 C 
BRANCH  27  28
ATOM     28  C   UNL A   1     -21.770   1.903  27.136  0.00  0.00    +0.083 C 
ATOM     29  N   UNL A   1     -22.099   2.599  26.229  0.00  0.00    -0.195 NA
ENDBRANCH  27  28
ENDBRANCH  24  27
ENDBRANCH  23  25
BRANCH  23  30
ATOM     30  O   UNL A   1     -25.331   2.100  31.528  0.00  0.00    -0.333 OA
BRANCH  30  32
ATOM     31  C   UNL A   1     -25.387  -0.679  31.571  0.00  0.00    +0.104 C 
ATOM     32  C   UNL A   1     -25.189   0.773  32.028  0.00  0.00    +0.135 C 
ATOM     33  C   UNL A   1     -25.336   0.684  33.544  0.00  0.00    +0.050 C 
ATOM     34  C   UNL A   1     -24.829  -0.715  33.905  0.00  0.00    +0.091 C 
ATOM     35  N   UNL A   1     -24.758  -1.481  32.646  0.00  0.00    -0.217 NA
BRANCH  31  36
ATOM     36  C   UNL A   1     -24.855  -1.012  30.143  0.00  0.00    +0.046 C 
BRANCH  36  37
ATOM     37  C   UNL A   1     -24.973  -2.505  29.788  0.00  0.00    -0.021 C 
ATOM     38  C   UNL A   1     -23.906  -3.173  29.146  0.00  0.00    -0.004 C 
ATOM     39  C   UNL A   1     -23.989  -4.549  28.853  0.00  0.00    -0.000 C 
ATOM     40  C   UNL A   1     -25.137  -5.280  29.205  0.00  0.00    -0.000 C 
ATOM     41  C   UNL A   1     -26.232  -4.611  29.784  0.00  0.00    -0.000 C 
ATOM     42  C   UNL A   1     -26.155  -3.232  30.065  0.00  0.00    -0.004 C 
ENDBRANCH  36  37
ENDBRANCH  31  36
ENDBRANCH  30  32
ENDBRANCH  23  30
ENDBRANCH   1  23
TORSDOF 17
