MODEL 1826
MODEL 1
REMARK VINA RESULT:    -5.407      0.000      0.000
REMARK INTER + INTRA:          -7.658
REMARK INTER:                  -7.304
REMARK INTRA:                  -0.355
REMARK UNBOUND:                -0.355
REMARK  Name = No_1826-gen_results/8p0m/2024-11-27-11-27-31/
REMARK  6 active torsions:
REMARK  status: ('A' for Active; 'I' for Inactive)
REMARK    1  A    between atoms: C_1  and  C_2
REMARK    2  A    between atoms: C_1  and  C_3
REMARK    3  A    between atoms: C_2  and  C_5
REMARK    4  A    between atoms: C_8  and  C_9
REMARK    5  A    between atoms: C_9  and  N_11
REMARK    6  A    between atoms: N_11  and  C_14
REMARK                            x       y       z     vdW  Elec       q    Type
REMARK                         _______ _______ _______ _____ _____    ______ ____
ROOT
ATOM      1  C   UNL A   1     -28.788 -11.221  30.786  0.00  0.00    -0.022 A 
ATOM      2  C   UNL A   1     -29.816 -10.349  30.890  0.00  0.00    -0.004 A 
ATOM      3  C   UNL A   1     -30.660 -10.150  29.879  0.00  0.00    -0.001 A 
ATOM      4  C   UNL A   1     -30.421 -10.602  28.536  0.00  0.00    -0.003 A 
ATOM      5  C   UNL A   1     -29.387 -11.528  28.406  0.00  0.00    -0.006 A 
ATOM      6  C   UNL A   1     -28.655 -11.896  29.512  0.00  0.00    -0.007 A 
ENDROOT
BRANCH   1   7
ATOM      7  C   UNL A   1     -28.297 -12.009  31.915  0.00  0.00    +0.038 C 
BRANCH   7   8
ATOM      8  C   UNL A   1     -28.274 -11.476  32.824  0.00  0.00    +0.119 C 
BRANCH   8   9
ATOM      9  C   UNL A   1     -27.236 -11.722  33.803  0.00  0.00    +0.365 C 
ATOM     10  O   UNL A   1     -26.770 -12.750  33.786  0.00  0.00    -0.246 OA
ATOM     11  O   UNL A   1     -26.839 -10.831  34.608  0.00  0.00    -0.246 OA
ENDBRANCH   8   9
ENDBRANCH   7   8
ENDBRANCH   1   7
BRANCH   5  12
ATOM     12  C   UNL A   1     -29.141 -12.109  27.119  0.00  0.00    +0.100 C 
BRANCH  12  13
ATOM     13  N   UNL A   1     -29.995 -13.137  26.842  0.00  0.00    -0.251 NA
ATOM     14  C   UNL A   1     -30.880 -12.790  25.619  0.00  0.00    +0.091 C 
BRANCH  13  15
ATOM     15  C   UNL A   1     -30.299 -14.078  27.343  0.00  0.00    +0.184 C 
ATOM     16  N   UNL A   1     -30.858 -15.046  26.677  0.00  0.00    -0.112 NA
ENDBRANCH  13  15
ENDBRANCH  12  13
ENDBRANCH   5  12
TORSDOF 6
ENDMDL
ENDMDL
