MODEL 1827
MODEL 1
REMARK VINA RESULT:    -4.544      0.000      0.000
REMARK INTER + INTRA:          -4.544
REMARK INTER:                  -4.544
REMARK INTRA:                   0.000
REMARK UNBOUND:                 0.000
REMARK  Name = No_1827-gen_results/8p0m/2024-11-27-11-27-31/
REMARK  0 active torsions:
REMARK  status: ('A' for Active; 'I' for Inactive)
REMARK                            x       y       z     vdW  Elec       q    Type
REMARK                         _______ _______ _______ _____ _____    ______ ____
ROOT
ATOM      1  C   UNL A   1     -24.019  -4.312  28.652  0.00  0.00    +0.030 A 
ATOM      2  C   UNL A   1     -24.910  -5.085  28.917  0.00  0.00    +0.140 A 
ATOM      3  C   UNL A   1     -26.057  -4.732  29.552  0.00  0.00    +0.030 A 
ATOM      4  C   UNL A   1     -26.225  -3.385  29.927  0.00  0.00    +0.002 A 
ATOM      5  C   UNL A   1     -24.165  -2.904  28.920  0.00  0.00    +0.002 A 
ATOM      6  C   UNL A   1     -25.286  -2.502  29.583  0.00  0.00    +0.000 A 
ATOM      7  F   UNL A   1     -24.819  -6.399  28.587  0.00  0.00    -0.204 F 
ENDROOT
TORSDOF 0
ENDMDL
ENDMDL
