MODEL 1828
MODEL 1
REMARK VINA RESULT:    -8.014      0.000      0.000
REMARK INTER + INTRA:         -11.250
REMARK INTER:                  -9.888
REMARK INTRA:                  -1.362
REMARK UNBOUND:                -1.362
REMARK  Name = No_1828-gen_results/8p0m/2024-11-27-11-27-31/
REMARK  4 active torsions:
REMARK  status: ('A' for Active; 'I' for Inactive)
REMARK    1  A    between atoms: C_3  and  C_11
REMARK    2  A    between atoms: C_5  and  C_7
REMARK    3  A    between atoms: C_11  and  C_12
REMARK    4  A    between atoms: C_12  and  C_14
REMARK                            x       y       z     vdW  Elec       q    Type
REMARK                         _______ _______ _______ _____ _____    ______ ____
ROOT
ATOM      1  C   UNL A   1     -25.925  -0.250  28.929  0.00  0.00    +0.057 C 
ENDROOT
BRANCH   1   4
ATOM      2  C   UNL A   1     -25.548  -0.453  25.282  0.00  0.00    -0.000 A 
ATOM      3  C   UNL A   1     -25.968  -0.579  26.408  0.00  0.00    -0.004 A 
ATOM      4  C   UNL A   1     -25.487   0.093  27.519  0.00  0.00    -0.018 A 
ATOM      5  C   UNL A   1     -24.432   1.028  27.304  0.00  0.00    -0.000 A 
ATOM      6  C   UNL A   1     -24.091   1.253  26.019  0.00  0.00    +0.071 A 
ATOM      7  C   UNL A   1     -24.683   0.610  25.011  0.00  0.00    +0.004 A 
BRANCH   6   8
ATOM      8  C   UNL A   1     -23.029   2.261  25.830  0.00  0.00    +0.419 C 
ATOM      9  F   UNL A   1     -22.206   2.259  26.655  0.00  0.00    -0.166 F 
ATOM     10  F   UNL A   1     -22.553   2.115  24.579  0.00  0.00    -0.166 F 
ATOM     11  F   UNL A   1     -23.580   3.522  25.747  0.00  0.00    -0.166 F 
ENDBRANCH   6   8
ENDBRANCH   1   4
BRANCH   1  12
ATOM     12  C   UNL A   1     -24.934  -0.960  29.696  0.00  0.00    +0.038 C 
ATOM     13  C   UNL A   1     -24.335  -0.664  30.685  0.00  0.00    +0.275 C 
ATOM     14  F   UNL A   1     -24.818  -0.324  31.785  0.00  0.00    -0.172 F 
ATOM     15  F   UNL A   1     -23.297  -1.489  31.072  0.00  0.00    -0.172 F 
BRANCH  12  16
ATOM     16  C   UNL A   1     -24.886  -2.470  29.362  0.00  0.00    +0.001 A 
ATOM     17  C   UNL A   1     -23.939  -3.098  28.749  0.00  0.00    -0.000 A 
ATOM     18  C   UNL A   1     -24.097  -4.517  28.565  0.00  0.00    -0.000 A 
ATOM     19  C   UNL A   1     -25.164  -5.128  29.057  0.00  0.00    -0.000 A 
ATOM     20  C   UNL A   1     -26.213  -4.502  29.673  0.00  0.00    -0.000 A 
ATOM     21  C   UNL A   1     -26.075  -3.190  29.848  0.00  0.00    -0.000 A 
ENDBRANCH  12  16
ENDBRANCH   1  12
TORSDOF 4
ENDMDL
ENDMDL
