MODEL 1829
MODEL 1
REMARK VINA RESULT:    -6.843      0.000      0.000
REMARK INTER + INTRA:          -7.124
REMARK INTER:                  -7.243
REMARK INTRA:                   0.119
REMARK UNBOUND:                 0.119
REMARK  Name = No_1829-gen_results/8p0m/2024-11-27-11-27-31/
REMARK  2 active torsions:
REMARK  status: ('A' for Active; 'I' for Inactive)
REMARK    1  A    between atoms: C_2  and  C_11
REMARK    2  A    between atoms: C_4  and  C_7
REMARK                            x       y       z     vdW  Elec       q    Type
REMARK                         _______ _______ _______ _____ _____    ______ ____
ROOT
ATOM      1  C   UNL A   1     -22.661   0.351  28.511  0.00  0.00    -0.004 C 
ATOM      2  C   UNL A   1     -23.279   0.629  27.704  0.00  0.00    +0.067 C 
ATOM      3  C   UNL A   1     -23.167  -0.800  29.350  0.00  0.00    -0.027 C 
ATOM      4  C   UNL A   1     -24.317  -1.505  28.936  0.00  0.00    +0.154 C 
ATOM      5  C   UNL A   1     -24.478   0.056  27.050  0.00  0.00    -0.021 C 
ATOM      6  C   UNL A   1     -24.968  -1.010  27.791  0.00  0.00    +0.049 C 
ATOM      7 BR   UNL A   1     -23.861  -2.579  28.994  0.00  0.00    -0.069 Br
ATOM      8  C   UNL A   1     -22.715  -0.766  30.809  0.00  0.00    +0.028 C 
ENDROOT
BRANCH   4   9
ATOM      9  C   UNL A   1     -24.848  -2.585  29.696  0.00  0.00    +0.409 C 
ATOM     10  F   UNL A   1     -25.279  -2.244  30.785  0.00  0.00    -0.169 F 
ATOM     11  F   UNL A   1     -25.949  -3.124  29.051  0.00  0.00    -0.169 F 
ATOM     12  F   UNL A   1     -23.971  -3.622  29.827  0.00  0.00    -0.169 F 
ENDBRANCH   4   9
BRANCH   2  13
ATOM     13  C   UNL A   1     -22.751   1.880  26.822  0.00  0.00    +0.418 C 
ATOM     14  F   UNL A   1     -23.143   2.803  27.360  0.00  0.00    -0.166 F 
ATOM     15  F   UNL A   1     -21.419   1.885  26.675  0.00  0.00    -0.166 F 
ATOM     16  F   UNL A   1     -23.286   1.843  25.617  0.00  0.00    -0.166 F 
ENDBRANCH   2  13
TORSDOF 2
ENDMDL
ENDMDL
