MODEL 182
MODEL 1
REMARK VINA RESULT:    -7.352      0.000      0.000
REMARK INTER + INTRA:         -11.254
REMARK INTER:                  -9.930
REMARK INTRA:                  -1.324
REMARK UNBOUND:                -1.324
REMARK  Name = No_182-gen_results/8p0m/2024-11-27-11-27-31/
REMARK  6 active torsions:
REMARK  status: ('A' for Active; 'I' for Inactive)
REMARK    1  A    between atoms: C_2  and  C_10
REMARK    2  A    between atoms: C_3  and  C_7
REMARK    3  A    between atoms: C_7  and  O_8
REMARK    4  A    between atoms: O_8  and  C_13
REMARK    5  A    between atoms: C_14  and  C_15
REMARK    6  A    between atoms: C_17  and  C_18
REMARK                            x       y       z     vdW  Elec       q    Type
REMARK                         _______ _______ _______ _____ _____    ______ ____
ROOT
ATOM      1  C   UNL A   1     -23.221   0.907  27.971  0.00  0.00    +0.168 A 
ATOM      2  C   UNL A   1     -24.288   0.037  27.477  0.00  0.00    +0.039 A 
ATOM      3  C   UNL A   1     -22.663   1.899  27.179  0.00  0.00    +0.136 A 
ATOM      4  N   UNL A   1     -23.283   2.089  25.957  0.00  0.00    -0.239 NA
ATOM      5  C   UNL A   1     -24.735   0.489  26.140  0.00  0.00    +0.024 A 
ATOM      6  C   UNL A   1     -24.234   1.494  25.441  0.00  0.00    +0.099 A 
ENDROOT
BRANCH   2   7
ATOM      7  C   UNL A   1     -24.883  -0.966  28.236  0.00  0.00    +0.022 A 
ATOM      8  C   UNL A   1     -24.430  -2.111  28.323  0.00  0.00    +0.010 A 
ATOM      9  C   UNL A   1     -25.240  -3.080  29.163  0.00  0.00    +0.099 A 
ATOM     10  C   UNL A   1     -26.075  -0.649  28.961  0.00  0.00    +0.099 A 
ATOM     11  C   UNL A   1     -26.338  -2.605  29.799  0.00  0.00    +0.105 A 
ATOM     12  N   UNL A   1     -26.741  -1.457  29.694  0.00  0.00    -0.242 NA
BRANCH   9  13
ATOM     13  C   UNL A   1     -24.762  -4.457  29.242  0.00  0.00    +0.389 C 
ATOM     14  O   UNL A   1     -25.556  -5.355  29.676  0.00  0.00    -0.240 OA
ATOM     15  O   UNL A   1     -23.626  -4.789  28.732  0.00  0.00    -0.240 OA
ENDBRANCH   9  13
ENDBRANCH   2   7
BRANCH   1  16
ATOM     16  O   UNL A   1     -22.760   0.636  29.282  0.00  0.00    -0.419 OA
BRANCH  16  17
ATOM     17  C   UNL A   1     -23.306   1.182  30.116  0.00  0.00    +0.346 C 
ATOM     18  O   UNL A   1     -24.054   2.265  29.921  0.00  0.00    -0.244 OA
BRANCH  17  21
ATOM     19  C   UNL A   1     -24.717   0.756  32.231  0.00  0.00    +0.013 A 
ATOM     20  C   UNL A   1     -24.834   0.101  33.048  0.00  0.00    +0.080 A 
ATOM     21  C   UNL A   1     -23.606   0.399  31.349  0.00  0.00    +0.076 A 
ATOM     22  C   UNL A   1     -22.818  -0.703  31.577  0.00  0.00    +0.006 A 
ATOM     23  C   UNL A   1     -24.173  -1.112  33.528  0.00  0.00    +0.007 A 
ATOM     24  C   UNL A   1     -23.096  -1.467  32.681  0.00  0.00    +0.000 A 
BRANCH  20  25
ATOM     25  C   UNL A   1     -26.093   0.313  34.068  0.00  0.00    +0.388 C 
ATOM     26  O   UNL A   1     -26.454   1.343  34.435  0.00  0.00    -0.241 OA
ATOM     27  O   UNL A   1     -26.249  -0.690  34.913  0.00  0.00    -0.241 OA
ENDBRANCH  20  25
ENDBRANCH  17  21
ENDBRANCH  16  17
ENDBRANCH   1  16
TORSDOF 6
ENDMDL
ENDMDL
