MODEL 1830
MODEL 1
REMARK VINA RESULT:    -4.996      0.000      0.000
REMARK INTER + INTRA:          -4.996
REMARK INTER:                  -4.996
REMARK INTRA:                   0.000
REMARK UNBOUND:                 0.000
REMARK  Name = No_1830-gen_results/8p0m/2024-11-27-11-27-31/
REMARK  0 active torsions:
REMARK  status: ('A' for Active; 'I' for Inactive)
REMARK                            x       y       z     vdW  Elec       q    Type
REMARK                         _______ _______ _______ _____ _____    ______ ____
ROOT
ATOM      1  C   UNL A   1     -10.575  -9.300  19.154  0.00  0.00    +0.042 A 
ATOM      2  C   UNL A   1      -9.855  -9.090  20.102  0.00  0.00    +0.003 A 
ATOM      3  C   UNL A   1      -8.545  -9.556  20.127  0.00  0.00    +0.000 A 
ATOM      4  C   UNL A   1      -8.018 -10.344  19.042  0.00  0.00    +0.003 A 
ATOM      5  C   UNL A   1      -8.926 -10.559  17.997  0.00  0.00    +0.042 A 
ATOM      6  C   UNL A   1     -10.161 -10.111  18.030  0.00  0.00    +0.196 A 
ATOM      7  O   UNL A   1     -10.991 -10.398  16.991  0.00  0.00    -0.287 OA
ENDROOT
TORSDOF 0
ENDMDL
ENDMDL
