MODEL 1831
MODEL 1
REMARK VINA RESULT:    -5.016      0.000      0.000
REMARK INTER + INTRA:          -5.745
REMARK INTER:                  -5.602
REMARK INTRA:                  -0.142
REMARK UNBOUND:                -0.142
REMARK  Name = No_1831-gen_results/8p0m/2024-11-27-11-27-31/
REMARK  2 active torsions:
REMARK  status: ('A' for Active; 'I' for Inactive)
REMARK    1  A    between atoms: C_1  and  C_2
REMARK    2  A    between atoms: C_1  and  N_8
REMARK                            x       y       z     vdW  Elec       q    Type
REMARK                         _______ _______ _______ _____ _____    ______ ____
ROOT
ATOM      1  C   UNL A   1     -22.873  -0.650  28.857  0.00  0.00    +0.002 A 
ATOM      2  C   UNL A   1     -21.511  -0.422  28.883  0.00  0.00    -0.002 A 
ATOM      3  C   UNL A   1     -20.817   0.638  28.176  0.00  0.00    -0.000 A 
ATOM      4  C   UNL A   1     -21.568   1.525  27.373  0.00  0.00    -0.000 A 
ATOM      5  C   UNL A   1     -22.992   1.307  27.348  0.00  0.00    -0.000 A 
ATOM      6  C   UNL A   1     -23.633   0.318  28.057  0.00  0.00    -0.002 A 
ENDROOT
BRANCH   1   7
ATOM      7  C   UNL A   1     -23.422  -1.504  29.513  0.00  0.00    +0.151 C 
BRANCH   7   8
ATOM      8  N   UNL A   1     -23.526  -2.786  28.971  0.00  0.00    -0.269 NA
ATOM      9  C   UNL A   1     -24.210  -3.520  29.061  0.00  0.00    +0.068 C 
ATOM     10  C   UNL A   1     -24.059  -4.919  28.384  0.00  0.00    +0.053 C 
ENDBRANCH   7   8
ENDBRANCH   1   7
TORSDOF 2
ENDMDL
ENDMDL
