MODEL 1832
MODEL 1
REMARK VINA RESULT:    -6.632      0.000      0.000
REMARK INTER + INTRA:          -4.684
REMARK INTER:                  -7.019
REMARK INTRA:                   2.335
REMARK UNBOUND:                 2.335
REMARK  Name = No_1832-gen_results/8p0m/2024-11-27-11-27-31/
REMARK  1 active torsions:
REMARK  status: ('A' for Active; 'I' for Inactive)
REMARK    1  A    between atoms: C_15  and  N_16
REMARK                            x       y       z     vdW  Elec       q    Type
REMARK                         _______ _______ _______ _____ _____    ______ ____
ROOT
ATOM      1  C   UNL A   1     -25.848  -1.707  29.480  0.00  0.00    -0.003 A 
ATOM      2  C   UNL A   1     -25.952  -2.736  29.276  0.00  0.00    -0.000 A 
ATOM      3  C   UNL A   1     -24.911  -0.652  29.613  0.00  0.00    -0.006 A 
ATOM      4  C   UNL A   1     -23.584  -1.192  29.633  0.00  0.00    -0.024 A 
ATOM      5  C   UNL A   1     -23.461  -2.602  29.411  0.00  0.00    -0.004 A 
ATOM      6  C   UNL A   1     -24.586  -3.398  29.212  0.00  0.00    -0.000 A 
ATOM      7  C   UNL A   1     -22.404  -0.380  29.784  0.00  0.00    +0.031 C 
ATOM      8  C   UNL A   1     -22.030   0.263  28.591  0.00  0.00    +0.031 C 
ATOM      9  C   UNL A   1     -22.493   1.173  28.000  0.00  0.00    -0.024 A 
ATOM     10  C   UNL A   1     -21.946   1.726  26.749  0.00  0.00    -0.001 A 
ATOM     11  C   UNL A   1     -22.615   2.234  25.712  0.00  0.00    +0.042 A 
ATOM     12  C   UNL A   1     -23.986   1.778  25.599  0.00  0.00    +0.196 A 
ATOM     13  C   UNL A   1     -24.582   0.980  26.603  0.00  0.00    +0.039 A 
ATOM     14  C   UNL A   1     -23.792   0.687  27.738  0.00  0.00    -0.003 A 
ATOM     15  C   UNL A   1     -24.508  -0.013  28.554  0.00  0.00    +0.117 C 
ATOM     16  O   UNL A   1     -25.446   0.973  25.517  0.00  0.00    -0.287 OA
ENDROOT
BRANCH  15  17
ATOM     17  N   UNL A   1     -25.510   0.322  27.613  0.00  0.00    -0.209 NA
ATOM     18  C   UNL A   1     -26.623   0.403  27.296  0.00  0.00    +0.108 C 
ENDBRANCH  15  17
TORSDOF 1
ENDMDL
ENDMDL
