MODEL 1833
MODEL 1
REMARK VINA RESULT:    -6.088      0.000      0.000
REMARK INTER + INTRA:          -7.066
REMARK INTER:                  -6.799
REMARK INTRA:                  -0.266
REMARK UNBOUND:                -0.266
REMARK  Name = No_1833-gen_results/8p0m/2024-11-27-11-27-31/
REMARK  2 active torsions:
REMARK  status: ('A' for Active; 'I' for Inactive)
REMARK    1  A    between atoms: C_2  and  C_7
REMARK    2  A    between atoms: C_7  and  C_9
REMARK                            x       y       z     vdW  Elec       q    Type
REMARK                         _______ _______ _______ _____ _____    ______ ____
ROOT
ATOM      1  C   UNL A   1     -24.852  -1.329  27.862  0.00  0.00    +0.002 A 
ATOM      2  C   UNL A   1     -24.265  -1.714  28.649  0.00  0.00    +0.001 A 
ATOM      3  C   UNL A   1     -24.426   0.023  27.336  0.00  0.00    +0.051 A 
ATOM      4  C   UNL A   1     -23.230   0.604  27.807  0.00  0.00    -0.016 A 
ATOM      5  C   UNL A   1     -22.983  -1.339  29.286  0.00  0.00    -0.003 A 
ATOM      6  C   UNL A   1     -22.556  -0.103  28.822  0.00  0.00    -0.004 A 
ATOM      7  C   UNL A   1     -25.159   0.800  26.321  0.00  0.00    +0.265 C 
ATOM      8  N   UNL A   1     -24.791   2.033  26.137  0.00  0.00    -0.201 NA
ATOM      9  O   UNL A   1     -26.239   0.377  25.895  0.00  0.00    -0.268 OA
ATOM     10  C   UNL A   1     -23.583   2.672  26.451  0.00  0.00    +0.120 C 
ATOM     11  C   UNL A   1     -22.784   1.930  27.455  0.00  0.00    +0.050 C 
ENDROOT
BRANCH   2  12
ATOM     12  C   UNL A   1     -24.875  -3.096  29.122  0.00  0.00    +0.180 C 
ATOM     13 CL   UNL A   1     -24.290  -4.355  28.862  0.00  0.00    -0.100 Cl
BRANCH  12  14
ATOM     14  C   UNL A   1     -26.177  -2.963  29.963  0.00  0.00    +0.261 C 
ATOM     15  N   UNL A   1     -27.074  -3.462  29.925  0.00  0.00    -0.202 NA
ATOM     16  O   UNL A   1     -25.957  -1.978  30.979  0.00  0.00    -0.272 OA
ATOM     17  C   UNL A   1     -28.288  -3.334  30.806  0.00  0.00    +0.139 C 
ENDBRANCH  12  14
ENDBRANCH   2  12
TORSDOF 2
ENDMDL
ENDMDL
