REMARK  Name = No_1834-gen_results/8p0m/2024-11-27-11-27-31/
REMARK  1 active torsions:
REMARK  status: ('A' for Active; 'I' for Inactive)
REMARK    1  A    between atoms: C_1  and  C_2
REMARK                            x       y       z     vdW  Elec       q    Type
REMARK                         _______ _______ _______ _____ _____    ______ ____
ROOT
ATOM      1  C   UNL A   1     -27.064  -0.119  28.608  0.00  0.00    +0.081 A 
ATOM      2  N   UNL A   1     -25.818  -0.343  29.049  0.00  0.00    -0.244 NA
ATOM      3  C   UNL A   1     -24.676   0.381  28.750  0.00  0.00    +0.099 A 
ATOM      4  C   UNL A   1     -24.761   1.310  27.716  0.00  0.00    +0.021 A 
ATOM      5  C   UNL A   1     -27.079   0.776  27.460  0.00  0.00    +0.019 A 
ATOM      6  C   UNL A   1     -25.958   1.551  27.114  0.00  0.00    +0.003 A 
ENDROOT
BRANCH   1   7
ATOM      7  C   UNL A   1     -28.016  -0.814  28.878  0.00  0.00    +0.015 C 
ATOM      8  C   UNL A   1     -27.985  -1.385  30.285  0.00  0.00    -0.024 C 
ATOM      9  C   UNL A   1     -26.715  -1.731  30.814  0.00  0.00    +0.031 C 
ENDBRANCH   1   7
TORSDOF 1
