MODEL 1835
MODEL 1
REMARK VINA RESULT:    -4.333      0.000      0.000
REMARK INTER + INTRA:          -4.333
REMARK INTER:                  -4.333
REMARK INTRA:                   0.000
REMARK UNBOUND:                 0.000
REMARK  Name = No_1835-gen_results/8p0m/2024-11-27-11-27-31/
REMARK  0 active torsions:
REMARK  status: ('A' for Active; 'I' for Inactive)
REMARK                            x       y       z     vdW  Elec       q    Type
REMARK                         _______ _______ _______ _____ _____    ______ ____
ROOT
ATOM      1  C   UNL A   1     -24.930  -5.363  28.992  0.00  0.00    +0.000 A 
ATOM      2  C   UNL A   1     -24.177  -4.692  28.685  0.00  0.00    +0.000 A 
ATOM      3  C   UNL A   1     -26.092  -4.701  29.596  0.00  0.00    +0.000 A 
ATOM      4  C   UNL A   1     -26.103  -3.401  29.891  0.00  0.00    +0.000 A 
ATOM      5  C   UNL A   1     -23.960  -3.284  28.907  0.00  0.00    +0.000 A 
ATOM      6  C   UNL A   1     -25.040  -2.691  29.492  0.00  0.00    +0.000 A 
ENDROOT
TORSDOF 0
ENDMDL
ENDMDL
