MODEL 1837
MODEL 1
REMARK VINA RESULT:    -4.913      0.000      0.000
REMARK INTER + INTRA:          -5.569
REMARK INTER:                  -5.488
REMARK INTRA:                  -0.081
REMARK UNBOUND:                -0.081
REMARK  Name = No_1837-gen_results/8p0m/2024-11-27-11-27-31/
REMARK  2 active torsions:
REMARK  status: ('A' for Active; 'I' for Inactive)
REMARK    1  A    between atoms: C_2  and  C_3
REMARK    2  A    between atoms: C_3  and  C_5
REMARK                            x       y       z     vdW  Elec       q    Type
REMARK                         _______ _______ _______ _____ _____    ______ ____
ROOT
ATOM      1  C   UNL A   1      -9.822  -9.486  18.150  0.00  0.00    +0.114 C 
ENDROOT
BRANCH   1   3
ATOM      2  O   UNL A   1     -11.308 -10.480  16.965  0.00  0.00    -0.271 OA
ATOM      3  C   UNL A   1     -10.303 -10.260  17.651  0.00  0.00    +0.265 C 
ATOM      4  N   UNL A   1      -9.308 -11.529  17.538  0.00  0.00    -0.087 NA
ENDBRANCH   1   3
BRANCH   1   5
ATOM      5  C   UNL A   1      -9.852  -9.349  19.587  0.00  0.00    -0.021 C 
ATOM      6  C   UNL A   1      -9.040  -9.172  20.246  0.00  0.00    -0.030 C 
ATOM      7  C   UNL A   1      -7.788  -8.748  19.805  0.00  0.00    +0.030 C 
ENDBRANCH   1   5
TORSDOF 2
ENDMDL
ENDMDL
