REMARK  Name = outputs/IAG933/test6/raw/output_1838_IAG933_linker_design_.xyz
REMARK  8 active torsions:
REMARK  status: ('A' for Active; 'I' for Inactive)
REMARK    1  A    between atoms: C_1  and  C_2
REMARK    2  A    between atoms: C_1  and  C_8
REMARK    3  A    between atoms: C_1  and  C_34
REMARK    4  A    between atoms: C_13  and  N_39
REMARK    5  A    between atoms: C_14  and  C_15
REMARK    6  A    between atoms: C_21  and  O_22
REMARK    7  A    between atoms: O_22  and  C_23
REMARK    8  A    between atoms: C_23  and  C_24
REMARK                            x       y       z     vdW  Elec       q    Type
REMARK                         _______ _______ _______ _____ _____    ______ ____
ROOT
ATOM      1  C   UNL A   1     -20.915   0.977  27.958  0.00  0.00    +0.369 C 
ATOM      2  O   UNL A   1     -27.705  -0.376  28.720  0.00  0.00    -0.230 OA
ATOM      3  C   UNL A   1     -22.564   1.812  26.510  0.00  0.00    +0.299 C 
ATOM      4  C   UNL A   1     -25.274   0.375  28.408  0.00  0.00    +0.113 C 
ATOM      5  O   UNL A   1     -21.260   1.639  26.860  0.00  0.00    -0.420 OA
ATOM      6  C   UNL A   1     -26.739  -0.039  28.572  0.00  0.00    +0.144 C 
ATOM      7  C   UNL A   1     -24.524  -0.065  29.053  0.00  0.00    +0.077 C 
ATOM      8  C   UNL A   1     -23.457   1.158  27.313  0.00  0.00    +0.117 C 
ATOM      9  C   UNL A   1     -21.823   0.210  28.724  0.00  0.00    +0.139 C 
ATOM     10  F   UNL A   1     -23.001   2.546  25.512  0.00  0.00    -0.162 F 
ATOM     11  C   UNL A   1     -23.220   0.400  28.429  0.00  0.00    +0.022 C 
ATOM     12  N   UNL A   1     -24.779   1.196  27.341  0.00  0.00    -0.257 N 
ATOM     13  F   UNL A   1     -19.636   1.050  28.337  0.00  0.00    -0.182 F 
ATOM     14  N   UNL A   1     -21.571  -0.709  29.713  0.00  0.00    -0.126 NA
ENDROOT
BRANCH  12  15
ATOM     15  C   UNL A   1     -25.688   1.614  26.461  0.00  0.00    +0.077 C 
ATOM     16  C   UNL A   1     -26.250   2.920  26.395  0.00  0.00    +0.070 C 
ATOM     17  C   UNL A   1     -27.438   3.091  25.645  0.00  0.00    +0.160 C 
ATOM     18  N   UNL A   1     -28.075   2.089  25.003  0.00  0.00    -0.234 NA
ATOM     19  C   UNL A   1     -27.543   0.849  25.079  0.00  0.00    +0.235 C 
ATOM     20  C   UNL A   1     -26.354   0.576  25.777  0.00  0.00    +0.271 C 
ATOM     21  F   UNL A   1     -25.860  -0.681  25.795  0.00  0.00    -0.221 F 
BRANCH  16  22
ATOM     22  C   UNL A   1     -25.642   4.093  27.123  0.00  0.00    +0.264 C 
ATOM     23  N   UNL A   1     -25.614   5.252  26.449  0.00  0.00    -0.200 NA
ATOM     24  C   UNL A   1     -25.026   6.479  26.963  0.00  0.00    +0.139 C 
ATOM     25  O   UNL A   1     -25.143   3.966  28.243  0.00  0.00    -0.269 OA
ENDBRANCH  16  22
BRANCH  19  26
ATOM     26  O   UNL A   1     -28.193  -0.208  24.477  0.00  0.00    -0.459 OA
BRANCH  26  27
ATOM     27  C   UNL A   1     -29.460   0.005  23.866  0.00  0.00    +0.242 C 
BRANCH  27  28
ATOM     28  C   UNL A   1     -30.065  -1.377  23.573  0.00  0.00    +0.229 C 
ATOM     29  O   UNL A   1     -30.729  -1.878  24.721  0.00  0.00    -0.216 OA
ENDBRANCH  27  28
ENDBRANCH  26  27
ENDBRANCH  19  26
ENDBRANCH  12  15
BRANCH   7  30
ATOM     30  C   UNL A   1     -24.855  -1.012  30.143  0.00  0.00    +0.049 C 
BRANCH  30  31
ATOM     31  C   UNL A   1     -24.973  -2.505  29.788  0.00  0.00    -0.020 C 
ATOM     32  C   UNL A   1     -23.906  -3.173  29.146  0.00  0.00    -0.004 C 
ATOM     33  C   UNL A   1     -23.989  -4.549  28.853  0.00  0.00    -0.000 C 
ATOM     34  C   UNL A   1     -25.137  -5.280  29.205  0.00  0.00    -0.000 C 
ATOM     35  C   UNL A   1     -26.232  -4.611  29.784  0.00  0.00    -0.000 C 
ATOM     36  C   UNL A   1     -26.155  -3.232  30.065  0.00  0.00    -0.004 C 
ENDBRANCH  30  31
BRANCH  30  37
ATOM     37  C   UNL A   1     -25.387  -0.679  31.571  0.00  0.00    +0.077 C 
ATOM     38  C   UNL A   1     -25.189   0.773  32.028  0.00  0.00    +0.019 C 
ATOM     39  C   UNL A   1     -25.336   0.684  33.544  0.00  0.00    +0.020 C 
ATOM     40  C   UNL A   1     -24.829  -0.715  33.905  0.00  0.00    +0.089 C 
ATOM     41  N   UNL A   1     -24.758  -1.481  32.646  0.00  0.00    -0.219 NA
ENDBRANCH  30  37
ENDBRANCH   7  30
TORSDOF 8
