MODEL 1838
MODEL 1
REMARK VINA RESULT:    -5.931      0.000      0.000
REMARK INTER + INTRA:          -6.323
REMARK INTER:                  -6.278
REMARK INTRA:                  -0.045
REMARK UNBOUND:                -0.045
REMARK  Name = No_1838-gen_results/8p0m/2024-11-27-11-27-31/
REMARK  1 active torsions:
REMARK  status: ('A' for Active; 'I' for Inactive)
REMARK    1  A    between atoms: C_10  and  C_11
REMARK                            x       y       z     vdW  Elec       q    Type
REMARK                         _______ _______ _______ _____ _____    ______ ____
ROOT
ATOM      1  C   UNL A   1     -26.090  -4.713  29.661  0.00  0.00    +0.000 A 
ATOM      2  C   UNL A   1     -25.340  -5.240  29.141  0.00  0.00    +0.000 A 
ATOM      3  C   UNL A   1     -25.923  -3.320  29.826  0.00  0.00    +0.000 A 
ATOM      4  C   UNL A   1     -26.933  -2.417  30.436  0.00  0.00    +0.000 A 
ATOM      5  C   UNL A   1     -24.078  -4.785  28.531  0.00  0.00    +0.000 A 
ATOM      6  C   UNL A   1     -23.844  -3.416  28.658  0.00  0.00    +0.000 A 
ATOM      7  C   UNL A   1     -24.777  -2.639  29.265  0.00  0.00    +0.006 A 
ATOM      8  C   UNL A   1     -26.523  -1.083  30.743  0.00  0.00    +0.000 A 
ATOM      9  C   UNL A   1     -25.389  -0.495  30.154  0.00  0.00    +0.007 A 
ATOM     10  C   UNL A   1     -24.455  -1.280  29.519  0.00  0.00    +0.080 A 
ENDROOT
BRANCH  10  11
ATOM     11  C   UNL A   1     -23.227  -0.601  29.025  0.00  0.00    +0.388 C 
ATOM     12  O   UNL A   1     -23.380  -0.016  27.972  0.00  0.00    -0.241 OA
ATOM     13  O   UNL A   1     -22.142  -0.697  29.644  0.00  0.00    -0.241 OA
ENDBRANCH  10  11
TORSDOF 1
ENDMDL
ENDMDL
