MODEL 1839
MODEL 1
REMARK VINA RESULT:    -4.905      0.000      0.000
REMARK INTER + INTRA:          -5.265
REMARK INTER:                  -5.192
REMARK INTRA:                  -0.073
REMARK UNBOUND:                -0.073
REMARK  Name = No_1839-gen_results/8p0m/2024-11-27-11-27-31/
REMARK  1 active torsions:
REMARK  status: ('A' for Active; 'I' for Inactive)
REMARK    1  A    between atoms: C_2  and  C_7
REMARK                            x       y       z     vdW  Elec       q    Type
REMARK                         _______ _______ _______ _____ _____    ______ ____
ROOT
ATOM      1  C   UNL A   1     -23.936  -3.488  28.565  0.00  0.00    -0.000 A 
ATOM      2  C   UNL A   1     -24.723  -2.637  28.909  0.00  0.00    -0.000 A 
ATOM      3  C   UNL A   1     -25.928  -2.975  29.514  0.00  0.00    -0.000 A 
ATOM      4  C   UNL A   1     -26.298  -4.354  29.709  0.00  0.00    -0.000 A 
ATOM      5  C   UNL A   1     -25.341  -5.273  29.260  0.00  0.00    -0.000 A 
ATOM      6  C   UNL A   1     -24.223  -4.901  28.678  0.00  0.00    -0.000 A 
ENDROOT
BRANCH   2   7
ATOM      7  C   UNL A   1     -24.519  -1.170  28.762  0.00  0.00    -0.005 C 
ATOM      8  C   UNL A   1     -23.638  -0.511  29.428  0.00  0.00    -0.026 C 
ATOM      9  C   UNL A   1     -23.270  -1.026  30.814  0.00  0.00    +0.031 C 
ENDBRANCH   2   7
TORSDOF 1
ENDMDL
ENDMDL
