MODEL 183
MODEL 1
REMARK VINA RESULT:    -7.762      0.000      0.000
REMARK INTER + INTRA:         -13.580
REMARK INTER:                 -10.485
REMARK INTRA:                  -3.095
REMARK UNBOUND:                -3.095
REMARK  Name = No_183-gen_results/8p0m/2024-11-27-11-27-31/
REMARK  6 active torsions:
REMARK  status: ('A' for Active; 'I' for Inactive)
REMARK    1  A    between atoms: C_10  and  C_11
REMARK    2  A    between atoms: C_13  and  N_23
REMARK    3  A    between atoms: C_14  and  C_17
REMARK    4  A    between atoms: N_23  and  C_24
REMARK    5  A    between atoms: C_24  and  C_31
REMARK    6  A    between atoms: C_32  and  C_33
REMARK                            x       y       z     vdW  Elec       q    Type
REMARK                         _______ _______ _______ _____ _____    ______ ____
ROOT
ATOM      1  C   UNL A   1      -7.660   0.339  35.241  0.00  0.00    +0.083 A 
ATOM      2  N   UNL A   1      -8.220   0.341  36.453  0.00  0.00    -0.229 NA
ATOM      3  C   UNL A   1      -9.341   0.896  36.717  0.00  0.00    +0.148 A 
ATOM      4  C   UNL A   1      -9.935   1.766  35.709  0.00  0.00    +0.033 A 
ATOM      5  C   UNL A   1      -8.267   1.152  34.180  0.00  0.00    +0.019 A 
ATOM      6  C   UNL A   1      -9.437   1.867  34.438  0.00  0.00    +0.004 A 
ENDROOT
BRANCH   1  16
ATOM      7  C   UNL A   1      -2.628  -0.186  34.877  0.00  0.00    +0.000 A 
ATOM      8  C   UNL A   1      -2.623   0.825  35.175  0.00  0.00    +0.000 A 
ATOM      9  C   UNL A   1      -3.970  -0.744  34.717  0.00  0.00    +0.000 A 
ATOM     10  C   UNL A   1      -4.238  -2.107  34.207  0.00  0.00    +0.000 A 
ATOM     11  C   UNL A   1      -3.649   1.816  35.470  0.00  0.00    +0.000 A 
ATOM     12  C   UNL A   1      -4.931   1.323  35.343  0.00  0.00    +0.000 A 
ATOM     13  C   UNL A   1      -5.122   0.061  34.918  0.00  0.00    +0.001 A 
ATOM     14  C   UNL A   1      -5.551  -2.581  34.393  0.00  0.00    +0.000 A 
ATOM     15  C   UNL A   1      -6.640  -1.766  34.560  0.00  0.00    +0.002 A 
ATOM     16  C   UNL A   1      -6.434  -0.464  34.970  0.00  0.00    +0.018 A 
ENDBRANCH   1  16
BRANCH   4  17
ATOM     17  C   UNL A   1     -11.249   2.477  36.055  0.00  0.00    +0.003 A 
ATOM     18  C   UNL A   1     -12.284   1.936  35.535  0.00  0.00    +0.000 A 
ATOM     19  C   UNL A   1     -13.609   2.545  35.800  0.00  0.00    +0.000 A 
ATOM     20  C   UNL A   1     -13.629   3.721  36.564  0.00  0.00    +0.000 A 
ATOM     21  C   UNL A   1     -11.300   3.616  36.827  0.00  0.00    +0.000 A 
ATOM     22  C   UNL A   1     -12.484   4.229  37.117  0.00  0.00    +0.000 A 
ENDBRANCH   4  17
BRANCH   3  23
ATOM     23  N   UNL A   1      -9.912   0.835  37.924  0.00  0.00    -0.220 NA
BRANCH  23  24
ATOM     24  C   UNL A   1     -10.756  -0.063  38.340  0.00  0.00    +0.096 C 
ATOM     25  C   UNL A   1     -11.114  -1.105  37.531  0.00  0.00    +0.024 C 
ATOM     26  C   UNL A   1     -10.272  -0.767  39.543  0.00  0.00    +0.024 C 
ATOM     27  C   UNL A   1     -11.957  -2.100  37.887  0.00  0.00    +0.002 C 
ATOM     28  C   UNL A   1     -11.037  -1.777  40.180  0.00  0.00    +0.002 C 
ATOM     29  C   UNL A   1     -10.574  -2.226  41.454  0.00  0.00    +0.000 C 
ATOM     30  C   UNL A   1     -11.685  -2.629  39.283  0.00  0.00    +0.000 C 
BRANCH  24  31
ATOM     31  C   UNL A   1     -12.063   0.630  38.803  0.00  0.00    -0.007 C 
ATOM     32  C   UNL A   1     -11.970   1.607  39.793  0.00  0.00    -0.003 C 
BRANCH  32  33
ATOM     33  C   UNL A   1     -13.225   2.026  40.358  0.00  0.00    -0.005 C 
ATOM     34  C   UNL A   1     -13.639   1.428  41.475  0.00  0.00    -0.026 C 
ATOM     35  C   UNL A   1     -12.796   0.701  42.336  0.00  0.00    +0.031 C 
ENDBRANCH  32  33
ENDBRANCH  24  31
ENDBRANCH  23  24
ENDBRANCH   3  23
TORSDOF 6
ENDMDL
ENDMDL
