MODEL 1840
MODEL 1
REMARK VINA RESULT:    -6.453      0.000      0.000
REMARK INTER + INTRA:          -7.557
REMARK INTER:                  -7.208
REMARK INTRA:                  -0.349
REMARK UNBOUND:                -0.349
REMARK  Name = No_1840-gen_results/8p0m/2024-11-27-11-27-31/
REMARK  2 active torsions:
REMARK  status: ('A' for Active; 'I' for Inactive)
REMARK    1  A    between atoms: C_3  and  C_4
REMARK    2  A    between atoms: C_10  and  C_13
REMARK                            x       y       z     vdW  Elec       q    Type
REMARK                         _______ _______ _______ _____ _____    ______ ____
ROOT
ATOM      1  C   UNL A   1     -23.914   0.887  26.666  0.00  0.00    +0.021 A 
ATOM      2  C   UNL A   1     -23.842  -0.067  27.727  0.00  0.00    +0.115 A 
ATOM      3  C   UNL A   1     -22.698  -0.107  28.524  0.00  0.00    +0.157 A 
ATOM      4  C   UNL A   1     -21.724   0.908  28.342  0.00  0.00    +0.038 A 
ATOM      5  C   UNL A   1     -21.800   1.832  27.343  0.00  0.00    +0.003 A 
ATOM      6  C   UNL A   1     -22.954   1.863  26.503  0.00  0.00    +0.002 A 
ATOM      7  O   UNL A   1     -22.580  -0.967  29.519  0.00  0.00    -0.467 OA
ATOM      8  C   UNL A   1     -23.902  -1.541  29.811  0.00  0.00    +0.252 C 
ATOM      9  N   UNL A   1     -24.756  -0.855  28.086  0.00  0.00    -0.242 NA
ATOM     10  C   UNL A   1     -24.794  -1.725  29.065  0.00  0.00    +0.120 C 
ENDROOT
BRANCH   1  13
ATOM     11  C   UNL A   1     -26.647   0.022  24.367  0.00  0.00    +0.007 A 
ATOM     12  C   UNL A   1     -25.603  -0.056  24.972  0.00  0.00    +0.000 A 
ATOM     13  C   UNL A   1     -25.172   0.896  25.895  0.00  0.00    +0.002 A 
ATOM     14  C   UNL A   1     -27.448   1.247  24.416  0.00  0.00    +0.080 A 
ATOM     15  C   UNL A   1     -27.197   2.218  25.370  0.00  0.00    +0.007 A 
ATOM     16  C   UNL A   1     -26.002   2.096  26.118  0.00  0.00    +0.000 A 
BRANCH  14  17
ATOM     17  C   UNL A   1     -28.701   1.382  23.641  0.00  0.00    +0.388 C 
ATOM     18  O   UNL A   1     -29.228   0.296  23.220  0.00  0.00    -0.241 OA
ATOM     19  O   UNL A   1     -29.218   2.441  23.333  0.00  0.00    -0.241 OA
ENDBRANCH  14  17
ENDBRANCH   1  13
TORSDOF 2
ENDMDL
ENDMDL
