REMARK  Name = No_1841-gen_results/8p0m/2024-11-27-11-27-31/
REMARK  10 active torsions:
REMARK  status: ('A' for Active; 'I' for Inactive)
REMARK    1  A    between atoms: C_1  and  C_19
REMARK    2  A    between atoms: C_3  and  C_10
REMARK    3  A    between atoms: C_5  and  N_7
REMARK    4  A    between atoms: C_12  and  C_16
REMARK    5  A    between atoms: C_19  and  O_21
REMARK    6  A    between atoms: O_21  and  C_26
REMARK    7  A    between atoms: C_22  and  C_27
REMARK    8  A    between atoms: C_26  and  C_30
REMARK    9  A    between atoms: C_26  and  C_33
REMARK   10  A    between atoms: C_31  and  C_32
REMARK                            x       y       z     vdW  Elec       q    Type
REMARK                         _______ _______ _______ _____ _____    ______ ____
ROOT
ATOM      1  C   UNL A   1     -28.016  -0.814  28.878  0.00  0.00    +0.077 A 
ATOM      2  C   UNL A   1     -27.064  -0.119  28.608  0.00  0.00    +0.006 A 
ATOM      3  C   UNL A   1     -26.972   0.714  27.506  0.00  0.00    +0.001 A 
ATOM      4  C   UNL A   1     -28.105   0.774  26.642  0.00  0.00    +0.015 A 
ATOM      5  C   UNL A   1     -29.201   0.104  27.053  0.00  0.00    +0.056 A 
ATOM      6  C   UNL A   1     -29.210  -0.603  28.185  0.00  0.00    +0.021 A 
ENDROOT
BRANCH   5   7
ATOM      7  N   UNL A   1     -30.420   0.129  26.392  0.00  0.00    -0.241 N 
ATOM      8  C   UNL A   1     -30.499  -0.004  25.163  0.00  0.00    +0.327 C 
ATOM      9  C   UNL A   1     -31.661   0.254  27.077  0.00  0.00    +0.113 C 
ATOM     10  C   UNL A   1     -32.705  -0.021  26.477  0.00  0.00    +0.145 C 
ATOM     11  N   UNL A   1     -31.579  -0.329  24.407  0.00  0.00    -0.188 NA
ATOM     12  C   UNL A   1     -32.764  -0.205  25.053  0.00  0.00    +0.130 C 
ATOM     13  O   UNL A   1     -29.374  -0.058  24.437  0.00  0.00    -0.250 OA
BRANCH  10  14
ATOM     14  C   UNL A   1     -34.077   0.043  27.126  0.00  0.00    +0.368 C 
ATOM     15  O   UNL A   1     -34.614  -0.849  27.470  0.00  0.00    -0.245 OA
ATOM     16  O   UNL A   1     -34.512   1.267  27.390  0.00  0.00    -0.245 OA
ENDBRANCH  10  14
ENDBRANCH   5   7
BRANCH   3  17
ATOM     17  C   UNL A   1     -25.669   1.370  27.080  0.00  0.00    +0.000 A 
ATOM     18  C   UNL A   1     -24.570   1.047  27.814  0.00  0.00    +0.005 A 
ATOM     19  C   UNL A   1     -23.350   1.816  27.610  0.00  0.00    +0.057 A 
ATOM     20  C   UNL A   1     -23.250   2.594  26.451  0.00  0.00    +0.005 A 
ATOM     21  C   UNL A   1     -25.542   2.277  26.060  0.00  0.00    +0.000 A 
ATOM     22  C   UNL A   1     -24.358   2.982  25.786  0.00  0.00    +0.000 A 
BRANCH  19  23
ATOM     23  C   UNL A   1     -22.089   1.472  28.316  0.00  0.00    +0.284 C 
ATOM     24  N   UNL A   1     -20.953   1.550  27.713  0.00  0.00    -0.084 NA
ATOM     25  O   UNL A   1     -22.262   1.027  29.521  0.00  0.00    -0.267 OA
ENDBRANCH  19  23
ENDBRANCH   3  17
BRANCH   1  26
ATOM     26  C   UNL A   1     -28.018  -1.650  30.137  0.00  0.00    +0.342 C 
ATOM     27  O   UNL A   1     -28.693  -1.611  30.963  0.00  0.00    -0.245 OA
BRANCH  26  28
ATOM     28  O   UNL A   1     -26.835  -2.344  30.204  0.00  0.00    -0.436 OA
BRANCH  28  29
ATOM     29  C   UNL A   1     -26.910  -3.733  29.916  0.00  0.00    +0.255 C 
BRANCH  29  30
ATOM     30  C   UNL A   1     -25.712  -4.344  29.390  0.00  0.00    +0.025 C 
ATOM     31  C   UNL A   1     -24.693  -3.499  29.029  0.00  0.00    -0.001 C 
BRANCH  31  32
ATOM     32  C   UNL A   1     -24.600  -2.090  29.313  0.00  0.00    -0.000 C 
ATOM     33  C   UNL A   1     -23.223  -1.522  28.992  0.00  0.00    -0.000 C 
ENDBRANCH  31  32
ENDBRANCH  29  30
BRANCH  29  34
ATOM     34  C   UNL A   1     -28.042  -4.466  30.287  0.00  0.00    +0.255 C 
ATOM     35  O   UNL A   1     -28.918  -3.930  30.636  0.00  0.00    -0.284 OA
ENDBRANCH  29  34
ENDBRANCH  28  29
ENDBRANCH  26  28
ENDBRANCH   1  26
TORSDOF 10
