MODEL 1841
MODEL 1
REMARK VINA RESULT:    -6.816      0.000      0.000
REMARK INTER + INTRA:         -13.079
REMARK INTER:                 -10.800
REMARK INTRA:                  -2.279
REMARK UNBOUND:                -2.279
REMARK  Name = No_1841-gen_results/8p0m/2024-11-27-11-27-31/
REMARK  10 active torsions:
REMARK  status: ('A' for Active; 'I' for Inactive)
REMARK    1  A    between atoms: C_1  and  C_19
REMARK    2  A    between atoms: C_3  and  C_10
REMARK    3  A    between atoms: C_5  and  N_7
REMARK    4  A    between atoms: C_12  and  C_16
REMARK    5  A    between atoms: C_19  and  O_21
REMARK    6  A    between atoms: O_21  and  C_26
REMARK    7  A    between atoms: C_22  and  C_27
REMARK    8  A    between atoms: C_26  and  C_30
REMARK    9  A    between atoms: C_26  and  C_33
REMARK   10  A    between atoms: C_31  and  C_32
REMARK                            x       y       z     vdW  Elec       q    Type
REMARK                         _______ _______ _______ _____ _____    ______ ____
ROOT
ATOM      1  C   UNL A   1     -31.143 -11.689  11.546  0.00  0.00    +0.077 A 
ATOM      2  C   UNL A   1     -32.102 -12.237  11.052  0.00  0.00    +0.006 A 
ATOM      3  C   UNL A   1     -32.990 -11.647  10.169  0.00  0.00    +0.001 A 
ATOM      4  C   UNL A   1     -32.731 -10.296   9.795  0.00  0.00    +0.015 A 
ATOM      5  C   UNL A   1     -31.575  -9.766  10.245  0.00  0.00    +0.056 A 
ATOM      6  C   UNL A   1     -30.742 -10.457  11.026  0.00  0.00    +0.021 A 
ENDROOT
BRANCH   5   7
ATOM      7  N   UNL A   1     -31.114  -8.503   9.903  0.00  0.00    -0.241 N 
ATOM      8  C   UNL A   1     -31.542  -7.481  10.455  0.00  0.00    +0.327 C 
ATOM      9  C   UNL A   1     -30.086  -8.298   8.940  0.00  0.00    +0.113 C 
ATOM     10  C   UNL A   1     -29.523  -7.199   8.893  0.00  0.00    +0.145 C 
ATOM     11  N   UNL A   1     -30.995  -6.238  10.492  0.00  0.00    -0.188 NA
ATOM     12  C   UNL A   1     -30.021  -6.035   9.572  0.00  0.00    +0.130 C 
ATOM     13  O   UNL A   1     -32.558  -7.581  11.323  0.00  0.00    -0.250 OA
BRANCH  10  14
ATOM     14  C   UNL A   1     -28.391  -6.888   7.930  0.00  0.00    +0.368 C 
ATOM     15  O   UNL A   1     -27.912  -5.903   7.874  0.00  0.00    -0.245 OA
ATOM     16  O   UNL A   1     -27.916  -7.935   7.270  0.00  0.00    -0.245 OA
ENDBRANCH  10  14
ENDBRANCH   5   7
BRANCH   3  17
ATOM     17  C   UNL A   1     -34.307 -12.294   9.776  0.00  0.00    +0.000 A 
ATOM     18  C   UNL A   1     -34.690 -13.368  10.518  0.00  0.00    +0.005 A 
ATOM     19  C   UNL A   1     -35.810 -14.172  10.048  0.00  0.00    +0.057 A 
ATOM     20  C   UNL A   1     -36.653 -13.619   9.076  0.00  0.00    +0.005 A 
ATOM     21  C   UNL A   1     -35.091 -11.904   8.721  0.00  0.00    +0.000 A 
ATOM     22  C   UNL A   1     -36.223 -12.613   8.286  0.00  0.00    +0.000 A 
BRANCH  19  23
ATOM     23  C   UNL A   1     -36.336 -15.311  10.843  0.00  0.00    +0.284 C 
ATOM     24  N   UNL A   1     -37.583 -15.374  11.161  0.00  0.00    -0.084 NA
ATOM     25  O   UNL A   1     -35.426 -16.148  11.232  0.00  0.00    -0.267 OA
ENDBRANCH  19  23
ENDBRANCH   3  17
BRANCH   1  26
ATOM     26  C   UNL A   1     -30.217 -12.453  12.464  0.00  0.00    +0.342 C 
ATOM     27  O   UNL A   1     -29.228 -12.200  12.775  0.00  0.00    -0.245 OA
BRANCH  26  28
ATOM     28  O   UNL A   1     -30.741 -13.705  12.673  0.00  0.00    -0.436 OA
BRANCH  28  29
ATOM     29  C   UNL A   1     -29.906 -14.797  12.319  0.00  0.00    +0.255 C 
BRANCH  29  30
ATOM     30  C   UNL A   1     -29.441 -14.831  10.952  0.00  0.00    +0.025 C 
ATOM     31  C   UNL A   1     -30.318 -15.309  10.011  0.00  0.00    -0.001 C 
BRANCH  31  32
ATOM     32  C   UNL A   1     -31.721 -15.580  10.199  0.00  0.00    -0.000 C 
ATOM     33  C   UNL A   1     -32.506 -15.510   8.895  0.00  0.00    -0.000 C 
ENDBRANCH  31  32
ENDBRANCH  29  30
BRANCH  29  34
ATOM     34  C   UNL A   1     -29.448 -15.679  13.303  0.00  0.00    +0.255 C 
ATOM     35  O   UNL A   1     -28.403 -15.971  13.296  0.00  0.00    -0.284 OA
ENDBRANCH  29  34
ENDBRANCH  28  29
ENDBRANCH  26  28
ENDBRANCH   1  26
TORSDOF 10
ENDMDL
ENDMDL
