REMARK  Name = No_1842-gen_results/8p0m/2024-11-27-11-27-31/
REMARK  4 active torsions:
REMARK  status: ('A' for Active; 'I' for Inactive)
REMARK    1  A    between atoms: C_5  and  C_15
REMARK    2  A    between atoms: C_9  and  N_18
REMARK    3  A    between atoms: N_18  and  C_19
REMARK    4  A    between atoms: C_19  and  C_20
REMARK                            x       y       z     vdW  Elec       q    Type
REMARK                         _______ _______ _______ _____ _____    ______ ____
ROOT
ATOM      1  N   UNL A   1     -28.054  -1.050  28.725  0.00  0.00    -0.239 NA
ATOM      2  C   UNL A   1     -27.746  -0.073  29.010  0.00  0.00    +0.099 A 
ATOM      3  C   UNL A   1     -27.556   0.337  30.339  0.00  0.00    +0.101 A 
ATOM      4  C   UNL A   1     -27.071   1.671  30.790  0.00  0.00    +0.027 A 
ATOM      5  C   UNL A   1     -26.654   2.522  29.736  0.00  0.00    +0.081 A 
ATOM      6  C   UNL A   1     -26.730   2.060  28.408  0.00  0.00    +0.008 A 
ATOM      7  C   UNL A   1     -27.189   0.815  28.052  0.00  0.00    +0.019 A 
ATOM      8  C   UNL A   1     -29.084  -1.548  29.480  0.00  0.00    +0.135 A 
ATOM      9  C   UNL A   1     -28.885  -1.639  30.911  0.00  0.00    +0.167 A 
ATOM     10  N   UNL A   1     -27.933  -1.011  31.449  0.00  0.00    -0.226 NA
ATOM     11  C   UNL A   1     -27.188   0.548  26.628  0.00  0.00    +0.002 A 
ATOM     12  C   UNL A   1     -26.427   1.256  25.732  0.00  0.00    +0.000 A 
ATOM     13  C   UNL A   1     -25.953   2.530  26.140  0.00  0.00    +0.000 A 
ATOM     14  C   UNL A   1     -26.040   2.968  27.465  0.00  0.00    +0.000 A 
ENDROOT
BRANCH   5  15
ATOM     15  C   UNL A   1     -26.067   3.790  30.122  0.00  0.00    +0.388 C 
ATOM     16  O   UNL A   1     -25.149   3.886  30.844  0.00  0.00    -0.241 OA
ATOM     17  O   UNL A   1     -26.821   4.863  29.874  0.00  0.00    -0.241 OA
ENDBRANCH   5  15
BRANCH   9  18
ATOM     18  N   UNL A   1     -29.333  -2.661  31.662  0.00  0.00    -0.214 NA
BRANCH  18  19
ATOM     19  C   UNL A   1     -30.077  -3.637  31.203  0.00  0.00    +0.140 C 
BRANCH  19  20
ATOM     20  C   UNL A   1     -30.436  -3.686  30.046  0.00  0.00    -0.007 C 
ATOM     21  C   UNL A   1     -31.232  -4.844  29.544  0.00  0.00    -0.029 C 
ATOM     22  C   UNL A   1     -31.598  -4.819  28.171  0.00  0.00    +0.030 C 
ENDBRANCH  19  20
ENDBRANCH  18  19
ENDBRANCH   9  18
TORSDOF 4
