MODEL 1842
MODEL 1
REMARK VINA RESULT:    -6.802      0.000      0.000
REMARK INTER + INTRA:          -8.717
REMARK INTER:                  -8.393
REMARK INTRA:                  -0.324
REMARK UNBOUND:                -0.324
REMARK  Name = No_1842-gen_results/8p0m/2024-11-27-11-27-31/
REMARK  4 active torsions:
REMARK  status: ('A' for Active; 'I' for Inactive)
REMARK    1  A    between atoms: C_5  and  C_15
REMARK    2  A    between atoms: C_9  and  N_18
REMARK    3  A    between atoms: N_18  and  C_19
REMARK    4  A    between atoms: C_19  and  C_20
REMARK                            x       y       z     vdW  Elec       q    Type
REMARK                         _______ _______ _______ _____ _____    ______ ____
ROOT
ATOM      1  N   UNL A   1      -6.571   0.234  10.284  0.00  0.00    -0.239 NA
ATOM      2  C   UNL A   1      -7.355   0.861   9.933  0.00  0.00    +0.099 A 
ATOM      3  C   UNL A   1      -7.698   1.012   8.580  0.00  0.00    +0.101 A 
ATOM      4  C   UNL A   1      -8.820   1.829   8.041  0.00  0.00    +0.027 A 
ATOM      5  C   UNL A   1      -9.668   2.377   9.035  0.00  0.00    +0.081 A 
ATOM      6  C   UNL A   1      -9.392   2.120  10.392  0.00  0.00    +0.008 A 
ATOM      7  C   UNL A   1      -8.337   1.357  10.831  0.00  0.00    +0.019 A 
ATOM      8  C   UNL A   1      -5.414   0.335   9.556  0.00  0.00    +0.135 A 
ATOM      9  C   UNL A   1      -5.486   0.058   8.137  0.00  0.00    +0.167 A 
ATOM     10  N   UNL A   1      -6.610   0.024   7.565  0.00  0.00    -0.226 NA
ATOM     11  C   UNL A   1      -8.235   1.226  12.270  0.00  0.00    +0.002 A 
ATOM     12  C   UNL A   1      -9.287   1.456  13.121  0.00  0.00    +0.000 A 
ATOM     13  C   UNL A   1     -10.369   2.232  12.629  0.00  0.00    +0.000 A 
ATOM     14  C   UNL A   1     -10.495   2.559  11.275  0.00  0.00    +0.000 A 
ENDROOT
BRANCH   5  15
ATOM     15  C   UNL A   1     -10.841   3.087   8.566  0.00  0.00    +0.388 C 
ATOM     16  O   UNL A   1     -11.816   2.553   8.195  0.00  0.00    -0.241 OA
ATOM     17  O   UNL A   1     -10.646   4.374   8.270  0.00  0.00    -0.241 OA
ENDBRANCH   5  15
BRANCH   9  18
ATOM     18  N   UNL A   1      -4.529  -0.597   7.456  0.00  0.00    -0.214 NA
BRANCH  18  19
ATOM     19  C   UNL A   1      -4.303  -1.883   7.562  0.00  0.00    +0.140 C 
BRANCH  19  20
ATOM     20  C   UNL A   1      -3.181  -2.342   7.583  0.00  0.00    -0.007 C 
ATOM     21  C   UNL A   1      -2.432  -2.464   8.867  0.00  0.00    -0.029 C 
ATOM     22  C   UNL A   1      -1.119  -3.003   8.791  0.00  0.00    +0.030 C 
ENDBRANCH  19  20
ENDBRANCH  18  19
ENDBRANCH   9  18
TORSDOF 4
ENDMDL
ENDMDL
