MODEL 1843
MODEL 1
REMARK VINA RESULT:    -5.115      0.000      0.000
REMARK INTER + INTRA:          -5.884
REMARK INTER:                  -5.713
REMARK INTRA:                  -0.171
REMARK UNBOUND:                -0.171
REMARK  Name = No_1843-gen_results/8p0m/2024-11-27-11-27-31/
REMARK  2 active torsions:
REMARK  status: ('A' for Active; 'I' for Inactive)
REMARK    1  A    between atoms: C_3  and  C_7
REMARK    2  A    between atoms: C_7  and  N_8
REMARK                            x       y       z     vdW  Elec       q    Type
REMARK                         _______ _______ _______ _____ _____    ______ ____
ROOT
ATOM      1  C   UNL A   1     -23.872  -3.610  28.706  0.00  0.00    -0.002 A 
ATOM      2  C   UNL A   1     -24.153  -4.624  28.650  0.00  0.00    -0.000 A 
ATOM      3  C   UNL A   1     -24.757  -2.715  29.345  0.00  0.00    +0.002 A 
ATOM      4  C   UNL A   1     -25.963  -3.132  29.873  0.00  0.00    -0.002 A 
ATOM      5  C   UNL A   1     -25.363  -5.321  29.128  0.00  0.00    -0.000 A 
ATOM      6  C   UNL A   1     -26.239  -4.499  29.746  0.00  0.00    -0.000 A 
ENDROOT
BRANCH   3   7
ATOM      7  C   UNL A   1     -24.456  -1.255  29.536  0.00  0.00    +0.151 C 
BRANCH   7   8
ATOM      8  N   UNL A   1     -23.376  -0.753  28.939  0.00  0.00    -0.269 NA
ATOM      9  C   UNL A   1     -22.398  -0.301  29.523  0.00  0.00    +0.068 C 
ATOM     10  C   UNL A   1     -21.133  -0.161  28.690  0.00  0.00    +0.053 C 
ENDBRANCH   7   8
ENDBRANCH   3   7
TORSDOF 2
ENDMDL
ENDMDL
