REMARK  Name = outputs/IAG933/test6/raw/output_1844_IAG933_linker_design_.xyz
REMARK  17 active torsions:
REMARK  status: ('A' for Active; 'I' for Inactive)
REMARK    1  A    between atoms: C_1  and  C_2
REMARK    2  A    between atoms: C_1  and  C_8
REMARK    3  A    between atoms: C_1  and  C_30
REMARK    4  A    between atoms: C_13  and  C_34
REMARK    5  A    between atoms: C_14  and  C_15
REMARK    6  A    between atoms: C_21  and  O_22
REMARK    7  A    between atoms: O_22  and  C_23
REMARK    8  A    between atoms: C_23  and  C_24
REMARK    9  A    between atoms: C_29  and  C_40
REMARK   10  A    between atoms: C_30  and  N_39
REMARK   11  A    between atoms: O_31  and  C_40
REMARK   12  A    between atoms: C_32  and  C_33
REMARK   13  A    between atoms: C_32  and  C_42
REMARK   14  A    between atoms: C_34  and  C_37
REMARK   15  A    between atoms: C_34  and  N_39
REMARK   16  A    between atoms: C_37  and  O_38
REMARK   17  A    between atoms: C_37  and  C_42
REMARK                            x       y       z     vdW  Elec       q    Type
REMARK                         _______ _______ _______ _____ _____    ______ ____
ROOT
ATOM      1  C   UNL A   1     -24.568   1.173  27.147  0.00  0.00    +0.125 C 
ENDROOT
BRANCH   1   2
ATOM      2  C   UNL A   1     -25.688   1.614  26.461  0.00  0.00    +0.034 C 
ATOM      3  C   UNL A   1     -26.250   2.920  26.395  0.00  0.00    +0.074 C 
ATOM      4  C   UNL A   1     -27.438   3.091  25.645  0.00  0.00    +0.106 C 
ATOM      5  N   UNL A   1     -28.075   2.089  25.003  0.00  0.00    -0.208 NA
ATOM      6  C   UNL A   1     -27.543   0.849  25.079  0.00  0.00    +0.253 C 
ATOM      7  C   UNL A   1     -26.354   0.576  25.777  0.00  0.00    +0.191 C 
ATOM      8  F   UNL A   1     -25.860  -0.681  25.795  0.00  0.00    -0.200 F 
BRANCH   3   9
ATOM      9  C   UNL A   1     -25.642   4.093  27.123  0.00  0.00    +0.266 C 
ATOM     10  N   UNL A   1     -25.614   5.252  26.449  0.00  0.00    -0.200 NA
ATOM     11  C   UNL A   1     -25.026   6.479  26.963  0.00  0.00    +0.139 C 
ATOM     12  O   UNL A   1     -25.143   3.966  28.243  0.00  0.00    -0.268 OA
ENDBRANCH   3   9
BRANCH   6  13
ATOM     13  O   UNL A   1     -28.193  -0.208  24.477  0.00  0.00    -0.456 OA
BRANCH  13  14
ATOM     14  C   UNL A   1     -29.460   0.005  23.866  0.00  0.00    +0.243 C 
BRANCH  14  15
ATOM     15  C   UNL A   1     -30.065  -1.377  23.573  0.00  0.00    +0.229 C 
ATOM     16  O   UNL A   1     -30.729  -1.878  24.721  0.00  0.00    -0.216 OA
ENDBRANCH  14  15
ENDBRANCH  13  14
ENDBRANCH   6  13
ENDBRANCH   1   2
BRANCH   1  17
ATOM     17  C   UNL A   1     -23.287   1.798  26.753  0.00  0.00    +0.139 C 
BRANCH  17  18
ATOM     18  O   UNL A   1     -23.426   2.740  25.695  0.00  0.00    -0.352 OA
ATOM     19  C   UNL A   1     -22.450   2.312  24.813  0.00  0.00    +0.174 C 
ENDBRANCH  17  18
BRANCH  17  20
ATOM     20  C   UNL A   1     -22.081   1.786  27.457  0.00  0.00    +0.078 C 
BRANCH  20  22
ATOM     21  O   UNL A   1     -22.133  -0.283  28.294  0.00  0.00    -0.209 OA
ATOM     22  C   UNL A   1     -22.313   1.081  28.683  0.00  0.00    +0.218 C 
BRANCH  22  24
ATOM     23  C   UNL A   1     -24.182   2.575  30.488  0.00  0.00    +0.019 C 
ATOM     24  C   UNL A   1     -23.334   1.768  29.568  0.00  0.00    -0.048 C 
BRANCH  23  26
ATOM     25  O   UNL A   1     -26.241   3.209  31.136  0.00  0.00    -0.235 OA
ATOM     26  C   UNL A   1     -25.106   3.284  31.358  0.00  0.00    +0.386 C 
BRANCH  26  27
ATOM     27  O   UNL A   1     -24.601   3.984  32.473  0.00  0.00    -0.435 OA
ATOM     28  C   UNL A   1     -25.483   4.325  33.607  0.00  0.00    +0.257 C 
ENDBRANCH  26  27
ENDBRANCH  23  26
ENDBRANCH  22  24
ENDBRANCH  20  22
ENDBRANCH  17  20
ENDBRANCH   1  17
BRANCH   1  29
ATOM     29  N   UNL A   1     -24.707   0.138  28.030  0.00  0.00    -0.212 NA
BRANCH  29  30
ATOM     30  C   UNL A   1     -25.679  -0.297  29.062  0.00  0.00    +0.095 C 
BRANCH  30  31
ATOM     31  C   UNL A   1     -24.855  -1.012  30.143  0.00  0.00    +0.056 C 
BRANCH  31  32
ATOM     32  C   UNL A   1     -24.973  -2.505  29.788  0.00  0.00    -0.020 C 
ATOM     33  C   UNL A   1     -23.906  -3.173  29.146  0.00  0.00    -0.004 C 
ATOM     34  C   UNL A   1     -23.989  -4.549  28.853  0.00  0.00    -0.000 C 
ATOM     35  C   UNL A   1     -25.137  -5.280  29.205  0.00  0.00    -0.000 C 
ATOM     36  C   UNL A   1     -26.232  -4.611  29.784  0.00  0.00    -0.000 C 
ATOM     37  C   UNL A   1     -26.155  -3.232  30.065  0.00  0.00    -0.004 C 
ENDBRANCH  31  32
BRANCH  31  38
ATOM     38  C   UNL A   1     -25.387  -0.679  31.571  0.00  0.00    +0.078 C 
ATOM     39  C   UNL A   1     -25.189   0.773  32.028  0.00  0.00    +0.019 C 
ATOM     40  C   UNL A   1     -25.336   0.684  33.544  0.00  0.00    +0.020 C 
ATOM     41  C   UNL A   1     -24.829  -0.715  33.905  0.00  0.00    +0.089 C 
ATOM     42  N   UNL A   1     -24.758  -1.481  32.646  0.00  0.00    -0.219 NA
ENDBRANCH  31  38
ENDBRANCH  30  31
ENDBRANCH  29  30
ENDBRANCH   1  29
TORSDOF 17
