MODEL 1844
MODEL 1
REMARK VINA RESULT:    -4.435      0.000      0.000
REMARK INTER + INTRA:          -4.435
REMARK INTER:                  -4.435
REMARK INTRA:                   0.000
REMARK UNBOUND:                 0.000
REMARK  Name = No_1844-gen_results/8p0m/2024-11-27-11-27-31/
REMARK  0 active torsions:
REMARK  status: ('A' for Active; 'I' for Inactive)
REMARK                            x       y       z     vdW  Elec       q    Type
REMARK                         _______ _______ _______ _____ _____    ______ ____
ROOT
ATOM      1  C   UNL A   1      -9.161  -9.282  20.010  0.00  0.00    +0.011 A 
ATOM      2  C   UNL A   1      -8.335  -9.871  19.724  0.00  0.00    +0.058 A 
ATOM      3  C   UNL A   1     -10.288  -9.227  19.066  0.00  0.00    +0.001 A 
ATOM      4  C   UNL A   1     -10.299 -10.047  17.900  0.00  0.00    +0.000 A 
ATOM      5  C   UNL A   1      -8.120 -10.846  18.620  0.00  0.00    +0.011 A 
ATOM      6  C   UNL A   1      -9.141 -10.816  17.718  0.00  0.00    +0.001 A 
ATOM      7 CL   UNL A   1      -7.015  -9.782  20.933  0.00  0.00    -0.082 Cl
ENDROOT
TORSDOF 0
ENDMDL
ENDMDL
