REMARK  Name = outputs/IAG933/test6/raw/output_1845_IAG933_linker_design_.xyz
REMARK  13 active torsions:
REMARK  status: ('A' for Active; 'I' for Inactive)
REMARK    1  A    between atoms: C_1  and  C_2
REMARK    2  A    between atoms: C_1  and  C_8
REMARK    3  A    between atoms: C_1  and  N_47
REMARK    4  A    between atoms: C_13  and  C_36
REMARK    5  A    between atoms: C_14  and  C_15
REMARK    6  A    between atoms: C_21  and  O_22
REMARK    7  A    between atoms: O_22  and  C_23
REMARK    8  A    between atoms: C_23  and  C_24
REMARK    9  A    between atoms: C_28  and  C_32
REMARK   10  A    between atoms: C_28  and  N_47
REMARK   11  A    between atoms: C_29  and  C_36
REMARK   12  A    between atoms: C_29  and  N_47
REMARK   13  A    between atoms: C_32  and  C_35
REMARK                            x       y       z     vdW  Elec       q    Type
REMARK                         _______ _______ _______ _____ _____    ______ ____
ROOT
ATOM      1  C   UNL A   1     -25.549   1.065  28.824  0.00  0.00    +0.081 C 
ENDROOT
BRANCH   1   3
ATOM      2  C   UNL A   1     -20.955   1.145  27.729  0.00  0.00    -0.021 C 
ATOM      3  C   UNL A   1     -24.685   1.226  27.640  0.00  0.00    +0.060 C 
ATOM      4  C   UNL A   1     -21.298   1.746  26.470  0.00  0.00    +0.094 C 
ATOM      5  C   UNL A   1     -21.916   0.724  28.687  0.00  0.00    -0.009 C 
ATOM      6  C   UNL A   1     -23.310   0.947  28.195  0.00  0.00    -0.021 C 
ATOM      7  C   UNL A   1     -23.565   1.470  27.036  0.00  0.00    +0.015 C 
ATOM      8  F   UNL A   1     -22.916   1.534  24.819  0.00  0.00    -0.202 F 
ATOM      9  C   UNL A   1     -22.723   2.015  26.009  0.00  0.00    +0.276 C 
ATOM     10  O   UNL A   1     -23.251   3.439  25.659  0.00  0.00    -0.185 OA
BRANCH   3  11
ATOM     11  C   UNL A   1     -25.688   1.614  26.461  0.00  0.00    +0.079 C 
ATOM     12  C   UNL A   1     -26.250   2.920  26.395  0.00  0.00    +0.056 C 
ATOM     13  C   UNL A   1     -27.438   3.091  25.645  0.00  0.00    +0.102 C 
ATOM     14  N   UNL A   1     -28.075   2.089  25.003  0.00  0.00    -0.212 NA
ATOM     15  C   UNL A   1     -27.543   0.849  25.079  0.00  0.00    +0.234 C 
ATOM     16  C   UNL A   1     -26.354   0.576  25.777  0.00  0.00    +0.241 C 
ATOM     17  F   UNL A   1     -25.860  -0.681  25.795  0.00  0.00    -0.227 F 
BRANCH  12  18
ATOM     18  C   UNL A   1     -25.642   4.093  27.123  0.00  0.00    +0.263 C 
ATOM     19  N   UNL A   1     -25.614   5.252  26.449  0.00  0.00    -0.200 NA
ATOM     20  C   UNL A   1     -25.026   6.479  26.963  0.00  0.00    +0.139 C 
ATOM     21  O   UNL A   1     -25.143   3.966  28.243  0.00  0.00    -0.269 OA
ENDBRANCH  12  18
BRANCH  15  22
ATOM     22  O   UNL A   1     -28.193  -0.208  24.477  0.00  0.00    -0.459 OA
BRANCH  22  23
ATOM     23  C   UNL A   1     -29.460   0.005  23.866  0.00  0.00    +0.242 C 
BRANCH  23  24
ATOM     24  C   UNL A   1     -30.065  -1.377  23.573  0.00  0.00    +0.229 C 
ATOM     25  O   UNL A   1     -30.729  -1.878  24.721  0.00  0.00    -0.216 OA
ENDBRANCH  23  24
ENDBRANCH  22  23
ENDBRANCH  15  22
ENDBRANCH   3  11
ENDBRANCH   1   3
BRANCH   1  26
ATOM     26  N   UNL A   1     -25.686  -0.368  29.059  0.00  0.00    -0.266 NA
BRANCH  26  27
ATOM     27  C   UNL A   1     -24.855  -1.012  30.143  0.00  0.00    +0.096 C 
BRANCH  27  28
ATOM     28  C   UNL A   1     -24.973  -2.505  29.788  0.00  0.00    -0.006 C 
ATOM     29  C   UNL A   1     -23.906  -3.173  29.146  0.00  0.00    -0.003 C 
ATOM     30  C   UNL A   1     -23.989  -4.549  28.853  0.00  0.00    -0.000 C 
ATOM     31  C   UNL A   1     -25.137  -5.280  29.205  0.00  0.00    -0.000 C 
ATOM     32  C   UNL A   1     -26.232  -4.611  29.784  0.00  0.00    -0.000 C 
ATOM     33  C   UNL A   1     -26.155  -3.232  30.065  0.00  0.00    -0.003 C 
ENDBRANCH  27  28
BRANCH  27  34
ATOM     34  C   UNL A   1     -25.387  -0.679  31.571  0.00  0.00    +0.092 C 
ATOM     35  C   UNL A   1     -25.189   0.773  32.028  0.00  0.00    +0.021 C 
ATOM     36  C   UNL A   1     -25.336   0.684  33.544  0.00  0.00    +0.020 C 
ATOM     37  C   UNL A   1     -24.829  -0.715  33.905  0.00  0.00    +0.089 C 
ATOM     38  N   UNL A   1     -24.758  -1.481  32.646  0.00  0.00    -0.218 NA
ENDBRANCH  27  34
ENDBRANCH  26  27
BRANCH  26  39
ATOM     39  C   UNL A   1     -27.124  -0.566  28.734  0.00  0.00    +0.110 C 
BRANCH  39  40
ATOM     40  C   UNL A   1     -28.119   0.560  28.810  0.00  0.00    +0.193 C 
ATOM     41  O   UNL A   1     -28.982   0.182  27.756  0.00  0.00    -0.217 OA
BRANCH  40  44
ATOM     42  C   UNL A   1     -29.604   0.634  32.867  0.00  0.00    +0.003 C 
ATOM     43  C   UNL A   1     -28.967   1.851  30.880  0.00  0.00    +0.001 C 
ATOM     44  C   UNL A   1     -28.843   0.610  30.135  0.00  0.00    +0.048 C 
ATOM     45  C   UNL A   1     -29.313  -0.534  30.754  0.00  0.00    +0.194 C 
ATOM     46  O   UNL A   1     -29.290  -1.685  30.049  0.00  0.00    -0.287 OA
ATOM     47  C   UNL A   1     -29.288   1.832  32.239  0.00  0.00    -0.000 C 
ATOM     48  C   UNL A   1     -29.674  -0.538  32.118  0.00  0.00    +0.042 C 
ENDBRANCH  40  44
ENDBRANCH  39  40
ENDBRANCH  26  39
ENDBRANCH   1  26
TORSDOF 13
