MODEL 1845
MODEL 1
REMARK VINA RESULT:    -7.268      0.000      0.000
REMARK INTER + INTRA:          -7.268
REMARK INTER:                  -7.268
REMARK INTRA:                   0.000
REMARK UNBOUND:                 0.000
REMARK  Name = No_1845-gen_results/8p0m/2024-11-27-11-27-31/
REMARK  0 active torsions:
REMARK  status: ('A' for Active; 'I' for Inactive)
REMARK                            x       y       z     vdW  Elec       q    Type
REMARK                         _______ _______ _______ _____ _____    ______ ____
ROOT
ATOM      1  C   UNL A   1     -24.417   0.228  28.144  0.00  0.00    +0.008 A 
ATOM      2  C   UNL A   1     -24.225  -0.428  28.946  0.00  0.00    +0.088 A 
ATOM      3  C   UNL A   1     -23.216   0.985  27.621  0.00  0.00    +0.000 A 
ATOM      4  C   UNL A   1     -21.933   0.673  28.119  0.00  0.00    +0.003 A 
ATOM      5  C   UNL A   1     -25.437  -1.225  29.480  0.00  0.00    +0.254 C 
ATOM      6  C   UNL A   1     -21.859  -0.270  29.118  0.00  0.00    +0.037 A 
ATOM      7  C   UNL A   1     -22.991  -0.917  29.556  0.00  0.00    +0.145 A 
ATOM      8  O   UNL A   1     -26.415  -0.765  29.388  0.00  0.00    -0.270 OA
ATOM      9  N   UNL A   1     -25.277  -2.668  29.631  0.00  0.00    -0.244 N 
ATOM     10  C   UNL A   1     -26.429  -3.438  29.960  0.00  0.00    +0.097 C 
ATOM     11  C   UNL A   1     -26.371  -4.608  29.555  0.00  0.00    +0.022 C 
ATOM     12  C   UNL A   1     -25.149  -5.281  29.080  0.00  0.00    +0.007 C 
ATOM     13  C   UNL A   1     -24.031  -4.458  28.752  0.00  0.00    +0.066 C 
ATOM     14  C   UNL A   1     -24.152  -3.187  28.942  0.00  0.00    +0.247 C 
ATOM     15  O   UNL A   1     -22.985  -2.535  28.810  0.00  0.00    -0.460 OA
ENDROOT
TORSDOF 0
ENDMDL
ENDMDL
