REMARK  Name = No_1847-gen_results/8p0m/2024-11-27-11-27-31/
REMARK  4 active torsions:
REMARK  status: ('A' for Active; 'I' for Inactive)
REMARK    1  A    between atoms: C_2  and  C_7
REMARK    2  A    between atoms: C_4  and  C_10
REMARK    3  A    between atoms: C_12  and  C_13
REMARK    4  A    between atoms: C_15  and  C_21
REMARK                            x       y       z     vdW  Elec       q    Type
REMARK                         _______ _______ _______ _____ _____    ______ ____
ROOT
ATOM      1  C   UNL A   1     -24.375  -1.094  30.070  0.00  0.00    +0.092 C 
ATOM      2  C   UNL A   1     -23.671  -1.717  30.472  0.00  0.00    +0.268 C 
ATOM      3  C   UNL A   1     -23.799   0.074  29.215  0.00  0.00    +0.144 C 
ATOM      4  C   UNL A   1     -22.331  -0.172  29.357  0.00  0.00    +0.391 C 
ATOM      5  N   UNL A   1     -22.354  -1.345  30.215  0.00  0.00    -0.062 NA
ATOM      6  N   UNL A   1     -21.262   0.195  28.861  0.00  0.00    +0.211 NA
ENDROOT
BRANCH   1  10
ATOM      7  C   UNL A   1     -28.016  -0.814  28.878  0.00  0.00    +0.005 A 
ATOM      8  C   UNL A   1     -28.469  -0.785  29.829  0.00  0.00    +0.068 A 
ATOM      9  C   UNL A   1     -26.546  -0.876  28.850  0.00  0.00    -0.004 A 
ATOM     10  C   UNL A   1     -25.804  -1.032  30.057  0.00  0.00    -0.017 A 
ATOM     11  C   UNL A   1     -27.944  -0.987  31.207  0.00  0.00    +0.005 A 
ATOM     12  C   UNL A   1     -26.582  -1.039  31.223  0.00  0.00    -0.004 A 
BRANCH   8  13
ATOM     13  C   UNL A   1     -30.061  -0.737  29.902  0.00  0.00    +0.333 C 
ATOM     14  O   UNL A   1     -30.725  -1.554  30.270  0.00  0.00    -0.254 OA
ATOM     15  F   UNL A   1     -30.527   0.328  29.330  0.00  0.00    -0.159 F 
ENDBRANCH   8  13
ENDBRANCH   1  10
BRANCH   3  16
ATOM     16  C   UNL A   1     -24.303   1.112  28.651  0.00  0.00    -0.010 A 
ATOM     17  C   UNL A   1     -25.140   1.930  29.098  0.00  0.00    +0.003 A 
ATOM     18  C   UNL A   1     -25.587   3.115  28.332  0.00  0.00    +0.080 A 
ATOM     19  C   UNL A   1     -25.188   3.174  27.013  0.00  0.00    +0.007 A 
ATOM     20  C   UNL A   1     -24.342   2.254  26.439  0.00  0.00    -0.000 A 
ATOM     21  C   UNL A   1     -23.838   1.191  27.219  0.00  0.00    -0.004 A 
BRANCH  18  22
ATOM     22  C   UNL A   1     -26.506   4.112  28.911  0.00  0.00    +0.388 C 
ATOM     23  O   UNL A   1     -27.050   4.895  28.378  0.00  0.00    -0.241 OA
ATOM     24  O   UNL A   1     -26.713   3.863  30.234  0.00  0.00    -0.241 OA
ENDBRANCH  18  22
ENDBRANCH   3  16
TORSDOF 4
