MODEL 1848
MODEL 1
REMARK VINA RESULT:    -4.259      0.000      0.000
REMARK INTER + INTRA:          -4.259
REMARK INTER:                  -4.259
REMARK INTRA:                   0.000
REMARK UNBOUND:                 0.000
REMARK  Name = No_1848-gen_results/8p0m/2024-11-27-11-27-31/
REMARK  0 active torsions:
REMARK  status: ('A' for Active; 'I' for Inactive)
REMARK                            x       y       z     vdW  Elec       q    Type
REMARK                         _______ _______ _______ _____ _____    ______ ____
ROOT
ATOM      1  C   UNL A   1     -25.055  -5.291  29.036  0.00  0.00    +0.000 A 
ATOM      2  C   UNL A   1     -26.004  -4.736  29.540  0.00  0.00    +0.000 A 
ATOM      3  C   UNL A   1     -26.030  -3.388  29.841  0.00  0.00    +0.000 A 
ATOM      4  C   UNL A   1     -24.889  -2.607  29.504  0.00  0.00    +0.000 A 
ATOM      5  C   UNL A   1     -23.926  -3.237  28.790  0.00  0.00    +0.000 A 
ATOM      6  C   UNL A   1     -24.004  -4.524  28.511  0.00  0.00    +0.000 A 
ENDROOT
TORSDOF 0
ENDMDL
ENDMDL
