REMARK  Name = No_1849-gen_results/8p0m/2024-11-27-11-27-31/
REMARK  8 active torsions:
REMARK  status: ('A' for Active; 'I' for Inactive)
REMARK    1  A    between atoms: C_3  and  C_8
REMARK    2  A    between atoms: C_6  and  O_7
REMARK    3  A    between atoms: O_7  and  C_14
REMARK    4  A    between atoms: C_14  and  C_15
REMARK    5  A    between atoms: C_14  and  C_20
REMARK    6  A    between atoms: C_15  and  C_16
REMARK    7  A    between atoms: C_16  and  C_18
REMARK    8  A    between atoms: N_26  and  C_28
REMARK                            x       y       z     vdW  Elec       q    Type
REMARK                         _______ _______ _______ _____ _____    ______ ____
ROOT
ATOM      1  C   UNL A   1     -29.363  -2.812  31.442  0.00  0.00    +0.272 C 
ENDROOT
BRANCH   1   2
ATOM      2  C   UNL A   1     -29.769  -1.495  32.079  0.00  0.00    +0.272 C 
ATOM      3  O   UNL A   1     -28.917  -0.966  32.798  0.00  0.00    -0.271 OA
ATOM      4  N   UNL A   1     -30.885  -1.042  31.785  0.00  0.00    -0.249 N 
ATOM      5  C   UNL A   1     -31.247   0.270  32.388  0.00  0.00    +0.120 C 
BRANCH   4   6
ATOM      6  C   UNL A   1     -31.858  -1.610  30.916  0.00  0.00    +0.129 C 
ATOM      7  C   UNL A   1     -32.084  -1.005  29.713  0.00  0.00    +0.294 C 
ATOM      8  F   UNL A   1     -31.228  -0.216  29.399  0.00  0.00    -0.171 F 
ATOM      9  F   UNL A   1     -32.273  -1.924  28.710  0.00  0.00    -0.171 F 
ENDBRANCH   4   6
ENDBRANCH   1   2
BRANCH   1  10
ATOM     10  C   UNL A   1     -29.783  -4.121  31.750  0.00  0.00    +0.205 C 
ATOM     11  O   UNL A   1     -28.994  -4.547  32.895  0.00  0.00    -0.218 OA
BRANCH  10  12
ATOM     12  C   UNL A   1     -29.840  -5.053  30.814  0.00  0.00    +0.064 C 
BRANCH  12  13
ATOM     13  C   UNL A   1     -30.717  -6.243  31.111  0.00  0.00    -0.019 A 
ATOM     14  C   UNL A   1     -31.399  -6.793  29.979  0.00  0.00    -0.004 A 
ATOM     15  C   UNL A   1     -31.956  -8.082  30.043  0.00  0.00    -0.000 A 
ATOM     16  C   UNL A   1     -31.860  -8.782  31.281  0.00  0.00    -0.000 A 
ATOM     17  C   UNL A   1     -31.151  -8.242  32.344  0.00  0.00    -0.000 A 
ATOM     18  C   UNL A   1     -30.498  -7.045  32.230  0.00  0.00    -0.004 A 
ENDBRANCH  12  13
ENDBRANCH  10  12
ENDBRANCH   1  10
BRANCH   1  19
ATOM     19  O   UNL A   1     -29.000  -2.701  30.115  0.00  0.00    -0.467 OA
BRANCH  19  25
ATOM     20  C   UNL A   1     -28.016  -0.814  28.878  0.00  0.00    +0.037 A 
ATOM     21  C   UNL A   1     -27.064  -0.119  28.608  0.00  0.00    +0.003 A 
ATOM     22  C   UNL A   1     -25.792  -0.430  29.076  0.00  0.00    +0.000 A 
ATOM     23  C   UNL A   1     -25.576  -1.565  29.936  0.00  0.00    +0.003 A 
ATOM     24  C   UNL A   1     -26.735  -2.300  30.217  0.00  0.00    +0.037 A 
ATOM     25  C   UNL A   1     -27.918  -1.954  29.763  0.00  0.00    +0.139 A 
BRANCH  22  26
ATOM     26  C   UNL A   1     -24.529   0.349  28.800  0.00  0.00    +0.000 A 
ATOM     27  C   UNL A   1     -24.481   1.211  27.800  0.00  0.00    +0.000 A 
ATOM     28  C   UNL A   1     -23.248   1.897  27.495  0.00  0.00    +0.000 A 
ATOM     29  C   UNL A   1     -22.050   1.589  28.164  0.00  0.00    +0.000 A 
ATOM     30  C   UNL A   1     -23.307   0.015  29.462  0.00  0.00    +0.000 A 
ATOM     31  C   UNL A   1     -22.085   0.690  29.137  0.00  0.00    +0.000 A 
ENDBRANCH  22  26
ENDBRANCH  19  25
ENDBRANCH   1  19
TORSDOF 8
