MODEL 1849
MODEL 1
REMARK VINA RESULT:    -7.909      0.000      0.000
REMARK INTER + INTRA:         -13.382
REMARK INTER:                 -11.608
REMARK INTRA:                  -1.775
REMARK UNBOUND:                -1.775
REMARK  Name = No_1849-gen_results/8p0m/2024-11-27-11-27-31/
REMARK  8 active torsions:
REMARK  status: ('A' for Active; 'I' for Inactive)
REMARK    1  A    between atoms: C_3  and  C_8
REMARK    2  A    between atoms: C_6  and  O_7
REMARK    3  A    between atoms: O_7  and  C_14
REMARK    4  A    between atoms: C_14  and  C_15
REMARK    5  A    between atoms: C_14  and  C_20
REMARK    6  A    between atoms: C_15  and  C_16
REMARK    7  A    between atoms: C_16  and  C_18
REMARK    8  A    between atoms: N_26  and  C_28
REMARK                            x       y       z     vdW  Elec       q    Type
REMARK                         _______ _______ _______ _____ _____    ______ ____
ROOT
ATOM      1  C   UNL A   1     -23.105   0.441  28.930  0.00  0.00    +0.272 C 
ENDROOT
BRANCH   1   2
ATOM      2  C   UNL A   1     -22.805   1.338  27.743  0.00  0.00    +0.272 C 
ATOM      3  O   UNL A   1     -21.609   1.560  27.532  0.00  0.00    -0.271 OA
ATOM      4  N   UNL A   1     -23.768   1.722  27.063  0.00  0.00    -0.249 N 
ATOM      5  C   UNL A   1     -23.448   2.567  25.880  0.00  0.00    +0.120 C 
BRANCH   4   6
ATOM      6  C   UNL A   1     -25.147   1.432  27.258  0.00  0.00    +0.129 C 
ATOM      7  C   UNL A   1     -25.751   0.553  26.406  0.00  0.00    +0.294 C 
ATOM      8  F   UNL A   1     -24.975  -0.100  25.753  0.00  0.00    -0.171 F 
ATOM      9  F   UNL A   1     -26.627  -0.273  27.066  0.00  0.00    -0.171 F 
ENDBRANCH   4   6
ENDBRANCH   1   2
BRANCH   1  10
ATOM     10  C   UNL A   1     -22.976  -0.957  29.050  0.00  0.00    +0.205 C 
ATOM     11  O   UNL A   1     -21.552  -1.246  28.982  0.00  0.00    -0.218 OA
BRANCH  10  12
ATOM     12  C   UNL A   1     -23.683  -1.772  28.285  0.00  0.00    +0.064 C 
BRANCH  12  13
ATOM     13  C   UNL A   1     -24.441  -2.864  28.996  0.00  0.00    -0.019 A 
ATOM     14  C   UNL A   1     -25.701  -2.468  29.549  0.00  0.00    -0.004 A 
ATOM     15  C   UNL A   1     -26.649  -3.437  29.921  0.00  0.00    -0.000 A 
ATOM     16  C   UNL A   1     -26.284  -4.807  29.776  0.00  0.00    -0.000 A 
ATOM     17  C   UNL A   1     -25.075  -5.158  29.193  0.00  0.00    -0.000 A 
ATOM     18  C   UNL A   1     -24.215  -4.209  28.711  0.00  0.00    -0.004 A 
ENDBRANCH  12  13
ENDBRANCH  10  12
ENDBRANCH   1  10
BRANCH   1  19
ATOM     19  O   UNL A   1     -22.956   1.064  30.152  0.00  0.00    -0.467 OA
BRANCH  19  25
ATOM     20  C   UNL A   1     -23.296  -0.644  31.892  0.00  0.00    +0.037 A 
ATOM     21  C   UNL A   1     -23.860  -1.026  32.890  0.00  0.00    +0.003 A 
ATOM     22  C   UNL A   1     -24.929  -0.318  33.427  0.00  0.00    +0.000 A 
ATOM     23  C   UNL A   1     -25.369   0.920  32.837  0.00  0.00    +0.003 A 
ATOM     24  C   UNL A   1     -24.645   1.301  31.699  0.00  0.00    +0.037 A 
ATOM     25  C   UNL A   1     -23.631   0.604  31.241  0.00  0.00    +0.139 A 
BRANCH  22  26
ATOM     26  C   UNL A   1     -25.719  -0.697  34.657  0.00  0.00    +0.000 A 
ATOM     27  C   UNL A   1     -27.033  -0.562  34.674  0.00  0.00    +0.000 A 
ATOM     28  C   UNL A   1     -27.774  -0.856  35.878  0.00  0.00    +0.000 A 
ATOM     29  C   UNL A   1     -27.123  -1.174  37.083  0.00  0.00    +0.000 A 
ATOM     30  C   UNL A   1     -25.054  -0.993  35.887  0.00  0.00    +0.000 A 
ATOM     31  C   UNL A   1     -25.801  -1.263  37.080  0.00  0.00    +0.000 A 
ENDBRANCH  22  26
ENDBRANCH  19  25
ENDBRANCH   1  19
TORSDOF 8
ENDMDL
ENDMDL
