MODEL 184
MODEL 1
REMARK VINA RESULT:    -7.360      0.000      0.000
REMARK INTER + INTRA:          -8.719
REMARK INTER:                  -8.220
REMARK INTRA:                  -0.498
REMARK UNBOUND:                -0.498
REMARK  Name = No_184-gen_results/8p0m/2024-11-27-11-27-31/
REMARK  2 active torsions:
REMARK  status: ('A' for Active; 'I' for Inactive)
REMARK    1  A    between atoms: C_2  and  C_10
REMARK    2  A    between atoms: C_6  and  C_7
REMARK                            x       y       z     vdW  Elec       q    Type
REMARK                         _______ _______ _______ _____ _____    ______ ____
ROOT
ATOM      1  C   UNL A   1     -24.195  -0.328  28.068  0.00  0.00    +0.004 A 
ATOM      2  C   UNL A   1     -23.827  -1.301  28.685  0.00  0.00    +0.000 A 
ATOM      3  C   UNL A   1     -22.548  -1.367  29.225  0.00  0.00    +0.000 A 
ATOM      4  C   UNL A   1     -21.603  -0.297  29.028  0.00  0.00    +0.000 A 
ATOM      5  C   UNL A   1     -22.104   0.778  28.283  0.00  0.00    +0.004 A 
ATOM      6  C   UNL A   1     -23.317   0.785  27.779  0.00  0.00    +0.050 A 
ENDROOT
BRANCH   2   7
ATOM      7  C   UNL A   1     -24.666  -2.507  28.963  0.00  0.00    +0.000 A 
ATOM      8  C   UNL A   1     -25.650  -2.514  29.419  0.00  0.00    +0.000 A 
ATOM      9  C   UNL A   1     -26.466  -3.708  29.787  0.00  0.00    +0.000 A 
ATOM     10  C   UNL A   1     -25.905  -4.947  29.546  0.00  0.00    +0.000 A 
ATOM     11  C   UNL A   1     -24.644  -5.007  28.961  0.00  0.00    +0.000 A 
ATOM     12  C   UNL A   1     -23.997  -3.875  28.621  0.00  0.00    +0.000 A 
ENDBRANCH   2   7
BRANCH   6  13
ATOM     13  C   UNL A   1     -23.558   2.015  27.015  0.00  0.00    +0.254 C 
ATOM     14 CL   UNL A   1     -23.472   1.933  25.415  0.00  0.00    -0.038 Cl
ATOM     15  O   UNL A   1     -23.943   3.100  27.586  0.00  0.00    -0.274 OA
ENDBRANCH   6  13
TORSDOF 2
ENDMDL
ENDMDL
