MODEL 1850
MODEL 1
REMARK VINA RESULT:    -8.145      0.000      0.000
REMARK INTER + INTRA:         -11.342
REMARK INTER:                 -10.050
REMARK INTRA:                  -1.292
REMARK UNBOUND:                -1.292
REMARK  Name = No_1850-gen_results/8p0m/2024-11-27-11-27-31/
REMARK  4 active torsions:
REMARK  status: ('A' for Active; 'I' for Inactive)
REMARK    1  A    between atoms: C_2  and  C_8
REMARK    2  A    between atoms: C_8  and  C_10
REMARK    3  A    between atoms: C_10  and  C_11
REMARK    4  A    between atoms: C_10  and  C_18
REMARK                            x       y       z     vdW  Elec       q    Type
REMARK                         _______ _______ _______ _____ _____    ______ ____
ROOT
ATOM      1  C   UNL A   1     -25.347  -1.078  29.954  0.00  0.00    +0.083 C 
ENDROOT
BRANCH   1   2
ATOM      2  C   UNL A   1     -24.944  -0.776  30.840  0.00  0.00    -0.035 C 
ATOM      3  C   UNL A   1     -23.695  -0.095  31.189  0.00  0.00    -0.008 C 
ATOM      4  C   UNL A   1     -25.867  -0.781  32.123  0.00  0.00    +0.023 C 
ATOM      5  C   UNL A   1     -25.352  -0.239  33.383  0.00  0.00    +0.009 C 
ATOM      6  C   UNL A   1     -23.037  -1.071  31.519  0.00  0.00    -0.005 C 
ATOM      7  C   UNL A   1     -23.067  -1.457  33.020  0.00  0.00    -0.026 C 
ATOM      8  C   UNL A   1     -24.203  -0.971  33.891  0.00  0.00    +0.026 C 
ENDBRANCH   1   2
BRANCH   1   9
ATOM      9  C   UNL A   1     -25.298  -2.542  29.493  0.00  0.00    -0.013 A 
ATOM     10  C   UNL A   1     -26.225  -3.472  29.970  0.00  0.00    -0.004 A 
ATOM     11  C   UNL A   1     -26.097  -4.828  29.608  0.00  0.00    -0.000 A 
ATOM     12  C   UNL A   1     -24.971  -5.195  28.882  0.00  0.00    -0.000 A 
ATOM     13  C   UNL A   1     -24.112  -2.963  28.871  0.00  0.00    -0.004 A 
ATOM     14  C   UNL A   1     -23.943  -4.366  28.547  0.00  0.00    -0.000 A 
ENDBRANCH   1   9
BRANCH   1  15
ATOM     15  C   UNL A   1     -25.954  -0.363  28.735  0.00  0.00    +0.088 C 
ATOM     16  N   UNL A   1     -27.130  -0.598  28.605  0.00  0.00    -0.152 NA
BRANCH  15  18
ATOM     17  C   UNL A   1     -25.152   0.069  26.612  0.00  0.00    +0.004 A 
ATOM     18  C   UNL A   1     -25.017   0.391  27.770  0.00  0.00    +0.016 A 
ATOM     19  C   UNL A   1     -24.078   1.290  28.243  0.00  0.00    +0.004 A 
ATOM     20  C   UNL A   1     -23.225   1.904  27.279  0.00  0.00    +0.042 A 
ATOM     21  C   UNL A   1     -23.501   1.637  25.986  0.00  0.00    +0.196 A 
ATOM     22  C   UNL A   1     -24.493   0.816  25.634  0.00  0.00    +0.042 A 
ATOM     23  O   UNL A   1     -22.726   2.285  25.073  0.00  0.00    -0.287 OA
ENDBRANCH  15  18
ENDBRANCH   1  15
TORSDOF 4
ENDMDL
ENDMDL
