REMARK  Name = outputs/IAG933/test6/raw/output_1850_IAG933_linker_design_.xyz
REMARK  7 active torsions:
REMARK  status: ('A' for Active; 'I' for Inactive)
REMARK    1  A    between atoms: C_1  and  C_2
REMARK    2  A    between atoms: C_1  and  C_8
REMARK    3  A    between atoms: C_9  and  N_36
REMARK    4  A    between atoms: C_21  and  O_22
REMARK    5  A    between atoms: O_22  and  C_23
REMARK    6  A    between atoms: C_23  and  C_24
REMARK    7  A    between atoms: N_34  and  C_41
REMARK                            x       y       z     vdW  Elec       q    Type
REMARK                         _______ _______ _______ _____ _____    ______ ____
ROOT
ATOM      1  C   UNL A   1     -25.688   1.614  26.461  0.00  0.00    +0.030 C 
ATOM      2  C   UNL A   1     -26.250   2.920  26.395  0.00  0.00    +0.072 C 
ATOM      3  C   UNL A   1     -25.642   4.093  27.123  0.00  0.00    +0.227 C 
ATOM      4  N   UNL A   1     -25.614   5.252  26.449  0.00  0.00    -0.235 NA
ATOM      5  C   UNL A   1     -25.026   6.479  26.963  0.00  0.00    +0.155 C 
ATOM      6  O   UNL A   1     -25.143   3.966  28.243  0.00  0.00    -0.427 OA
ATOM      7  C   UNL A   1     -27.438   3.091  25.645  0.00  0.00    +0.106 C 
ATOM      8  N   UNL A   1     -28.075   2.089  25.003  0.00  0.00    -0.208 NA
ATOM      9  C   UNL A   1     -27.543   0.849  25.079  0.00  0.00    +0.253 C 
ATOM     10  C   UNL A   1     -26.354   0.576  25.777  0.00  0.00    +0.190 C 
ATOM     11  F   UNL A   1     -25.860  -0.681  25.795  0.00  0.00    -0.200 F 
ATOM     12  N   UNL A   1     -25.776   3.482  32.270  0.00  0.00    -0.009 NA
ATOM     13  C   UNL A   1     -23.962   1.762  29.966  0.00  0.00    +0.204 C 
ATOM     14 BR   UNL A   1     -26.195   5.530  34.133  0.00  0.00    +0.025 Br
ATOM     15  C   UNL A   1     -25.428   4.051  29.793  0.00  0.00    +0.248 C 
ATOM     16  C   UNL A   1     -24.310   1.667  28.528  0.00  0.00    +0.071 C 
ATOM     17  C   UNL A   1     -25.390   5.282  30.262  0.00  0.00    +0.148 C 
ATOM     18  N   UNL A   1     -25.313   1.667  30.788  0.00  0.00    -0.190 N 
ATOM     19  N   UNL A   1     -25.550   5.657  31.513  0.00  0.00    -0.193 NA
ATOM     20  C   UNL A   1     -25.583   2.979  31.096  0.00  0.00    +0.362 C 
ATOM     21  C   UNL A   1     -24.427   1.380  27.347  0.00  0.00    +0.087 C 
ATOM     22  C   UNL A   1     -25.734   4.742  32.411  0.00  0.00    +0.311 C 
ENDROOT
BRANCH  18  24
ATOM     23  C   UNL A   1     -25.387  -0.679  31.571  0.00  0.00    +0.120 C 
ATOM     24  C   UNL A   1     -25.189   0.773  32.028  0.00  0.00    +0.178 C 
ATOM     25  C   UNL A   1     -25.336   0.684  33.544  0.00  0.00    +0.067 C 
ATOM     26  C   UNL A   1     -24.829  -0.715  33.905  0.00  0.00    +0.093 C 
ATOM     27  N   UNL A   1     -24.758  -1.481  32.646  0.00  0.00    -0.215 NA
BRANCH  23  28
ATOM     28  C   UNL A   1     -24.855  -1.012  30.143  0.00  0.00    +0.048 C 
BRANCH  28  29
ATOM     29  C   UNL A   1     -24.973  -2.505  29.788  0.00  0.00    -0.021 C 
ATOM     30  C   UNL A   1     -23.906  -3.173  29.146  0.00  0.00    -0.004 C 
ATOM     31  C   UNL A   1     -23.989  -4.549  28.853  0.00  0.00    -0.000 C 
ATOM     32  C   UNL A   1     -25.137  -5.280  29.205  0.00  0.00    -0.000 C 
ATOM     33  C   UNL A   1     -26.232  -4.611  29.784  0.00  0.00    -0.000 C 
ATOM     34  C   UNL A   1     -26.155  -3.232  30.065  0.00  0.00    -0.004 C 
ENDBRANCH  28  29
ENDBRANCH  23  28
ENDBRANCH  18  24
BRANCH  21  36
ATOM     35  C   UNL A   1     -22.484   2.097  25.931  0.00  0.00    +0.088 C 
ATOM     36  N   UNL A   1     -23.290   1.249  26.773  0.00  0.00    -0.269 NA
ATOM     37  C   UNL A   1     -22.075   1.772  27.352  0.00  0.00    +0.074 C 
ATOM     38  C   UNL A   1     -21.761   0.754  28.518  0.00  0.00    +0.019 C 
ENDBRANCH  21  36
BRANCH   9  39
ATOM     39  O   UNL A   1     -28.193  -0.208  24.477  0.00  0.00    -0.456 OA
BRANCH  39  40
ATOM     40  C   UNL A   1     -29.460   0.005  23.866  0.00  0.00    +0.243 C 
BRANCH  40  41
ATOM     41  C   UNL A   1     -30.065  -1.377  23.573  0.00  0.00    +0.229 C 
ATOM     42  O   UNL A   1     -30.729  -1.878  24.721  0.00  0.00    -0.216 OA
ENDBRANCH  40  41
ENDBRANCH  39  40
ENDBRANCH   9  39
TORSDOF 7
