MODEL 1851
MODEL 1
REMARK VINA RESULT:    -4.238      0.000      0.000
REMARK INTER + INTRA:          -4.238
REMARK INTER:                  -4.238
REMARK INTRA:                   0.000
REMARK UNBOUND:                 0.000
REMARK  Name = No_1851-gen_results/8p0m/2024-11-27-11-27-31/
REMARK  0 active torsions:
REMARK  status: ('A' for Active; 'I' for Inactive)
REMARK                            x       y       z     vdW  Elec       q    Type
REMARK                         _______ _______ _______ _____ _____    ______ ____
ROOT
ATOM      1  C   UNL A   1     -26.418  -3.854  29.833  0.00  0.00    +0.000 A 
ATOM      2  C   UNL A   1     -26.083  -4.836  29.647  0.00  0.00    +0.000 A 
ATOM      3  C   UNL A   1     -25.484  -2.765  29.507  0.00  0.00    +0.000 A 
ATOM      4  C   UNL A   1     -24.254  -3.041  28.841  0.00  0.00    +0.000 A 
ATOM      5  C   UNL A   1     -24.901  -5.382  28.926  0.00  0.00    +0.000 A 
ATOM      6  C   UNL A   1     -24.005  -4.402  28.615  0.00  0.00    +0.000 A 
ENDROOT
TORSDOF 0
ENDMDL
ENDMDL
