MODEL 1852
MODEL 1
REMARK VINA RESULT:    -3.821      0.000      0.000
REMARK INTER + INTRA:          -3.821
REMARK INTER:                  -3.821
REMARK INTRA:                   0.000
REMARK UNBOUND:                 0.000
REMARK  Name = No_1852-gen_results/8p0m/2024-11-27-11-27-31/
REMARK  0 active torsions:
REMARK  status: ('A' for Active; 'I' for Inactive)
REMARK                            x       y       z     vdW  Elec       q    Type
REMARK                         _______ _______ _______ _____ _____    ______ ____
ROOT
ATOM      1  O   UNL A   1     -28.765 -15.758  13.349  0.00  0.00    -0.273 OA
ATOM      2  C   UNL A   1     -29.566 -15.165  12.616  0.00  0.00    +0.241 C 
ATOM      3  C   UNL A   1     -30.112 -15.653  11.564  0.00  0.00    +0.087 C 
ATOM      4  N   UNL A   1     -30.056 -13.857  13.002  0.00  0.00    -0.205 NA
ATOM      5  C   UNL A   1     -31.035 -14.977  10.676  0.00  0.00    +0.011 C 
ATOM      6  C   UNL A   1     -30.973 -13.133  12.258  0.00  0.00    +0.115 C 
ATOM      7  C   UNL A   1     -31.469 -13.650  11.095  0.00  0.00    +0.024 C 
ENDROOT
TORSDOF 0
ENDMDL
ENDMDL
