REMARK  Name = No_1854-gen_results/8p0m/2024-11-27-11-27-31/
REMARK  1 active torsions:
REMARK  status: ('A' for Active; 'I' for Inactive)
REMARK    1  A    between atoms: C_2  and  C_4
REMARK                            x       y       z     vdW  Elec       q    Type
REMARK                         _______ _______ _______ _____ _____    ______ ____
ROOT
ATOM      1  C   UNL A   1     -27.680   0.927  28.300  0.00  0.00    +0.044 A 
ATOM      2  C   UNL A   1     -28.759   1.196  27.657  0.00  0.00    +0.001 A 
ATOM      3  C   UNL A   1     -28.710   1.246  26.274  0.00  0.00    -0.000 A 
ATOM      4  C   UNL A   1     -27.477   1.069  25.625  0.00  0.00    -0.000 A 
ATOM      5  C   UNL A   1     -26.253   1.159  26.307  0.00  0.00    -0.000 A 
ATOM      6  C   UNL A   1     -26.420   1.004  27.746  0.00  0.00    +0.001 A 
ENDROOT
BRANCH   1   8
ATOM      7  F   UNL A   1     -28.073  -1.254  28.532  0.00  0.00    -0.193 F 
ATOM      8  C   UNL A   1     -27.359  -0.379  28.722  0.00  0.00    +0.341 C 
ATOM      9  F   UNL A   1     -26.318  -0.661  29.116  0.00  0.00    -0.193 F 
ENDBRANCH   1   8
TORSDOF 1
