REMARK  Name = No_1855-gen_results/8p0m/2024-11-27-11-27-31/
REMARK  5 active torsions:
REMARK  status: ('A' for Active; 'I' for Inactive)
REMARK    1  A    between atoms: C_1  and  C_11
REMARK    2  A    between atoms: C_5  and  C_7
REMARK    3  A    between atoms: C_11  and  N_12
REMARK    4  A    between atoms: N_15  and  C_16
REMARK    5  A    between atoms: C_16  and  C_17
REMARK                            x       y       z     vdW  Elec       q    Type
REMARK                         _______ _______ _______ _____ _____    ______ ____
ROOT
ATOM      1  C   UNL A   1     -28.036  -1.671  30.141  0.00  0.00    +0.247 C 
ENDROOT
BRANCH   1   2
ATOM      2  C   UNL A   1     -28.016  -0.814  28.878  0.00  0.00    +0.021 A 
ATOM      3  C   UNL A   1     -27.064  -0.119  28.608  0.00  0.00    -0.001 A 
ATOM      4  C   UNL A   1     -27.001   0.691  27.491  0.00  0.00    -0.000 A 
ATOM      5  C   UNL A   1     -28.137   0.736  26.635  0.00  0.00    +0.004 A 
ATOM      6  C   UNL A   1     -29.236   0.076  27.069  0.00  0.00    +0.071 A 
ATOM      7  C   UNL A   1     -29.218  -0.643  28.175  0.00  0.00    +0.003 A 
BRANCH   6   8
ATOM      8  C   UNL A   1     -30.337   0.223  26.029  0.00  0.00    +0.419 C 
ATOM      9  F   UNL A   1     -31.103  -0.667  26.117  0.00  0.00    -0.166 F 
ATOM     10  F   UNL A   1     -29.856   0.332  24.776  0.00  0.00    -0.166 F 
ATOM     11  F   UNL A   1     -30.955   1.405  26.252  0.00  0.00    -0.166 F 
ENDBRANCH   6   8
ENDBRANCH   1   2
BRANCH   1  12
ATOM     12  N   UNL A   1     -27.112  -2.579  30.286  0.00  0.00    -0.084 NA
ATOM     13  C   UNL A   1     -27.424  -3.924  30.036  0.00  0.00    +0.496 C 
ATOM     14  N   UNL A   1     -26.291  -4.700  29.864  0.00  0.00    +0.132 NA
ATOM     15  N   UNL A   1     -28.566  -4.422  30.233  0.00  0.00    -0.084 NA
BRANCH  15  16
ATOM     16  C   UNL A   1     -29.654  -4.402  30.487  0.00  0.00    +0.247 C 
BRANCH  16  17
ATOM     17  C   UNL A   1     -30.659  -4.709  30.352  0.00  0.00    +0.021 A 
ATOM     18  C   UNL A   1     -31.046  -5.732  29.295  0.00  0.00    -0.001 A 
ATOM     19  C   UNL A   1     -32.286  -6.239  28.934  0.00  0.00    -0.000 A 
ATOM     20  C   UNL A   1     -33.340  -5.678  29.628  0.00  0.00    -0.000 A 
ATOM     21  C   UNL A   1     -33.228  -4.740  30.592  0.00  0.00    -0.000 A 
ATOM     22  C   UNL A   1     -31.974  -4.212  30.962  0.00  0.00    -0.001 A 
ENDBRANCH  16  17
ENDBRANCH  15  16
ENDBRANCH   1  12
TORSDOF 5
