MODEL 1856
MODEL 1
REMARK VINA RESULT:    -7.458      0.000      0.000
REMARK INTER + INTRA:          -7.979
REMARK INTER:                  -7.894
REMARK INTRA:                  -0.085
REMARK UNBOUND:                -0.085
REMARK  Name = No_1856-gen_results/8p0m/2024-11-27-11-27-31/
REMARK  1 active torsions:
REMARK  status: ('A' for Active; 'I' for Inactive)
REMARK    1  A    between atoms: C_7  and  C_13
REMARK                            x       y       z     vdW  Elec       q    Type
REMARK                         _______ _______ _______ _____ _____    ______ ____
ROOT
ATOM      1  C   UNL A   1     -29.206 -10.309  32.472  0.00  0.00    +0.011 A 
ATOM      2  C   UNL A   1     -29.564 -10.246  31.318  0.00  0.00    +0.057 A 
ATOM      3  C   UNL A   1     -29.154 -11.144  30.333  0.00  0.00    +0.006 A 
ATOM      4  C   UNL A   1     -29.529 -11.135  28.906  0.00  0.00    +0.019 A 
ATOM      5  C   UNL A   1     -29.054 -12.056  27.906  0.00  0.00    +0.002 A 
ATOM      6  C   UNL A   1     -29.493 -11.961  26.571  0.00  0.00    +0.003 A 
ATOM      7  C   UNL A   1     -28.142 -11.294  32.834  0.00  0.00    +0.080 A 
ATOM      8  C   UNL A   1     -27.735 -12.269  31.967  0.00  0.00    +0.007 A 
ATOM      9  C   UNL A   1     -28.188 -12.232  30.620  0.00  0.00    +0.000 A 
ATOM     10  C   UNL A   1     -30.619 -11.157  26.212  0.00  0.00    +0.039 A 
ATOM     11  C   UNL A   1     -30.620 -10.293  28.416  0.00  0.00    +0.101 A 
ATOM     12  C   UNL A   1     -31.098 -10.318  27.139  0.00  0.00    +0.162 A 
ATOM     13  O   UNL A   1     -32.137  -9.500  26.852  0.00  0.00    -0.447 OA
ATOM     14  C   UNL A   1     -32.537  -8.722  27.931  0.00  0.00    +0.199 C 
ATOM     15  N   UNL A   1     -31.256  -9.494  29.239  0.00  0.00    -0.267 N 
ATOM     16  C   UNL A   1     -32.148  -8.599  28.997  0.00  0.00    +0.124 C 
ATOM     17  C   UNL A   1     -30.684  -9.425  30.749  0.00  0.00    +0.265 A 
ATOM     18  O   UNL A   1     -31.214  -8.634  31.576  0.00  0.00    -0.267 OA
ENDROOT
BRANCH   7  19
ATOM     19  C   UNL A   1     -27.632 -11.370  34.228  0.00  0.00    +0.388 C 
ATOM     20  O   UNL A   1     -26.844 -10.627  34.606  0.00  0.00    -0.241 OA
ATOM     21  O   UNL A   1     -27.775 -12.549  34.831  0.00  0.00    -0.241 OA
ENDBRANCH   7  19
TORSDOF 1
ENDMDL
ENDMDL
