MODEL 1857
MODEL 1
REMARK VINA RESULT:    -6.906      0.000      0.000
REMARK INTER + INTRA:          -8.802
REMARK INTER:                  -8.117
REMARK INTRA:                  -0.685
REMARK UNBOUND:                -0.685
REMARK  Name = No_1857-gen_results/8p0m/2024-11-27-11-27-31/
REMARK  3 active torsions:
REMARK  status: ('A' for Active; 'I' for Inactive)
REMARK    1  A    between atoms: C_2  and  C_7
REMARK    2  A    between atoms: C_7  and  C_8
REMARK    3  A    between atoms: C_9  and  C_16
REMARK                            x       y       z     vdW  Elec       q    Type
REMARK                         _______ _______ _______ _____ _____    ______ ____
ROOT
ATOM      1  C   UNL A   1     -24.498  -1.128  29.863  0.00  0.00    +0.053 C 
ENDROOT
BRANCH   1   3
ATOM      2  C   UNL A   1     -25.029  -0.191  27.716  0.00  0.00    -0.003 A 
ATOM      3  C   UNL A   1     -24.225  -0.303  28.613  0.00  0.00    -0.017 A 
ATOM      4  C   UNL A   1     -23.009   0.299  28.620  0.00  0.00    +0.008 A 
ATOM      5  C   UNL A   1     -22.655   1.104  27.521  0.00  0.00    +0.068 A 
ATOM      6  C   UNL A   1     -24.773   0.692  26.607  0.00  0.00    +0.012 A 
ATOM      7  C   UNL A   1     -23.554   1.298  26.553  0.00  0.00    +0.068 A 
ATOM      8 CL   UNL A   1     -23.220   2.297  25.157  0.00  0.00    -0.081 Cl
ATOM      9 CL   UNL A   1     -21.078   1.870  27.513  0.00  0.00    -0.081 Cl
ENDBRANCH   1   3
BRANCH   1  10
ATOM     10  C   UNL A   1     -24.884  -2.561  29.588  0.00  0.00    -0.011 A 
ATOM     11  C   UNL A   1     -26.130  -3.081  29.866  0.00  0.00    +0.076 A 
ATOM     12  C   UNL A   1     -26.377  -4.451  29.628  0.00  0.00    +0.006 A 
ATOM     13  C   UNL A   1     -23.910  -3.418  29.011  0.00  0.00    -0.004 A 
ATOM     14  C   UNL A   1     -24.172  -4.777  28.881  0.00  0.00    -0.000 A 
ATOM     15  C   UNL A   1     -25.447  -5.263  29.138  0.00  0.00    +0.000 A 
BRANCH  11  16
ATOM     16  C   UNL A   1     -27.194  -2.226  30.465  0.00  0.00    +0.388 C 
ATOM     17  O   UNL A   1     -27.249  -2.012  31.557  0.00  0.00    -0.241 OA
ATOM     18  O   UNL A   1     -27.923  -1.519  29.618  0.00  0.00    -0.241 OA
ENDBRANCH  11  16
ENDBRANCH   1  10
TORSDOF 3
ENDMDL
ENDMDL
