MODEL 1858
MODEL 1
REMARK VINA RESULT:    -5.262      0.000      0.000
REMARK INTER + INTRA:          -6.407
REMARK INTER:                  -6.185
REMARK INTRA:                  -0.222
REMARK UNBOUND:                -0.222
REMARK  Name = No_1858-gen_results/8p0m/2024-11-27-11-27-31/
REMARK  3 active torsions:
REMARK  status: ('A' for Active; 'I' for Inactive)
REMARK    1  A    between atoms: C_2  and  C_9
REMARK    2  A    between atoms: C_4  and  O_7
REMARK    3  A    between atoms: N_11  and  C_12
REMARK                            x       y       z     vdW  Elec       q    Type
REMARK                         _______ _______ _______ _____ _____    ______ ____
ROOT
ATOM      1  C   UNL A   1     -26.072  -2.059  29.830  0.00  0.00    +0.008 A 
ATOM      2  C   UNL A   1     -25.271  -2.569  29.374  0.00  0.00    +0.056 A 
ATOM      3  C   UNL A   1     -27.237  -2.872  30.213  0.00  0.00    +0.037 A 
ATOM      4  C   UNL A   1     -27.201  -4.292  30.094  0.00  0.00    +0.139 A 
ATOM      5  C   UNL A   1     -26.064  -4.820  29.537  0.00  0.00    +0.037 A 
ATOM      6  C   UNL A   1     -25.034  -4.024  29.179  0.00  0.00    +0.008 A 
ENDROOT
BRANCH   2   7
ATOM      7  C   UNL A   1     -23.961  -1.747  28.927  0.00  0.00    +0.269 C 
ATOM      8  O   UNL A   1     -23.062  -2.335  28.921  0.00  0.00    -0.268 OA
ATOM      9  N   UNL A   1     -24.058  -0.418  28.591  0.00  0.00    -0.174 NA
BRANCH   9  10
ATOM     10  C   UNL A   1     -22.863   0.272  28.181  0.00  0.00    +0.084 C 
ATOM     11  C   UNL A   1     -22.656   1.191  27.766  0.00  0.00    -0.008 C 
ATOM     12  C   UNL A   1     -21.393   1.789  27.373  0.00  0.00    +0.032 C 
ENDBRANCH   9  10
ENDBRANCH   2   7
BRANCH   4  13
ATOM     13  O   UNL A   1     -28.254  -5.031  30.433  0.00  0.00    -0.471 OA
ATOM     14  C   UNL A   1     -29.033  -4.875  31.412  0.00  0.00    +0.253 C 
ENDBRANCH   4  13
TORSDOF 3
ENDMDL
ENDMDL
