MODEL 1859
MODEL 1
REMARK VINA RESULT:    -6.366      0.000      0.000
REMARK INTER + INTRA:          -8.070
REMARK INTER:                  -7.483
REMARK INTRA:                  -0.588
REMARK UNBOUND:                -0.588
REMARK  Name = No_1859-gen_results/8p0m/2024-11-27-11-27-31/
REMARK  3 active torsions:
REMARK  status: ('A' for Active; 'I' for Inactive)
REMARK    1  A    between atoms: C_2  and  C_7
REMARK    2  A    between atoms: C_7  and  N_8
REMARK    3  A    between atoms: C_7  and  C_9
REMARK                            x       y       z     vdW  Elec       q    Type
REMARK                         _______ _______ _______ _____ _____    ______ ____
ROOT
ATOM      1  C   UNL A   1     -24.181  -1.774  29.690  0.00  0.00    +0.225 C 
ENDROOT
BRANCH   1   3
ATOM      2  C   UNL A   1     -23.170  -0.020  28.405  0.00  0.00    +0.041 A 
ATOM      3  C   UNL A   1     -24.081  -0.797  28.573  0.00  0.00    +0.024 A 
ATOM      4  C   UNL A   1     -25.149  -0.854  27.684  0.00  0.00    -0.000 A 
ATOM      5  C   UNL A   1     -25.226   0.044  26.560  0.00  0.00    +0.003 A 
ATOM      6  C   UNL A   1     -24.143   0.925  26.455  0.00  0.00    +0.042 A 
ATOM      7  C   UNL A   1     -23.165   0.950  27.332  0.00  0.00    +0.196 A 
ATOM      8  O   UNL A   1     -22.174   1.842  27.147  0.00  0.00    -0.287 OA
ENDBRANCH   1   3
BRANCH   1   9
ATOM      9  N   UNL A   1     -23.821  -1.575  30.816  0.00  0.00    -0.088 NA
ATOM     10  C   UNL A   1     -24.121  -1.281  31.730  0.00  0.00    +0.450 C 
ATOM     11  N   UNL A   1     -23.456  -1.327  33.004  0.00  0.00    -0.067 NA
ATOM     12  C   UNL A   1     -24.226  -0.967  34.127  0.00  0.00    +0.210 C 
ATOM     13  N   UNL A   1     -25.237  -0.400  31.820  0.00  0.00    -0.053 NA
ATOM     14  C   UNL A   1     -25.411  -0.356  33.382  0.00  0.00    +0.273 C 
ENDBRANCH   1   9
BRANCH   1  15
ATOM     15  C   UNL A   1     -24.889  -3.018  29.471  0.00  0.00    +0.016 C 
ATOM     16  C   UNL A   1     -24.205  -4.157  29.068  0.00  0.00    -0.027 C 
ATOM     17  C   UNL A   1     -24.883  -5.373  29.011  0.00  0.00    +0.030 C 
ENDBRANCH   1  15
TORSDOF 3
ENDMDL
ENDMDL
