REMARK  Name = outputs/IAG933/test6/raw/output_1859_IAG933_linker_design_.xyz
REMARK  12 active torsions:
REMARK  status: ('A' for Active; 'I' for Inactive)
REMARK    1  A    between atoms: C_1  and  C_2
REMARK    2  A    between atoms: C_1  and  C_8
REMARK    3  A    between atoms: C_1  and  C_40
REMARK    4  A    between atoms: C_13  and  N_34
REMARK    5  A    between atoms: C_14  and  C_15
REMARK    6  A    between atoms: C_21  and  O_22
REMARK    7  A    between atoms: O_22  and  C_23
REMARK    8  A    between atoms: C_23  and  C_24
REMARK    9  A    between atoms: N_30  and  C_36
REMARK   10  A    between atoms: C_32  and  C_35
REMARK   11  A    between atoms: C_32  and  C_40
REMARK   12  A    between atoms: N_34  and  C_35
REMARK                            x       y       z     vdW  Elec       q    Type
REMARK                         _______ _______ _______ _____ _____    ______ ____
ROOT
ATOM      1  C   UNL A   1     -26.659   0.762  29.123  0.00  0.00    +0.059 C 
ATOM      2  C   UNL A   1     -27.206   1.873  29.902  0.00  0.00    +0.047 C 
ATOM      3  C   UNL A   1     -24.028   0.715  28.512  0.00  0.00    +0.076 C 
ATOM      4  C   UNL A   1     -25.389   0.843  28.606  0.00  0.00    -0.101 C 
ATOM      5  O   UNL A   1     -28.870   0.208  29.478  0.00  0.00    -0.467 OA
ATOM      6  C   UNL A   1     -27.677  -0.364  28.891  0.00  0.00    +0.240 C 
ATOM      7  C   UNL A   1     -28.678   1.568  29.987  0.00  0.00    +0.173 C 
ENDROOT
BRANCH   3   9
ATOM      8  N   UNL A   1     -22.547  -0.205  29.343  0.00  0.00    -0.199 NA
ATOM      9  C   UNL A   1     -23.976  -0.086  29.280  0.00  0.00    +0.081 C 
BRANCH   8  11
ATOM     10  C   UNL A   1     -20.312   0.488  28.257  0.00  0.00    +0.012 C 
ATOM     11  C   UNL A   1     -21.466   0.175  28.740  0.00  0.00    +0.049 C 
ENDBRANCH   8  11
BRANCH   9  12
ATOM     12  C   UNL A   1     -24.855  -1.012  30.143  0.00  0.00    +0.080 C 
BRANCH  12  13
ATOM     13  C   UNL A   1     -24.973  -2.505  29.788  0.00  0.00    -0.015 C 
ATOM     14  C   UNL A   1     -23.906  -3.173  29.146  0.00  0.00    -0.004 C 
ATOM     15  C   UNL A   1     -23.989  -4.549  28.853  0.00  0.00    -0.000 C 
ATOM     16  C   UNL A   1     -25.137  -5.280  29.205  0.00  0.00    -0.000 C 
ATOM     17  C   UNL A   1     -26.232  -4.611  29.784  0.00  0.00    -0.000 C 
ATOM     18  C   UNL A   1     -26.155  -3.232  30.065  0.00  0.00    -0.004 C 
ENDBRANCH  12  13
BRANCH  12  19
ATOM     19  C   UNL A   1     -25.387  -0.679  31.571  0.00  0.00    +0.082 C 
ATOM     20  C   UNL A   1     -25.189   0.773  32.028  0.00  0.00    +0.020 C 
ATOM     21  C   UNL A   1     -25.336   0.684  33.544  0.00  0.00    +0.020 C 
ATOM     22  C   UNL A   1     -24.829  -0.715  33.905  0.00  0.00    +0.089 C 
ATOM     23  N   UNL A   1     -24.758  -1.481  32.646  0.00  0.00    -0.219 NA
ENDBRANCH  12  19
ENDBRANCH   9  12
ENDBRANCH   3   9
BRANCH   3  25
ATOM     24  F   UNL A   1     -22.209   1.838  27.025  0.00  0.00    -0.212 F 
ATOM     25  C   UNL A   1     -23.521   1.474  27.372  0.00  0.00    +0.266 C 
BRANCH  25  26
ATOM     26  N   UNL A   1     -24.393   1.477  26.519  0.00  0.00    -0.176 NA
BRANCH  26  27
ATOM     27  C   UNL A   1     -25.688   1.614  26.461  0.00  0.00    +0.145 C 
ATOM     28  C   UNL A   1     -26.250   2.920  26.395  0.00  0.00    +0.071 C 
ATOM     29  C   UNL A   1     -27.438   3.091  25.645  0.00  0.00    +0.103 C 
ATOM     30  N   UNL A   1     -28.075   2.089  25.003  0.00  0.00    -0.212 NA
ATOM     31  C   UNL A   1     -27.543   0.849  25.079  0.00  0.00    +0.236 C 
ATOM     32  C   UNL A   1     -26.354   0.576  25.777  0.00  0.00    +0.256 C 
ATOM     33  F   UNL A   1     -25.860  -0.681  25.795  0.00  0.00    -0.225 F 
BRANCH  28  34
ATOM     34  C   UNL A   1     -25.642   4.093  27.123  0.00  0.00    +0.264 C 
ATOM     35  N   UNL A   1     -25.614   5.252  26.449  0.00  0.00    -0.200 NA
ATOM     36  C   UNL A   1     -25.026   6.479  26.963  0.00  0.00    +0.139 C 
ATOM     37  O   UNL A   1     -25.143   3.966  28.243  0.00  0.00    -0.269 OA
ENDBRANCH  28  34
BRANCH  31  38
ATOM     38  O   UNL A   1     -28.193  -0.208  24.477  0.00  0.00    -0.459 OA
BRANCH  38  39
ATOM     39  C   UNL A   1     -29.460   0.005  23.866  0.00  0.00    +0.242 C 
BRANCH  39  40
ATOM     40  C   UNL A   1     -30.065  -1.377  23.573  0.00  0.00    +0.229 C 
ATOM     41  O   UNL A   1     -30.729  -1.878  24.721  0.00  0.00    -0.216 OA
ENDBRANCH  39  40
ENDBRANCH  38  39
ENDBRANCH  31  38
ENDBRANCH  26  27
ENDBRANCH  25  26
ENDBRANCH   3  25
TORSDOF 12
