MODEL 185
MODEL 1
REMARK VINA RESULT:    -4.908      0.000      0.000
REMARK INTER + INTRA:          -5.390
REMARK INTER:                  -5.195
REMARK INTRA:                  -0.196
REMARK UNBOUND:                -0.196
REMARK  Name = No_185-gen_results/8p0m/2024-11-27-11-27-31/
REMARK  1 active torsions:
REMARK  status: ('A' for Active; 'I' for Inactive)
REMARK    1  A    between atoms: C_3  and  C_7
REMARK                            x       y       z     vdW  Elec       q    Type
REMARK                         _______ _______ _______ _____ _____    ______ ____
ROOT
ATOM      1  C   UNL A   1     -25.988  -3.035  29.641  0.00  0.00    -0.000 A 
ATOM      2  C   UNL A   1     -26.208  -4.061  29.739  0.00  0.00    -0.000 A 
ATOM      3  C   UNL A   1     -24.780  -2.678  29.002  0.00  0.00    -0.000 A 
ATOM      4  C   UNL A   1     -23.898  -3.627  28.525  0.00  0.00    -0.000 A 
ATOM      5  C   UNL A   1     -25.452  -5.258  29.321  0.00  0.00    -0.000 A 
ATOM      6  C   UNL A   1     -24.287  -4.961  28.705  0.00  0.00    -0.000 A 
ENDROOT
BRANCH   3   7
ATOM      7  C   UNL A   1     -24.160  -1.314  28.724  0.00  0.00    -0.005 C 
ATOM      8  C   UNL A   1     -23.273  -0.789  29.324  0.00  0.00    -0.026 C 
ATOM      9  C   UNL A   1     -23.315  -0.997  30.792  0.00  0.00    +0.031 C 
ENDBRANCH   3   7
TORSDOF 1
ENDMDL
ENDMDL
