MODEL 1860
MODEL 1
REMARK VINA RESULT:    -4.770      0.000      0.000
REMARK INTER + INTRA:          -4.770
REMARK INTER:                  -4.770
REMARK INTRA:                   0.000
REMARK UNBOUND:                 0.000
REMARK  Name = No_1860-gen_results/8p0m/2024-11-27-11-27-31/
REMARK  0 active torsions:
REMARK  status: ('A' for Active; 'I' for Inactive)
REMARK                            x       y       z     vdW  Elec       q    Type
REMARK                         _______ _______ _______ _____ _____    ______ ____
ROOT
ATOM      1  C   UNL A   1     -21.779  -0.154  28.849  0.00  0.00    +0.004 C 
ATOM      2  C   UNL A   1     -22.250  -1.122  29.400  0.00  0.00    +0.022 C 
ATOM      3  C   UNL A   1     -23.517  -1.591  29.069  0.00  0.00    -0.049 C 
ATOM      4  C   UNL A   1     -24.085  -2.763  29.633  0.00  0.00    -0.034 C 
ATOM      5  C   UNL A   1     -22.622   0.686  27.994  0.00  0.00    +0.001 C 
ATOM      6  C   UNL A   1     -22.047   1.885  27.367  0.00  0.00    +0.000 C 
ATOM      7  C   UNL A   1     -25.444  -3.237  29.345  0.00  0.00    +0.030 C 
ATOM      8  C   UNL A   1     -23.915   0.266  27.633  0.00  0.00    +0.004 C 
ATOM      9  C   UNL A   1     -24.400  -0.936  28.156  0.00  0.00    +0.022 C 
ENDROOT
TORSDOF 0
ENDMDL
ENDMDL
