REMARK  Name = No_1860-gen_results/8p0m/2024-11-27-11-27-31/
REMARK  0 active torsions:
REMARK  status: ('A' for Active; 'I' for Inactive)
REMARK                            x       y       z     vdW  Elec       q    Type
REMARK                         _______ _______ _______ _____ _____    ______ ____
ROOT
ATOM      1  C   UNL A   1     -28.016  -0.814  28.878  0.00  0.00    +0.004 C 
ATOM      2  C   UNL A   1     -27.064  -0.119  28.608  0.00  0.00    +0.022 C 
ATOM      3  C   UNL A   1     -25.792  -0.430  29.076  0.00  0.00    -0.049 C 
ATOM      4  C   UNL A   1     -24.632   0.310  28.729  0.00  0.00    -0.034 C 
ATOM      5  C   UNL A   1     -27.895  -1.861  29.895  0.00  0.00    +0.001 C 
ATOM      6  C   UNL A   1     -29.073  -2.668  30.245  0.00  0.00    +0.000 C 
ATOM      7  C   UNL A   1     -23.293   0.036  29.263  0.00  0.00    +0.030 C 
ATOM      8  C   UNL A   1     -26.634  -2.213  30.410  0.00  0.00    +0.004 C 
ATOM      9  C   UNL A   1     -25.511  -1.502  29.978  0.00  0.00    +0.022 C 
ENDROOT
TORSDOF 0
