MODEL 1861
MODEL 1
REMARK VINA RESULT:    -3.158      0.000      0.000
REMARK INTER + INTRA:          -3.412
REMARK INTER:                  -3.343
REMARK INTRA:                  -0.069
REMARK UNBOUND:                -0.069
REMARK  Name = No_1861-gen_results/8p0m/2024-11-27-11-27-31/
REMARK  1 active torsions:
REMARK  status: ('A' for Active; 'I' for Inactive)
REMARK    1  A    between atoms: C_3  and  C_4
REMARK                            x       y       z     vdW  Elec       q    Type
REMARK                         _______ _______ _______ _____ _____    ______ ____
ROOT
ATOM      1 CL   UNL A   1     -26.172  -4.859  29.667  0.00  0.00    -0.081 Cl
ATOM      2  C   UNL A   1     -24.991  -5.288  29.143  0.00  0.00    +0.068 C 
ATOM      3  C   UNL A   1     -24.115  -4.402  28.596  0.00  0.00    +0.012 C 
ENDROOT
BRANCH   3   4
ATOM      4  C   UNL A   1     -24.446  -2.972  28.537  0.00  0.00    +0.001 C 
ATOM      5  C   UNL A   1     -23.497  -2.147  29.213  0.00  0.00    +0.000 C 
ENDBRANCH   3   4
TORSDOF 1
ENDMDL
ENDMDL
