MODEL 1862
MODEL 1
REMARK VINA RESULT:    -6.231      0.000      0.000
REMARK INTER + INTRA:          -8.199
REMARK INTER:                  -7.688
REMARK INTRA:                  -0.510
REMARK UNBOUND:                -0.510
REMARK  Name = No_1862-gen_results/8p0m/2024-11-27-11-27-31/
REMARK  4 active torsions:
REMARK  status: ('A' for Active; 'I' for Inactive)
REMARK    1  A    between atoms: C_3  and  C_13
REMARK    2  A    between atoms: C_6  and  O_7
REMARK    3  A    between atoms: O_7  and  C_8
REMARK    4  A    between atoms: C_8  and  C_9
REMARK                            x       y       z     vdW  Elec       q    Type
REMARK                         _______ _______ _______ _____ _____    ______ ____
ROOT
ATOM      1  C   UNL A   1     -24.215  -0.086  27.720  0.00  0.00    +0.037 A 
ATOM      2  C   UNL A   1     -24.666  -1.147  28.087  0.00  0.00    +0.003 A 
ATOM      3  C   UNL A   1     -24.043  -1.884  29.087  0.00  0.00    -0.000 A 
ATOM      4  C   UNL A   1     -22.815  -1.430  29.687  0.00  0.00    +0.003 A 
ATOM      5  C   UNL A   1     -22.351  -0.206  29.187  0.00  0.00    +0.037 A 
ATOM      6  C   UNL A   1     -22.969   0.444  28.228  0.00  0.00    +0.139 A 
ENDROOT
BRANCH   3   7
ATOM      7  C   UNL A   1     -24.668  -3.214  29.414  0.00  0.00    -0.005 C 
ATOM      8  C   UNL A   1     -24.327  -4.269  28.632  0.00  0.00    -0.026 C 
ATOM      9  C   UNL A   1     -24.742  -5.585  29.004  0.00  0.00    +0.031 C 
ENDBRANCH   3   7
BRANCH   6  10
ATOM     10  O   UNL A   1     -22.508   1.549  27.622  0.00  0.00    -0.467 OA
BRANCH  10  11
ATOM     11  C   UNL A   1     -23.412   2.362  26.953  0.00  0.00    +0.308 C 
BRANCH  11  12
ATOM     12  C   UNL A   1     -22.985   2.502  25.532  0.00  0.00    +0.438 C 
ATOM     13  F   UNL A   1     -23.347   3.514  25.109  0.00  0.00    -0.166 F 
ATOM     14  F   UNL A   1     -23.653   1.469  24.885  0.00  0.00    -0.166 F 
ATOM     15  F   UNL A   1     -21.694   2.176  25.302  0.00  0.00    -0.166 F 
ENDBRANCH  11  12
ENDBRANCH  10  11
ENDBRANCH   6  10
TORSDOF 4
ENDMDL
ENDMDL
