REMARK  Name = No_1862-gen_results/8p0m/2024-11-27-11-27-31/
REMARK  4 active torsions:
REMARK  status: ('A' for Active; 'I' for Inactive)
REMARK    1  A    between atoms: C_3  and  C_13
REMARK    2  A    between atoms: C_6  and  O_7
REMARK    3  A    between atoms: O_7  and  C_8
REMARK    4  A    between atoms: C_8  and  C_9
REMARK                            x       y       z     vdW  Elec       q    Type
REMARK                         _______ _______ _______ _____ _____    ______ ____
ROOT
ATOM      1  C   UNL A   1     -28.016  -0.814  28.878  0.00  0.00    +0.037 A 
ATOM      2  C   UNL A   1     -27.064  -0.119  28.608  0.00  0.00    +0.003 A 
ATOM      3  C   UNL A   1     -25.792  -0.430  29.076  0.00  0.00    -0.000 A 
ATOM      4  C   UNL A   1     -25.576  -1.565  29.936  0.00  0.00    +0.003 A 
ATOM      5  C   UNL A   1     -26.735  -2.300  30.217  0.00  0.00    +0.037 A 
ATOM      6  C   UNL A   1     -27.918  -1.954  29.763  0.00  0.00    +0.139 A 
ENDROOT
BRANCH   3   7
ATOM      7  C   UNL A   1     -24.701   0.544  28.720  0.00  0.00    -0.005 C 
ATOM      8  C   UNL A   1     -23.481   0.340  29.276  0.00  0.00    -0.026 C 
ATOM      9  C   UNL A   1     -22.366   1.118  28.834  0.00  0.00    +0.031 C 
ENDBRANCH   3   7
BRANCH   6  10
ATOM     10  O   UNL A   1     -29.077  -2.540  30.100  0.00  0.00    -0.467 OA
BRANCH  10  11
ATOM     11  C   UNL A   1     -29.058  -3.875  30.476  0.00  0.00    +0.308 C 
BRANCH  11  12
ATOM     12  C   UNL A   1     -30.349  -4.511  30.091  0.00  0.00    +0.438 C 
ATOM     13  F   UNL A   1     -31.221  -4.015  30.664  0.00  0.00    -0.166 F 
ATOM     14  F   UNL A   1     -30.208  -5.826  30.520  0.00  0.00    -0.166 F 
ATOM     15  F   UNL A   1     -30.515  -4.677  28.760  0.00  0.00    -0.166 F 
ENDBRANCH  11  12
ENDBRANCH  10  11
ENDBRANCH   6  10
TORSDOF 4
