MODEL 1863
MODEL 1
REMARK VINA RESULT:    -4.265      0.000      0.000
REMARK INTER + INTRA:          -4.265
REMARK INTER:                  -4.265
REMARK INTRA:                   0.000
REMARK UNBOUND:                 0.000
REMARK  Name = No_1863-gen_results/8p0m/2024-11-27-11-27-31/
REMARK  0 active torsions:
REMARK  status: ('A' for Active; 'I' for Inactive)
REMARK                            x       y       z     vdW  Elec       q    Type
REMARK                         _______ _______ _______ _____ _____    ______ ____
ROOT
ATOM      1  C   UNL A   1     -25.145  -5.352  29.115  0.00  0.00    +0.000 A 
ATOM      2  C   UNL A   1     -26.073  -4.717  29.559  0.00  0.00    +0.000 A 
ATOM      3  C   UNL A   1     -26.034  -3.353  29.771  0.00  0.00    +0.000 A 
ATOM      4  C   UNL A   1     -24.847  -2.656  29.410  0.00  0.00    +0.000 A 
ATOM      5  C   UNL A   1     -23.904  -3.380  28.763  0.00  0.00    +0.000 A 
ATOM      6  C   UNL A   1     -24.045  -4.677  28.566  0.00  0.00    +0.000 A 
ENDROOT
TORSDOF 0
ENDMDL
ENDMDL
