MODEL 1864
MODEL 1
REMARK VINA RESULT:    -6.467      0.000      0.000
REMARK INTER + INTRA:          -9.624
REMARK INTER:                  -9.113
REMARK INTRA:                  -0.511
REMARK UNBOUND:                -0.511
REMARK  Name = No_1864-gen_results/8p0m/2024-11-27-11-27-31/
REMARK  7 active torsions:
REMARK  status: ('A' for Active; 'I' for Inactive)
REMARK    1  A    between atoms: C_2  and  C_7
REMARK    2  A    between atoms: C_6  and  O_15
REMARK    3  A    between atoms: C_10  and  C_11
REMARK    4  A    between atoms: O_15  and  C_16
REMARK    5  A    between atoms: C_16  and  C_17
REMARK    6  A    between atoms: C_17  and  N_18
REMARK    7  A    between atoms: N_18  and  C_19
REMARK                            x       y       z     vdW  Elec       q    Type
REMARK                         _______ _______ _______ _____ _____    ______ ____
ROOT
ATOM      1  C   UNL A   1     -25.574  -2.545  29.449  0.00  0.00    +0.040 A 
ATOM      2  C   UNL A   1     -24.432  -2.714  29.091  0.00  0.00    +0.039 A 
ATOM      3  C   UNL A   1     -23.937  -3.990  28.847  0.00  0.00    +0.003 A 
ATOM      4  C   UNL A   1     -24.757  -5.156  29.057  0.00  0.00    +0.003 A 
ATOM      5  C   UNL A   1     -26.057  -4.870  29.494  0.00  0.00    +0.037 A 
ATOM      6  C   UNL A   1     -26.471  -3.645  29.726  0.00  0.00    +0.139 A 
ENDROOT
BRANCH   2   7
ATOM      7  C   UNL A   1     -23.439  -1.632  28.850  0.00  0.00    +0.162 A 
ATOM      8  N   UNL A   1     -22.500  -1.465  29.238  0.00  0.00    -0.225 NA
ATOM      9  N   UNL A   1     -23.926  -0.488  28.002  0.00  0.00    -0.231 NA
ATOM     10  C   UNL A   1     -23.346   0.429  27.761  0.00  0.00    +0.062 A 
ATOM     11  C   UNL A   1     -21.592  -0.415  29.082  0.00  0.00    +0.102 A 
ATOM     12  C   UNL A   1     -21.957   0.660  28.283  0.00  0.00    +0.035 A 
BRANCH  10  13
ATOM     13  C   UNL A   1     -23.863   1.574  26.855  0.00  0.00    +0.046 C 
ATOM     14  C   UNL A   1     -24.437   1.185  25.627  0.00  0.00    +0.007 C 
ENDBRANCH  10  13
ENDBRANCH   2   7
BRANCH   6  15
ATOM     15  O   UNL A   1     -27.739  -3.494  30.195  0.00  0.00    -0.473 OA
BRANCH  15  16
ATOM     16  C   UNL A   1     -28.403  -4.593  30.712  0.00  0.00    +0.229 C 
BRANCH  16  17
ATOM     17  C   UNL A   1     -29.640  -4.715  30.501  0.00  0.00    +0.159 C 
BRANCH  17  18
ATOM     18  N   UNL A   1     -30.181  -4.814  29.417  0.00  0.00    -0.232 NA
BRANCH  18  19
ATOM     19  C   UNL A   1     -30.865  -5.784  29.009  0.00  0.00    +0.080 C 
ATOM     20  C   UNL A   1     -30.986  -6.046  27.566  0.00  0.00    +0.019 C 
ENDBRANCH  18  19
ENDBRANCH  17  18
ENDBRANCH  16  17
ENDBRANCH  15  16
ENDBRANCH   6  15
TORSDOF 7
ENDMDL
ENDMDL
