MODEL 1865
MODEL 1
REMARK VINA RESULT:    -6.011      0.000      0.000
REMARK INTER + INTRA:          -7.057
REMARK INTER:                  -6.713
REMARK INTRA:                  -0.344
REMARK UNBOUND:                -0.344
REMARK  Name = No_1865-gen_results/8p0m/2024-11-27-11-27-31/
REMARK  2 active torsions:
REMARK  status: ('A' for Active; 'I' for Inactive)
REMARK    1  A    between atoms: C_2  and  O_7
REMARK    2  A    between atoms: O_7  and  C_8
REMARK                            x       y       z     vdW  Elec       q    Type
REMARK                         _______ _______ _______ _____ _____    ______ ____
ROOT
ATOM      1  O   UNL A   1     -24.845  -1.215  29.452  0.00  0.00    -0.454 OA
ENDROOT
BRANCH   1   3
ATOM      2  C   UNL A   1     -25.950  -3.034  29.746  0.00  0.00    +0.037 A 
ATOM      3  C   UNL A   1     -25.061  -2.663  29.319  0.00  0.00    +0.145 A 
ATOM      4  C   UNL A   1     -26.166  -4.524  29.606  0.00  0.00    +0.003 A 
ATOM      5  C   UNL A   1     -25.139  -5.324  29.062  0.00  0.00    +0.000 A 
ATOM      6  C   UNL A   1     -23.839  -3.268  28.741  0.00  0.00    +0.037 A 
ATOM      7  C   UNL A   1     -23.998  -4.639  28.601  0.00  0.00    +0.003 A 
ENDBRANCH   1   3
BRANCH   1   8
ATOM      8  C   UNL A   1     -24.561  -0.471  28.385  0.00  0.00    +0.145 A 
ATOM      9  C   UNL A   1     -23.570   0.270  28.463  0.00  0.00    +0.037 A 
ATOM     10  C   UNL A   1     -23.226   1.145  27.345  0.00  0.00    +0.003 A 
ATOM     11  C   UNL A   1     -24.050   1.087  26.196  0.00  0.00    +0.000 A 
ATOM     12  C   UNL A   1     -25.127   0.227  26.200  0.00  0.00    +0.003 A 
ATOM     13  C   UNL A   1     -25.450  -0.544  27.244  0.00  0.00    +0.037 A 
ENDBRANCH   1   8
TORSDOF 2
ENDMDL
ENDMDL
