MODEL 1866
MODEL 1
REMARK VINA RESULT:    -8.148      0.000      0.000
REMARK INTER + INTRA:         -13.706
REMARK INTER:                 -11.959
REMARK INTRA:                  -1.747
REMARK UNBOUND:                -1.747
REMARK  Name = No_1866-gen_results/8p0m/2024-11-27-11-27-31/
REMARK  8 active torsions:
REMARK  status: ('A' for Active; 'I' for Inactive)
REMARK    1  A    between atoms: C_2  and  C_7
REMARK    2  A    between atoms: C_3  and  C_17
REMARK    3  A    between atoms: N_9  and  C_10
REMARK    4  A    between atoms: N_9  and  C_11
REMARK    5  A    between atoms: C_17  and  C_18
REMARK    6  A    between atoms: C_29  and  C_30
REMARK    7  A    between atoms: N_31  and  C_33
REMARK    8  A    between atoms: C_33  and  C_34
REMARK                            x       y       z     vdW  Elec       q    Type
REMARK                         _______ _______ _______ _____ _____    ______ ____
ROOT
ATOM      1  C   UNL A   1     -25.509   0.585  25.650  0.00  0.00    +0.257 C 
ATOM      2  O   UNL A   1     -25.380   0.436  24.582  0.00  0.00    -0.269 OA
ATOM      3  N   UNL A   1     -26.680   1.115  26.200  0.00  0.00    -0.234 N 
ENDROOT
BRANCH   3   4
ATOM      4  C   UNL A   1     -26.920   1.304  27.624  0.00  0.00    +0.058 A 
ATOM      5  C   UNL A   1     -27.531   0.135  28.214  0.00  0.00    +0.015 A 
ATOM      6  C   UNL A   1     -27.644   0.234  29.474  0.00  0.00    -0.003 A 
ATOM      7  C   UNL A   1     -27.277   1.348  30.322  0.00  0.00    -0.022 A 
ATOM      8  C   UNL A   1     -26.732   2.413  29.658  0.00  0.00    -0.003 A 
ATOM      9  C   UNL A   1     -26.487   2.360  28.295  0.00  0.00    +0.015 A 
ATOM     10  C   UNL A   1     -27.491   1.353  31.787  0.00  0.00    +0.031 C 
ENDBRANCH   3   4
BRANCH   1  12
ATOM     11  C   UNL A   1     -24.515  -0.425  27.438  0.00  0.00    +0.001 A 
ATOM     12  C   UNL A   1     -24.389   0.393  26.786  0.00  0.00    +0.054 A 
ATOM     13  C   UNL A   1     -23.454  -0.575  28.505  0.00  0.00    -0.018 A 
ATOM     14  C   UNL A   1     -22.476   0.431  28.654  0.00  0.00    -0.004 A 
ATOM     15  C   UNL A   1     -23.502   1.578  26.742  0.00  0.00    +0.004 A 
ATOM     16  C   UNL A   1     -22.516   1.478  27.714  0.00  0.00    -0.000 A 
BRANCH  13  17
ATOM     17  C   UNL A   1     -23.363  -1.691  29.458  0.00  0.00    +0.053 C 
BRANCH  17  18
ATOM     18  C   UNL A   1     -24.391  -2.705  29.341  0.00  0.00    -0.018 A 
ATOM     19  C   UNL A   1     -23.957  -3.934  28.928  0.00  0.00    -0.004 A 
ATOM     20  C   UNL A   1     -24.937  -5.007  28.990  0.00  0.00    -0.000 A 
ATOM     21  C   UNL A   1     -26.169  -4.832  29.530  0.00  0.00    -0.000 A 
ATOM     22  C   UNL A   1     -25.597  -2.583  30.028  0.00  0.00    -0.004 A 
ATOM     23  C   UNL A   1     -26.472  -3.605  30.111  0.00  0.00    -0.000 A 
ENDBRANCH  17  18
ENDBRANCH  13  17
ENDBRANCH   1  12
BRANCH   3  24
ATOM     24  C   UNL A   1     -27.730   1.494  25.321  0.00  0.00    +0.058 A 
ATOM     25  C   UNL A   1     -28.530   0.602  24.823  0.00  0.00    +0.015 A 
ATOM     26  C   UNL A   1     -29.582   0.898  24.085  0.00  0.00    +0.006 A 
ATOM     27  C   UNL A   1     -27.836   2.837  25.053  0.00  0.00    +0.015 A 
ATOM     28  C   UNL A   1     -28.885   3.249  24.275  0.00  0.00    +0.006 A 
ATOM     29  C   UNL A   1     -29.774   2.279  23.770  0.00  0.00    +0.055 A 
BRANCH  29  30
ATOM     30  C   UNL A   1     -30.880   2.750  22.886  0.00  0.00    +0.265 C 
ATOM     31  N   UNL A   1     -31.136   2.202  21.790  0.00  0.00    -0.197 NA
ATOM     32  O   UNL A   1     -31.617   3.708  23.234  0.00  0.00    -0.268 OA
BRANCH  31  33
ATOM     33  C   UNL A   1     -32.156   2.586  20.859  0.00  0.00    +0.141 C 
BRANCH  33  34
ATOM     34  C   UNL A   1     -33.090   1.770  20.693  0.00  0.00    -0.003 C 
ATOM     35  C   UNL A   1     -33.144   0.499  21.237  0.00  0.00    -0.003 C 
ENDBRANCH  33  34
ENDBRANCH  31  33
ENDBRANCH  29  30
ENDBRANCH   3  24
TORSDOF 8
ENDMDL
ENDMDL
