REMARK  Name = No_1866-gen_results/8p0m/2024-11-27-11-27-31/
REMARK  8 active torsions:
REMARK  status: ('A' for Active; 'I' for Inactive)
REMARK    1  A    between atoms: C_2  and  C_7
REMARK    2  A    between atoms: C_3  and  C_17
REMARK    3  A    between atoms: N_9  and  C_10
REMARK    4  A    between atoms: N_9  and  C_11
REMARK    5  A    between atoms: C_17  and  C_18
REMARK    6  A    between atoms: C_29  and  C_30
REMARK    7  A    between atoms: N_31  and  C_33
REMARK    8  A    between atoms: C_33  and  C_34
REMARK                            x       y       z     vdW  Elec       q    Type
REMARK                         _______ _______ _______ _____ _____    ______ ____
ROOT
ATOM      1  C   UNL A   1     -30.074  -0.836  29.861  0.00  0.00    +0.257 C 
ATOM      2  O   UNL A   1     -30.689  -1.655  30.223  0.00  0.00    -0.269 OA
ATOM      3  N   UNL A   1     -30.614   0.285  29.223  0.00  0.00    -0.234 N 
ENDROOT
BRANCH   3   4
ATOM      4  C   UNL A   1     -29.843   1.426  28.750  0.00  0.00    +0.058 A 
ATOM      5  C   UNL A   1     -30.070   2.592  29.573  0.00  0.00    +0.015 A 
ATOM      6  C   UNL A   1     -29.322   3.564  29.249  0.00  0.00    -0.003 A 
ATOM      7  C   UNL A   1     -28.350   3.629  28.179  0.00  0.00    -0.022 A 
ATOM      8  C   UNL A   1     -28.234   2.480  27.445  0.00  0.00    -0.003 A 
ATOM      9  C   UNL A   1     -28.944   1.338  27.782  0.00  0.00    +0.015 A 
ATOM     10  C   UNL A   1     -27.556   4.843  27.881  0.00  0.00    +0.031 C 
ENDBRANCH   3   4
BRANCH   1  12
ATOM     11  C   UNL A   1     -28.016  -0.814  28.878  0.00  0.00    +0.001 A 
ATOM     12  C   UNL A   1     -28.469  -0.785  29.829  0.00  0.00    +0.054 A 
ATOM     13  C   UNL A   1     -26.504  -0.778  28.877  0.00  0.00    -0.018 A 
ATOM     14  C   UNL A   1     -25.810  -0.853  30.103  0.00  0.00    -0.004 A 
ATOM     15  C   UNL A   1     -27.991  -0.892  31.226  0.00  0.00    +0.004 A 
ATOM     16  C   UNL A   1     -26.604  -0.868  31.265  0.00  0.00    -0.000 A 
BRANCH  13  17
ATOM     17  C   UNL A   1     -25.659  -0.704  27.676  0.00  0.00    +0.053 C 
BRANCH  17  18
ATOM     18  C   UNL A   1     -25.152   0.612  27.342  0.00  0.00    -0.018 A 
ATOM     19  C   UNL A   1     -24.045   1.007  28.039  0.00  0.00    -0.004 A 
ATOM     20  C   UNL A   1     -23.413   2.236  27.584  0.00  0.00    -0.000 A 
ATOM     21  C   UNL A   1     -23.823   2.890  26.469  0.00  0.00    -0.000 A 
ATOM     22  C   UNL A   1     -25.461   1.208  26.121  0.00  0.00    -0.004 A 
ATOM     23  C   UNL A   1     -24.831   2.322  25.698  0.00  0.00    -0.000 A 
ENDBRANCH  17  18
ENDBRANCH  13  17
ENDBRANCH   1  12
BRANCH   3  24
ATOM     24  C   UNL A   1     -32.020   0.338  29.021  0.00  0.00    +0.058 A 
ATOM     25  C   UNL A   1     -32.818   0.634  30.000  0.00  0.00    +0.015 A 
ATOM     26  C   UNL A   1     -34.118   0.799  29.856  0.00  0.00    +0.006 A 
ATOM     27  C   UNL A   1     -32.456   0.067  27.747  0.00  0.00    +0.015 A 
ATOM     28  C   UNL A   1     -33.797   0.188  27.495  0.00  0.00    +0.006 A 
ATOM     29  C   UNL A   1     -34.653   0.550  28.554  0.00  0.00    +0.055 A 
BRANCH  29  30
ATOM     30  C   UNL A   1     -36.115   0.628  28.263  0.00  0.00    +0.265 C 
ATOM     31  N   UNL A   1     -36.923   1.168  29.052  0.00  0.00    -0.197 NA
ATOM     32  O   UNL A   1     -36.582   0.171  27.188  0.00  0.00    -0.268 OA
BRANCH  31  33
ATOM     33  C   UNL A   1     -38.342   1.278  28.881  0.00  0.00    +0.141 C 
BRANCH  33  34
ATOM     34  C   UNL A   1     -39.007   1.520  29.912  0.00  0.00    -0.003 C 
ATOM     35  C   UNL A   1     -38.480   1.934  31.122  0.00  0.00    -0.003 C 
ENDBRANCH  33  34
ENDBRANCH  31  33
ENDBRANCH  29  30
ENDBRANCH   3  24
TORSDOF 8
