MODEL 1867
MODEL 1
REMARK VINA RESULT:    -5.783      0.000      0.000
REMARK INTER + INTRA:          -6.399
REMARK INTER:                  -6.460
REMARK INTRA:                   0.060
REMARK UNBOUND:                 0.060
REMARK  Name = No_1867-gen_results/8p0m/2024-11-27-11-27-31/
REMARK  2 active torsions:
REMARK  status: ('A' for Active; 'I' for Inactive)
REMARK    1  A    between atoms: C_2  and  C_4
REMARK    2  A    between atoms: C_4  and  C_6
REMARK                            x       y       z     vdW  Elec       q    Type
REMARK                         _______ _______ _______ _____ _____    ______ ____
ROOT
ATOM      1  C   UNL A   1      -9.037  -9.544  18.296  0.00  0.00    +0.417 C 
ATOM      2  F   UNL A   1      -8.235  -8.824  17.487  0.00  0.00    -0.188 F 
ATOM      3  F   UNL A   1     -10.252  -8.851  18.150  0.00  0.00    -0.188 F 
ENDROOT
BRANCH   1   5
ATOM      4 CL   UNL A   1      -9.664  -9.271  20.606  0.00  0.00    -0.041 Cl
ATOM      5  C   UNL A   1      -8.581  -9.396  19.790  0.00  0.00    +0.393 C 
ATOM      6  F   UNL A   1      -7.748 -10.322  19.971  0.00  0.00    -0.180 F 
ATOM      7  F   UNL A   1      -7.878  -8.223  19.784  0.00  0.00    -0.180 F 
ENDBRANCH   1   5
BRANCH   1   8
ATOM      8  C   UNL A   1      -9.206 -10.808  17.785  0.00  0.00    +0.462 C 
ATOM      9  F   UNL A   1      -8.613 -11.611  18.227  0.00  0.00    -0.165 F 
ATOM     10  F   UNL A   1     -10.569 -11.170  18.067  0.00  0.00    -0.165 F 
ATOM     11  F   UNL A   1      -9.089 -10.843  16.438  0.00  0.00    -0.165 F 
ENDBRANCH   1   8
TORSDOF 2
ENDMDL
ENDMDL
