MODEL 1868
MODEL 1
REMARK VINA RESULT:    -4.436      0.000      0.000
REMARK INTER + INTRA:          -4.436
REMARK INTER:                  -4.436
REMARK INTRA:                   0.000
REMARK UNBOUND:                 0.000
REMARK  Name = No_1868-gen_results/8p0m/2024-11-27-11-27-31/
REMARK  0 active torsions:
REMARK  status: ('A' for Active; 'I' for Inactive)
REMARK                            x       y       z     vdW  Elec       q    Type
REMARK                         _______ _______ _______ _____ _____    ______ ____
ROOT
ATOM      1  C   UNL A   1      -9.178  -9.230  20.038  0.00  0.00    +0.011 A 
ATOM      2  C   UNL A   1      -8.360  -9.843  19.782  0.00  0.00    +0.058 A 
ATOM      3  C   UNL A   1     -10.316  -9.216  19.043  0.00  0.00    +0.001 A 
ATOM      4  C   UNL A   1     -10.285 -10.101  17.945  0.00  0.00    +0.000 A 
ATOM      5  C   UNL A   1      -8.095 -10.864  18.744  0.00  0.00    +0.011 A 
ATOM      6  C   UNL A   1      -9.124 -10.885  17.813  0.00  0.00    +0.001 A 
ATOM      7 CL   UNL A   1      -6.987  -9.870  20.986  0.00  0.00    -0.082 Cl
ENDROOT
TORSDOF 0
ENDMDL
ENDMDL
