MODEL 1869
MODEL 1
REMARK VINA RESULT:    -4.051      0.000      0.000
REMARK INTER + INTRA:          -4.051
REMARK INTER:                  -4.051
REMARK INTRA:                   0.000
REMARK UNBOUND:                 0.000
REMARK  Name = No_1869-gen_results/8p0m/2024-11-27-11-27-31/
REMARK  0 active torsions:
REMARK  status: ('A' for Active; 'I' for Inactive)
REMARK                            x       y       z     vdW  Elec       q    Type
REMARK                         _______ _______ _______ _____ _____    ______ ____
ROOT
ATOM      1  C   UNL A   1     -26.305  -2.591  30.084  0.00  0.00    +0.012 A 
ATOM      2  C   UNL A   1     -26.234  -3.622  29.876  0.00  0.00    +0.058 A 
ATOM      3  C   UNL A   1     -25.064  -1.781  29.783  0.00  0.00    +0.012 A 
ATOM      4  C   UNL A   1     -23.976  -2.399  29.131  0.00  0.00    +0.058 A 
ATOM      5  C   UNL A   1     -25.257  -4.491  29.183  0.00  0.00    +0.012 A 
ATOM      6  C   UNL A   1     -24.104  -3.778  28.884  0.00  0.00    +0.012 A 
ATOM      7 CL   UNL A   1     -27.743  -4.671  30.129  0.00  0.00    -0.082 Cl
ATOM      8 CL   UNL A   1     -22.634  -1.402  28.968  0.00  0.00    -0.082 Cl
ENDROOT
TORSDOF 0
ENDMDL
ENDMDL
