REMARK  Name = outputs/IAG933/test6/raw/output_1869_IAG933_linker_design_.xyz
REMARK  9 active torsions:
REMARK  status: ('A' for Active; 'I' for Inactive)
REMARK    1  A    between atoms: C_1  and  C_2
REMARK    2  A    between atoms: C_1  and  C_8
REMARK    3  A    between atoms: C_1  and  N_28
REMARK    4  A    between atoms: C_13  and  C_32
REMARK    5  A    between atoms: C_14  and  C_15
REMARK    6  A    between atoms: C_21  and  O_22
REMARK    7  A    between atoms: O_22  and  C_23
REMARK    8  A    between atoms: C_23  and  C_24
REMARK    9  A    between atoms: C_29  and  C_33
REMARK                            x       y       z     vdW  Elec       q    Type
REMARK                         _______ _______ _______ _____ _____    ______ ____
ROOT
ATOM      1  N   UNL A   1     -25.277  -0.067  29.154  0.00  0.00    -0.103 N 
ATOM      2  C   UNL A   1     -22.967   1.528  26.658  0.00  0.00    +0.073 C 
ATOM      3  C   UNL A   1     -24.212   0.501  28.418  0.00  0.00    +0.317 C 
ATOM      4  N   UNL A   1     -23.025   0.158  28.989  0.00  0.00    -0.040 NA
ATOM      5  C   UNL A   1     -24.378   1.266  27.293  0.00  0.00    +0.160 C 
ATOM      6  O   UNL A   1     -27.546  -0.716  28.875  0.00  0.00    -0.198 OA
ATOM      7  C   UNL A   1     -21.717   1.911  27.257  0.00  0.00    +0.007 C 
ATOM      8  C   UNL A   1     -26.646   0.236  29.159  0.00  0.00    +0.542 C 
ATOM      9  C   UNL A   1     -21.590   0.350  28.848  0.00  0.00    +0.235 C 
ATOM     10  C   UNL A   1     -21.002   1.240  28.049  0.00  0.00    +0.050 C 
ATOM     11  O   UNL A   1     -27.020   1.375  29.412  0.00  0.00    -0.198 OA
ENDROOT
BRANCH   5  12
ATOM     12  C   UNL A   1     -25.688   1.614  26.461  0.00  0.00    +0.031 C 
ATOM     13  C   UNL A   1     -26.250   2.920  26.395  0.00  0.00    +0.073 C 
ATOM     14  C   UNL A   1     -27.438   3.091  25.645  0.00  0.00    +0.106 C 
ATOM     15  N   UNL A   1     -28.075   2.089  25.003  0.00  0.00    -0.208 NA
ATOM     16  C   UNL A   1     -27.543   0.849  25.079  0.00  0.00    +0.253 C 
ATOM     17  C   UNL A   1     -26.354   0.576  25.777  0.00  0.00    +0.190 C 
ATOM     18  F   UNL A   1     -25.860  -0.681  25.795  0.00  0.00    -0.200 F 
BRANCH  13  19
ATOM     19  C   UNL A   1     -25.642   4.093  27.123  0.00  0.00    +0.266 C 
ATOM     20  N   UNL A   1     -25.614   5.252  26.449  0.00  0.00    -0.200 NA
ATOM     21  C   UNL A   1     -25.026   6.479  26.963  0.00  0.00    +0.139 C 
ATOM     22  O   UNL A   1     -25.143   3.966  28.243  0.00  0.00    -0.268 OA
ENDBRANCH  13  19
BRANCH  16  23
ATOM     23  O   UNL A   1     -28.193  -0.208  24.477  0.00  0.00    -0.456 OA
BRANCH  23  24
ATOM     24  C   UNL A   1     -29.460   0.005  23.866  0.00  0.00    +0.243 C 
BRANCH  24  25
ATOM     25  C   UNL A   1     -30.065  -1.377  23.573  0.00  0.00    +0.229 C 
ATOM     26  O   UNL A   1     -30.729  -1.878  24.721  0.00  0.00    -0.216 OA
ENDBRANCH  24  25
ENDBRANCH  23  24
ENDBRANCH  16  23
ENDBRANCH   5  12
BRANCH   2  27
ATOM     27  C   UNL A   1     -23.238   1.852  25.263  0.00  0.00    +0.385 C 
ATOM     28  O   UNL A   1     -23.324   3.096  25.018  0.00  0.00    -0.241 OA
ATOM     29  O   UNL A   1     -23.407   0.810  24.537  0.00  0.00    -0.241 OA
ENDBRANCH   2  27
BRANCH   1  30
ATOM     30  C   UNL A   1     -24.855  -1.012  30.143  0.00  0.00    +0.209 C 
BRANCH  30  31
ATOM     31  C   UNL A   1     -24.973  -2.505  29.788  0.00  0.00    +0.022 C 
ATOM     32  C   UNL A   1     -23.906  -3.173  29.146  0.00  0.00    -0.000 C 
ATOM     33  C   UNL A   1     -23.989  -4.549  28.853  0.00  0.00    -0.000 C 
ATOM     34  C   UNL A   1     -25.137  -5.280  29.205  0.00  0.00    -0.000 C 
ATOM     35  C   UNL A   1     -26.232  -4.611  29.784  0.00  0.00    -0.000 C 
ATOM     36  C   UNL A   1     -26.155  -3.232  30.065  0.00  0.00    -0.000 C 
ENDBRANCH  30  31
BRANCH  30  37
ATOM     37  C   UNL A   1     -25.387  -0.679  31.571  0.00  0.00    +0.120 C 
ATOM     38  C   UNL A   1     -25.189   0.773  32.028  0.00  0.00    +0.023 C 
ATOM     39  C   UNL A   1     -25.336   0.684  33.544  0.00  0.00    +0.020 C 
ATOM     40  C   UNL A   1     -24.829  -0.715  33.905  0.00  0.00    +0.089 C 
ATOM     41  N   UNL A   1     -24.758  -1.481  32.646  0.00  0.00    -0.215 NA
ENDBRANCH  30  37
ENDBRANCH   1  30
TORSDOF 9
