MODEL 186
MODEL 1
REMARK VINA RESULT:    -6.538      0.000      0.000
REMARK INTER + INTRA:         -10.716
REMARK INTER:                  -8.831
REMARK INTRA:                  -1.886
REMARK UNBOUND:                -1.886
REMARK  Name = No_186-gen_results/8p0m/2024-11-27-11-27-31/
REMARK  6 active torsions:
REMARK  status: ('A' for Active; 'I' for Inactive)
REMARK    1  A    between atoms: C_3  and  C_8
REMARK    2  A    between atoms: C_6  and  O_7
REMARK    3  A    between atoms: O_7  and  C_14
REMARK    4  A    between atoms: C_14  and  C_15
REMARK    5  A    between atoms: C_15  and  C_16
REMARK    6  A    between atoms: C_16  and  C_17
REMARK                            x       y       z     vdW  Elec       q    Type
REMARK                         _______ _______ _______ _____ _____    ______ ____
ROOT
ATOM      1  C   UNL A   1     -25.585   2.522  26.141  0.00  0.00    +0.037 A 
ATOM      2  C   UNL A   1     -26.657   2.063  25.821  0.00  0.00    +0.003 A 
ATOM      3  C   UNL A   1     -26.747   0.840  25.165  0.00  0.00    +0.000 A 
ATOM      4  C   UNL A   1     -25.563   0.103  24.806  0.00  0.00    +0.003 A 
ATOM      5  C   UNL A   1     -24.365   0.717  25.193  0.00  0.00    +0.037 A 
ATOM      6  C   UNL A   1     -24.333   1.884  25.797  0.00  0.00    +0.139 A 
ENDROOT
BRANCH   3   7
ATOM      7  C   UNL A   1     -28.021   0.160  24.725  0.00  0.00    +0.000 A 
ATOM      8  C   UNL A   1     -29.184   0.331  25.439  0.00  0.00    +0.000 A 
ATOM      9  C   UNL A   1     -30.357  -0.350  25.061  0.00  0.00    +0.000 A 
ATOM     10  C   UNL A   1     -30.183  -1.297  24.033  0.00  0.00    +0.000 A 
ATOM     11  C   UNL A   1     -28.151  -0.853  23.741  0.00  0.00    +0.000 A 
ATOM     12  C   UNL A   1     -29.149  -1.527  23.395  0.00  0.00    +0.000 A 
ENDBRANCH   3   7
BRANCH   6  13
ATOM     13  O   UNL A   1     -23.125   2.430  26.105  0.00  0.00    -0.475 OA
BRANCH  13  14
ATOM     14  C   UNL A   1     -22.255   1.815  26.949  0.00  0.00    +0.206 C 
BRANCH  14  15
ATOM     15  C   UNL A   1     -22.764   1.544  28.237  0.00  0.00    +0.052 C 
BRANCH  15  16
ATOM     16  C   UNL A   1     -22.617   0.343  28.640  0.00  0.00    +0.030 C 
BRANCH  16  17
ATOM     17  C   UNL A   1     -23.463  -0.466  28.760  0.00  0.00    -0.022 A 
ATOM     18  C   UNL A   1     -23.123  -1.868  29.066  0.00  0.00    -0.004 A 
ATOM     19  C   UNL A   1     -24.182  -2.797  29.285  0.00  0.00    -0.000 A 
ATOM     20  C   UNL A   1     -25.544  -2.473  29.095  0.00  0.00    -0.000 A 
ATOM     21  C   UNL A   1     -25.859  -1.128  28.822  0.00  0.00    -0.000 A 
ATOM     22  C   UNL A   1     -24.866  -0.209  28.679  0.00  0.00    -0.004 A 
ENDBRANCH  16  17
ENDBRANCH  15  16
ENDBRANCH  14  15
ENDBRANCH  13  14
ENDBRANCH   6  13
TORSDOF 6
ENDMDL
ENDMDL
