MODEL 1870
MODEL 1
REMARK VINA RESULT:    -3.697      0.000      0.000
REMARK INTER + INTRA:          -4.486
REMARK INTER:                  -4.345
REMARK INTRA:                  -0.141
REMARK UNBOUND:                -0.141
REMARK  Name = No_1870-gen_results/8p0m/2024-11-27-11-27-31/
REMARK  3 active torsions:
REMARK  status: ('A' for Active; 'I' for Inactive)
REMARK    1  A    between atoms: C_2  and  C_3
REMARK    2  A    between atoms: C_4  and  C_5
REMARK    3  A    between atoms: C_5  and  C_6
REMARK                            x       y       z     vdW  Elec       q    Type
REMARK                         _______ _______ _______ _____ _____    ______ ____
ROOT
ATOM      1  C   UNL A   1     -24.834  -2.741  28.552  0.00  0.00    -0.004 C 
ATOM      2  C   UNL A   1     -24.204  -1.454  28.779  0.00  0.00    -0.023 C 
ENDROOT
BRANCH   1   4
ATOM      3  C   UNL A   1     -24.618  -4.999  28.910  0.00  0.00    -0.000 C 
ATOM      4  C   UNL A   1     -24.111  -3.905  28.810  0.00  0.00    -0.000 C 
ENDBRANCH   1   4
BRANCH   2   5
ATOM      5  C   UNL A   1     -22.861  -1.539  29.210  0.00  0.00    +0.064 C 
BRANCH   5   6
ATOM      6  C   UNL A   1     -22.044  -0.517  29.163  0.00  0.00    +0.198 C 
ATOM      7  F   UNL A   1     -20.822  -0.756  28.713  0.00  0.00    -0.234 F 
ENDBRANCH   5   6
ENDBRANCH   2   5
TORSDOF 3
ENDMDL
ENDMDL
