MODEL 1871
MODEL 1
REMARK VINA RESULT:    -4.257      0.000      0.000
REMARK INTER + INTRA:          -4.257
REMARK INTER:                  -4.257
REMARK INTRA:                   0.000
REMARK UNBOUND:                 0.000
REMARK  Name = No_1871-gen_results/8p0m/2024-11-27-11-27-31/
REMARK  0 active torsions:
REMARK  status: ('A' for Active; 'I' for Inactive)
REMARK                            x       y       z     vdW  Elec       q    Type
REMARK                         _______ _______ _______ _____ _____    ______ ____
ROOT
ATOM      1  C   UNL A   1     -25.003  -2.594  29.229  0.00  0.00    +0.000 A 
ATOM      2  C   UNL A   1     -24.241  -3.154  28.766  0.00  0.00    +0.000 A 
ATOM      3  C   UNL A   1     -26.100  -3.412  29.746  0.00  0.00    +0.000 A 
ATOM      4  C   UNL A   1     -26.100  -4.781  29.643  0.00  0.00    +0.000 A 
ATOM      5  C   UNL A   1     -23.977  -4.572  28.521  0.00  0.00    +0.000 A 
ATOM      6  C   UNL A   1     -25.033  -5.373  29.017  0.00  0.00    +0.000 A 
ENDROOT
TORSDOF 0
ENDMDL
ENDMDL
