MODEL 1872
MODEL 1
REMARK VINA RESULT:    -6.644      0.000      0.000
REMARK INTER + INTRA:          -7.371
REMARK INTER:                  -7.032
REMARK INTRA:                  -0.339
REMARK UNBOUND:                -0.339
REMARK  Name = No_1872-gen_results/8p0m/2024-11-27-11-27-31/
REMARK  1 active torsions:
REMARK  status: ('A' for Active; 'I' for Inactive)
REMARK    1  A    between atoms: C_2  and  C_7
REMARK                            x       y       z     vdW  Elec       q    Type
REMARK                         _______ _______ _______ _____ _____    ______ ____
ROOT
ATOM      1  C   UNL A   1     -24.260  -2.640  29.107  0.00  0.00    +0.003 A 
ATOM      2  C   UNL A   1     -23.877  -3.692  28.874  0.00  0.00    +0.000 A 
ATOM      3  C   UNL A   1     -24.669  -4.928  29.040  0.00  0.00    +0.003 A 
ATOM      4  C   UNL A   1     -25.988  -4.840  29.505  0.00  0.00    +0.042 A 
ATOM      5  C   UNL A   1     -26.494  -3.558  29.762  0.00  0.00    +0.196 A 
ATOM      6  C   UNL A   1     -25.691  -2.467  29.586  0.00  0.00    +0.042 A 
ATOM      7  O   UNL A   1     -27.748  -3.476  30.241  0.00  0.00    -0.287 OA
ENDROOT
BRANCH   1   9
ATOM      8  C   UNL A   1     -22.275  -1.106  29.172  0.00  0.00    +0.000 A 
ATOM      9  C   UNL A   1     -23.410  -1.393  28.870  0.00  0.00    +0.000 A 
ATOM     10  C   UNL A   1     -24.177  -0.547  28.077  0.00  0.00    +0.000 A 
ATOM     11  C   UNL A   1     -23.660   0.721  27.629  0.00  0.00    +0.000 A 
ATOM     12  C   UNL A   1     -22.348   0.983  28.044  0.00  0.00    +0.000 A 
ATOM     13  C   UNL A   1     -21.670   0.157  28.808  0.00  0.00    +0.000 A 
ENDBRANCH   1   9
TORSDOF 1
ENDMDL
ENDMDL
