REMARK  Name = outputs/IAG933/test6/raw/output_1872_IAG933_linker_design_.xyz
REMARK  12 active torsions:
REMARK  status: ('A' for Active; 'I' for Inactive)
REMARK    1  A    between atoms: C_1  and  C_2
REMARK    2  A    between atoms: C_1  and  C_8
REMARK    3  A    between atoms: C_1  and  O_28
REMARK    4  A    between atoms: C_13  and  N_38
REMARK    5  A    between atoms: C_14  and  C_15
REMARK    6  A    between atoms: C_21  and  O_22
REMARK    7  A    between atoms: O_22  and  C_23
REMARK    8  A    between atoms: C_23  and  C_24
REMARK    9  A    between atoms: O_28  and  C_40
REMARK   10  A    between atoms: C_29  and  C_40
REMARK   11  A    between atoms: C_31  and  C_33
REMARK   12  A    between atoms: O_36  and  C_39
REMARK                            x       y       z     vdW  Elec       q    Type
REMARK                         _______ _______ _______ _____ _____    ______ ____
ROOT
ATOM      1  C   UNL A   1     -22.048   0.238  28.870  0.00  0.00    +0.069 C 
ATOM      2  C   UNL A   1     -23.153   1.373  26.976  0.00  0.00    +0.101 C 
ATOM      3  C   UNL A   1     -24.024   2.096  24.891  0.00  0.00    +0.062 C 
ATOM      4  C   UNL A   1     -23.270   0.748  28.267  0.00  0.00    +0.092 C 
ATOM      5  C   UNL A   1     -20.629  -0.295  28.451  0.00  0.00    +0.158 C 
ATOM      6  C   UNL A   1     -21.745   2.461  25.341  0.00  0.00    -0.003 C 
ATOM      7  C   UNL A   1     -22.805   2.458  24.469  0.00  0.00    +0.015 C 
ATOM      8  N   UNL A   1     -24.201   1.648  26.158  0.00  0.00    -0.299 N 
ATOM      9  C   UNL A   1     -20.524   1.722  27.178  0.00  0.00    +0.138 C 
ATOM     10  O   UNL A   1     -21.149  -1.052  28.734  0.00  0.00    -0.223 OA
ATOM     11  C   UNL A   1     -19.943   0.369  27.593  0.00  0.00    +0.067 C 
ATOM     12  C   UNL A   1     -21.877   1.783  26.539  0.00  0.00    +0.001 C 
ENDROOT
BRANCH   8  13
ATOM     13  C   UNL A   1     -25.688   1.614  26.461  0.00  0.00    +0.144 C 
ATOM     14  C   UNL A   1     -26.250   2.920  26.395  0.00  0.00    +0.073 C 
ATOM     15  C   UNL A   1     -27.438   3.091  25.645  0.00  0.00    +0.104 C 
ATOM     16  N   UNL A   1     -28.075   2.089  25.003  0.00  0.00    -0.212 NA
ATOM     17  C   UNL A   1     -27.543   0.849  25.079  0.00  0.00    +0.236 C 
ATOM     18  C   UNL A   1     -26.354   0.576  25.777  0.00  0.00    +0.258 C 
ATOM     19  F   UNL A   1     -25.860  -0.681  25.795  0.00  0.00    -0.225 F 
BRANCH  14  20
ATOM     20  C   UNL A   1     -25.642   4.093  27.123  0.00  0.00    +0.264 C 
ATOM     21  N   UNL A   1     -25.614   5.252  26.449  0.00  0.00    -0.200 NA
ATOM     22  C   UNL A   1     -25.026   6.479  26.963  0.00  0.00    +0.139 C 
ATOM     23  O   UNL A   1     -25.143   3.966  28.243  0.00  0.00    -0.269 OA
ENDBRANCH  14  20
BRANCH  17  24
ATOM     24  O   UNL A   1     -28.193  -0.208  24.477  0.00  0.00    -0.459 OA
BRANCH  24  25
ATOM     25  C   UNL A   1     -29.460   0.005  23.866  0.00  0.00    +0.242 C 
BRANCH  25  26
ATOM     26  C   UNL A   1     -30.065  -1.377  23.573  0.00  0.00    +0.229 C 
ATOM     27  O   UNL A   1     -30.729  -1.878  24.721  0.00  0.00    -0.216 OA
ENDBRANCH  25  26
ENDBRANCH  24  25
ENDBRANCH  17  24
ENDBRANCH   8  13
BRANCH   4  28
ATOM     28  C   UNL A   1     -24.040   1.666  29.078  0.00  0.00    +0.209 C 
ATOM     29  O   UNL A   1     -23.434   2.281  29.980  0.00  0.00    -0.288 OA
ENDBRANCH   4  28
BRANCH   9  30
ATOM     30  O   UNL A   1     -19.545   2.325  26.694  0.00  0.00    -0.349 OA
ATOM     31  C   UNL A   1     -18.577   2.593  27.739  0.00  0.00    +0.174 C 
ENDBRANCH   9  30
BRANCH   1  32
ATOM     32  C   UNL A   1     -22.438   0.131  30.199  0.00  0.00    +0.145 C 
BRANCH  32  33
ATOM     33  O   UNL A   1     -23.395  -0.937  30.265  0.00  0.00    -0.350 OA
BRANCH  33  34
ATOM     34  C   UNL A   1     -24.855  -1.012  30.143  0.00  0.00    +0.153 C 
BRANCH  34  35
ATOM     35  C   UNL A   1     -24.973  -2.505  29.788  0.00  0.00    +0.006 C 
ATOM     36  C   UNL A   1     -23.906  -3.173  29.146  0.00  0.00    -0.002 C 
ATOM     37  C   UNL A   1     -23.989  -4.549  28.853  0.00  0.00    -0.000 C 
ATOM     38  C   UNL A   1     -25.137  -5.280  29.205  0.00  0.00    -0.000 C 
ATOM     39  C   UNL A   1     -26.232  -4.611  29.784  0.00  0.00    -0.000 C 
ATOM     40  C   UNL A   1     -26.155  -3.232  30.065  0.00  0.00    -0.002 C 
ENDBRANCH  34  35
BRANCH  34  41
ATOM     41  C   UNL A   1     -25.387  -0.679  31.571  0.00  0.00    +0.104 C 
ATOM     42  C   UNL A   1     -25.189   0.773  32.028  0.00  0.00    +0.022 C 
ATOM     43  C   UNL A   1     -25.336   0.684  33.544  0.00  0.00    +0.020 C 
ATOM     44  C   UNL A   1     -24.829  -0.715  33.905  0.00  0.00    +0.089 C 
ATOM     45  N   UNL A   1     -24.758  -1.481  32.646  0.00  0.00    -0.217 NA
ENDBRANCH  34  41
ENDBRANCH  33  34
ENDBRANCH  32  33
ENDBRANCH   1  32
TORSDOF 12
