MODEL 1873
MODEL 1
REMARK VINA RESULT:    -5.585      0.000      0.000
REMARK INTER + INTRA:          -7.572
REMARK INTER:                  -7.217
REMARK INTRA:                  -0.355
REMARK UNBOUND:                -0.355
REMARK  Name = No_1873-gen_results/8p0m/2024-11-27-11-27-31/
REMARK  5 active torsions:
REMARK  status: ('A' for Active; 'I' for Inactive)
REMARK    1  A    between atoms: C_2  and  C_5
REMARK    2  A    between atoms: C_6  and  C_11
REMARK    3  A    between atoms: C_11  and  O_12
REMARK    4  A    between atoms: O_12  and  C_13
REMARK    5  A    between atoms: C_13  and  C_14
REMARK                            x       y       z     vdW  Elec       q    Type
REMARK                         _______ _______ _______ _____ _____    ______ ____
ROOT
ATOM      1  C   UNL A   1     -22.771   0.579  28.013  0.00  0.00    +0.070 A 
ATOM      2  C   UNL A   1     -23.969   0.269  27.727  0.00  0.00    +0.011 A 
ATOM      3  C   UNL A   1     -24.700   0.992  26.694  0.00  0.00    -0.002 A 
ATOM      4  C   UNL A   1     -24.008   1.925  25.951  0.00  0.00    -0.000 A 
ATOM      5  C   UNL A   1     -22.114   1.503  27.123  0.00  0.00    +0.004 A 
ATOM      6  C   UNL A   1     -22.720   2.189  26.122  0.00  0.00    -0.000 A 
ENDROOT
BRANCH   1   8
ATOM      7  F   UNL A   1     -22.222   0.213  30.100  0.00  0.00    -0.166 F 
ATOM      8  C   UNL A   1     -21.976  -0.175  29.051  0.00  0.00    +0.418 C 
ATOM      9  F   UNL A   1     -20.885   0.181  28.868  0.00  0.00    -0.166 F 
ATOM     10  F   UNL A   1     -22.048  -1.513  28.941  0.00  0.00    -0.166 F 
ENDBRANCH   1   8
BRANCH   2  11
ATOM     11  C   UNL A   1     -24.811  -0.615  28.545  0.00  0.00    +0.169 C 
BRANCH  11  12
ATOM     12  O   UNL A   1     -25.066  -1.792  28.209  0.00  0.00    -0.348 OA
BRANCH  12  13
ATOM     13  C   UNL A   1     -25.146  -2.790  29.230  0.00  0.00    +0.160 C 
BRANCH  13  14
ATOM     14  C   UNL A   1     -24.784  -3.903  28.903  0.00  0.00    +0.127 C 
ATOM     15 CL   UNL A   1     -23.878  -4.563  28.427  0.00  0.00    -0.111 Cl
ENDBRANCH  13  14
ENDBRANCH  12  13
ENDBRANCH  11  12
ENDBRANCH   2  11
TORSDOF 5
ENDMDL
ENDMDL
