REMARK  Name = No_1873-gen_results/8p0m/2024-11-27-11-27-31/
REMARK  5 active torsions:
REMARK  status: ('A' for Active; 'I' for Inactive)
REMARK    1  A    between atoms: C_2  and  C_5
REMARK    2  A    between atoms: C_6  and  C_11
REMARK    3  A    between atoms: C_11  and  O_12
REMARK    4  A    between atoms: O_12  and  C_13
REMARK    5  A    between atoms: C_13  and  C_14
REMARK                            x       y       z     vdW  Elec       q    Type
REMARK                         _______ _______ _______ _____ _____    ______ ____
ROOT
ATOM      1  C   UNL A   1     -26.114  -0.861  29.427  0.00  0.00    +0.070 A 
ATOM      2  C   UNL A   1     -26.083  -1.052  30.682  0.00  0.00    +0.011 A 
ATOM      3  C   UNL A   1     -24.857  -1.483  31.341  0.00  0.00    -0.002 A 
ATOM      4  C   UNL A   1     -23.707  -1.542  30.582  0.00  0.00    -0.000 A 
ATOM      5  C   UNL A   1     -24.846  -0.865  28.743  0.00  0.00    +0.004 A 
ATOM      6  C   UNL A   1     -23.660  -1.223  29.296  0.00  0.00    -0.000 A 
ENDROOT
BRANCH   1   8
ATOM      7  F   UNL A   1     -28.073  -1.254  28.532  0.00  0.00    -0.166 F 
ATOM      8  C   UNL A   1     -27.359  -0.379  28.722  0.00  0.00    +0.418 C 
ATOM      9  F   UNL A   1     -26.976  -0.093  27.662  0.00  0.00    -0.166 F 
ATOM     10  F   UNL A   1     -27.949   0.682  29.300  0.00  0.00    -0.166 F 
ENDBRANCH   1   8
BRANCH   2  11
ATOM     11  C   UNL A   1     -27.278  -1.132  31.535  0.00  0.00    +0.169 C 
BRANCH  11  12
ATOM     12  O   UNL A   1     -28.333  -0.519  31.264  0.00  0.00    -0.348 OA
BRANCH  12  13
ATOM     13  C   UNL A   1     -29.507  -0.813  32.026  0.00  0.00    +0.160 C 
BRANCH  13  14
ATOM     14  C   UNL A   1     -30.560  -0.501  31.506  0.00  0.00    +0.127 C 
ATOM     15 CL   UNL A   1     -31.695  -0.860  31.247  0.00  0.00    -0.111 Cl
ENDBRANCH  13  14
ENDBRANCH  12  13
ENDBRANCH  11  12
ENDBRANCH   2  11
TORSDOF 5
