MODEL 1874
MODEL 1
REMARK VINA RESULT:    -7.610      0.000      0.000
REMARK INTER + INTRA:         -14.439
REMARK INTER:                 -12.059
REMARK INTRA:                  -2.380
REMARK UNBOUND:                -2.380
REMARK  Name = No_1874-gen_results/8p0m/2024-11-27-11-27-31/
REMARK  10 active torsions:
REMARK  status: ('A' for Active; 'I' for Inactive)
REMARK    1  A    between atoms: C_1  and  C_26
REMARK    2  A    between atoms: C_3  and  C_11
REMARK    3  A    between atoms: C_5  and  C_7
REMARK    4  A    between atoms: N_8  and  C_10
REMARK    5  A    between atoms: C_12  and  C_17
REMARK    6  A    between atoms: C_26  and  O_28
REMARK    7  A    between atoms: O_28  and  C_29
REMARK    8  A    between atoms: C_29  and  C_30
REMARK    9  A    between atoms: C_30  and  C_31
REMARK   10  A    between atoms: C_31  and  C_32
REMARK                            x       y       z     vdW  Elec       q    Type
REMARK                         _______ _______ _______ _____ _____    ______ ____
ROOT
ATOM      1  C   UNL A   1     -24.373   0.828  30.588  0.00  0.00    +0.076 A 
ATOM      2  C   UNL A   1     -24.540  -0.366  30.499  0.00  0.00    +0.006 A 
ATOM      3  C   UNL A   1     -24.247  -1.131  29.383  0.00  0.00    +0.001 A 
ATOM      4  C   UNL A   1     -23.677  -0.455  28.264  0.00  0.00    +0.004 A 
ATOM      5  C   UNL A   1     -23.355   0.836  28.445  0.00  0.00    +0.054 A 
ATOM      6  C   UNL A   1     -23.628   1.466  29.551  0.00  0.00    +0.011 A 
ENDROOT
BRANCH   3   7
ATOM      7  C   UNL A   1     -24.670  -2.591  29.270  0.00  0.00    +0.006 A 
ATOM      8  C   UNL A   1     -26.064  -2.837  29.638  0.00  0.00    +0.080 A 
ATOM      9  C   UNL A   1     -26.381  -4.208  29.679  0.00  0.00    +0.007 A 
ATOM     10  C   UNL A   1     -23.890  -3.603  28.904  0.00  0.00    +0.000 A 
ATOM     11  C   UNL A   1     -24.206  -4.911  28.810  0.00  0.00    +0.000 A 
ATOM     12  C   UNL A   1     -25.499  -5.285  29.216  0.00  0.00    +0.000 A 
BRANCH   8  13
ATOM     13  C   UNL A   1     -27.026  -1.908  30.111  0.00  0.00    +0.388 C 
ATOM     14  O   UNL A   1     -27.278  -1.943  31.254  0.00  0.00    -0.241 OA
ATOM     15  O   UNL A   1     -27.587  -1.233  29.261  0.00  0.00    -0.241 OA
ENDBRANCH   8  13
ENDBRANCH   3   7
BRANCH   5  16
ATOM     16  C   UNL A   1     -22.733   1.494  27.269  0.00  0.00    +0.253 C 
ATOM     17  N   UNL A   1     -23.329   1.900  26.388  0.00  0.00    -0.253 N 
ATOM     18  O   UNL A   1     -21.489   1.883  27.472  0.00  0.00    -0.270 OA
ATOM     19  C   UNL A   1     -22.715   2.505  25.173  0.00  0.00    +0.120 C 
BRANCH  17  20
ATOM     20  C   UNL A   1     -24.767   1.564  26.069  0.00  0.00    +0.054 A 
ATOM     21  C   UNL A   1     -25.729   1.820  26.449  0.00  0.00    +0.015 A 
ATOM     22  C   UNL A   1     -26.761   1.557  26.498  0.00  0.00    +0.001 A 
ATOM     23  C   UNL A   1     -27.213   0.489  25.499  0.00  0.00    +0.000 A 
ATOM     24  C   UNL A   1     -26.115  -0.019  24.769  0.00  0.00    +0.001 A 
ATOM     25  C   UNL A   1     -24.872   0.394  25.104  0.00  0.00    +0.015 A 
ENDBRANCH  17  20
ENDBRANCH   5  16
BRANCH   1  26
ATOM     26  C   UNL A   1     -24.566   1.610  31.868  0.00  0.00    +0.341 C 
ATOM     27  O   UNL A   1     -25.050   1.399  32.802  0.00  0.00    -0.245 OA
BRANCH  26  28
ATOM     28  O   UNL A   1     -24.168   2.915  31.572  0.00  0.00    -0.449 OA
BRANCH  28  29
ATOM     29  C   UNL A   1     -25.193   3.866  31.699  0.00  0.00    +0.170 C 
ATOM     30  C   UNL A   1     -25.207   4.738  32.844  0.00  0.00    +0.047 C 
BRANCH  29  31
ATOM     31  C   UNL A   1     -26.270   3.838  30.763  0.00  0.00    +0.048 C 
BRANCH  31  32
ATOM     32  C   UNL A   1     -25.952   4.466  29.559  0.00  0.00    +0.029 C 
BRANCH  32  33
ATOM     33  C   UNL A   1     -26.640   4.733  28.544  0.00  0.00    -0.031 C 
ATOM     34  C   UNL A   1     -26.196   5.675  27.506  0.00  0.00    -0.030 C 
ATOM     35  C   UNL A   1     -24.884   5.290  26.912  0.00  0.00    +0.030 C 
ENDBRANCH  32  33
ENDBRANCH  31  32
ENDBRANCH  29  31
ENDBRANCH  28  29
ENDBRANCH  26  28
ENDBRANCH   1  26
TORSDOF 10
ENDMDL
ENDMDL
