MODEL 1875
MODEL 1
REMARK VINA RESULT:    -7.615      0.000      0.000
REMARK INTER + INTRA:         -12.304
REMARK INTER:                 -10.286
REMARK INTRA:                  -2.017
REMARK UNBOUND:                -2.017
REMARK  Name = No_1875-gen_results/8p0m/2024-11-27-11-27-31/
REMARK  6 active torsions:
REMARK  status: ('A' for Active; 'I' for Inactive)
REMARK    1  A    between atoms: C_1  and  C_2
REMARK    2  A    between atoms: C_4  and  C_14
REMARK    3  A    between atoms: C_5  and  C_11
REMARK    4  A    between atoms: C_14  and  C_15
REMARK    5  A    between atoms: C_15  and  C_16
REMARK    6  A    between atoms: C_20  and  C_22
REMARK                            x       y       z     vdW  Elec       q    Type
REMARK                         _______ _______ _______ _____ _____    ______ ____
ROOT
ATOM      1  C   UNL A   1     -10.229   1.186  37.323  0.00  0.00    +0.031 C 
ENDROOT
BRANCH   1   4
ATOM      2  C   UNL A   1     -12.831   1.729  34.590  0.00  0.00    +0.071 A 
ATOM      3  C   UNL A   1     -11.713   1.336  35.252  0.00  0.00    -0.000 A 
ATOM      4  C   UNL A   1     -11.427   1.640  36.672  0.00  0.00    -0.015 A 
ATOM      5  C   UNL A   1     -12.398   2.424  37.376  0.00  0.00    +0.076 A 
ATOM      6  C   UNL A   1     -13.512   2.875  36.632  0.00  0.00    +0.006 A 
ATOM      7  C   UNL A   1     -13.712   2.552  35.315  0.00  0.00    +0.004 A 
BRANCH   2   8
ATOM      8  C   UNL A   1     -13.052   1.475  33.428  0.00  0.00    +0.419 C 
ATOM      9  F   UNL A   1     -13.670   2.355  32.804  0.00  0.00    -0.166 F 
ATOM     10  F   UNL A   1     -11.917   1.101  32.743  0.00  0.00    -0.166 F 
ATOM     11  F   UNL A   1     -13.796   0.259  33.303  0.00  0.00    -0.166 F 
ENDBRANCH   2   8
BRANCH   5  12
ATOM     12  C   UNL A   1     -12.225   2.813  38.727  0.00  0.00    +0.387 C 
ATOM     13  O   UNL A   1     -11.733   3.780  39.149  0.00  0.00    -0.241 OA
ATOM     14  O   UNL A   1     -12.868   1.988  39.587  0.00  0.00    -0.241 OA
ENDBRANCH   5  12
ENDBRANCH   1   4
BRANCH   1  15
ATOM     15  C   UNL A   1      -9.961  -0.315  37.259  0.00  0.00    +0.031 C 
BRANCH  15  16
ATOM     16  C   UNL A   1     -10.653  -0.970  38.023  0.00  0.00    -0.022 A 
ATOM     17  C   UNL A   1     -11.442  -2.101  37.504  0.00  0.00    -0.004 A 
ATOM     18  C   UNL A   1     -12.221  -2.928  38.300  0.00  0.00    -0.000 A 
ATOM     19  C   UNL A   1     -12.258  -2.624  39.691  0.00  0.00    -0.000 A 
ATOM     20  C   UNL A   1     -11.559  -1.575  40.255  0.00  0.00    -0.001 A 
ATOM     21  C   UNL A   1     -10.740  -0.777  39.401  0.00  0.00    -0.004 A 
BRANCH  20  22
ATOM     22  C   UNL A   1     -11.616  -1.290  41.716  0.00  0.00    -0.004 A 
ATOM     23  C   UNL A   1     -10.633  -1.974  42.563  0.00  0.00    -0.022 A 
ATOM     24  C   UNL A   1     -12.486  -0.338  42.287  0.00  0.00    -0.000 A 
ATOM     25  C   UNL A   1     -12.452  -0.068  43.646  0.00  0.00    -0.000 A 
ATOM     26  C   UNL A   1      -9.774  -2.941  42.008  0.00  0.00    +0.031 C 
ATOM     27  C   UNL A   1     -11.506  -0.810  44.464  0.00  0.00    -0.000 A 
ATOM     28  C   UNL A   1     -10.705  -1.680  43.898  0.00  0.00    -0.004 A 
ENDBRANCH  20  22
ENDBRANCH  15  16
ENDBRANCH   1  15
TORSDOF 6
ENDMDL
ENDMDL
