MODEL 1876
MODEL 1
REMARK VINA RESULT:    -6.590      0.000      0.000
REMARK INTER + INTRA:          -8.335
REMARK INTER:                  -8.131
REMARK INTRA:                  -0.204
REMARK UNBOUND:                -0.204
REMARK  Name = No_1876-gen_results/8p0m/2024-11-27-11-27-31/
REMARK  4 active torsions:
REMARK  status: ('A' for Active; 'I' for Inactive)
REMARK    1  A    between atoms: C_1  and  C_2
REMARK    2  A    between atoms: C_1  and  C_8
REMARK    3  A    between atoms: C_5  and  C_14
REMARK    4  A    between atoms: C_14  and  C_16
REMARK                            x       y       z     vdW  Elec       q    Type
REMARK                         _______ _______ _______ _____ _____    ______ ____
ROOT
ATOM      1  C   UNL A   1     -23.540  -0.638  29.156  0.00  0.00    -0.018 A 
ATOM      2  C   UNL A   1     -24.491  -0.472  28.168  0.00  0.00    -0.004 A 
ATOM      3  C   UNL A   1     -24.257   0.369  27.082  0.00  0.00    +0.001 A 
ATOM      4  C   UNL A   1     -23.125   1.284  27.041  0.00  0.00    +0.017 A 
ATOM      5  C   UNL A   1     -22.624   1.500  27.926  0.00  0.00    +0.001 A 
ATOM      6  C   UNL A   1     -22.440   0.370  29.111  0.00  0.00    -0.004 A 
ENDROOT
BRANCH   4   7
ATOM      7  C   UNL A   1     -23.238   2.349  25.945  0.00  0.00    +0.100 C 
ATOM      8  N   UNL A   1     -22.540   2.424  24.857  0.00  0.00    -0.151 NA
BRANCH   7   9
ATOM      9  C   UNL A   1     -24.237   3.402  26.149  0.00  0.00    +0.157 C 
ATOM     10  N   UNL A   1     -25.431   3.319  25.685  0.00  0.00    -0.124 NA
ENDBRANCH   7   9
ENDBRANCH   4   7
BRANCH   1  11
ATOM     11  C   UNL A   1     -23.444  -1.636  29.831  0.00  0.00    +0.053 C 
BRANCH  11  12
ATOM     12  C   UNL A   1     -24.414  -2.696  29.436  0.00  0.00    -0.018 A 
ATOM     13  C   UNL A   1     -25.701  -2.580  30.013  0.00  0.00    -0.004 A 
ATOM     14  C   UNL A   1     -26.492  -3.695  30.077  0.00  0.00    -0.000 A 
ATOM     15  C   UNL A   1     -26.081  -4.867  29.394  0.00  0.00    -0.000 A 
ATOM     16  C   UNL A   1     -24.829  -4.922  28.846  0.00  0.00    -0.000 A 
ATOM     17  C   UNL A   1     -23.931  -3.871  28.942  0.00  0.00    -0.004 A 
ENDBRANCH  11  12
ENDBRANCH   1  11
TORSDOF 4
ENDMDL
ENDMDL
