MODEL 1877
MODEL 1
REMARK VINA RESULT:    -8.052      0.000      0.000
REMARK INTER + INTRA:         -12.788
REMARK INTER:                 -11.817
REMARK INTRA:                  -0.971
REMARK UNBOUND:                -0.971
REMARK  Name = No_1877-gen_results/8p0m/2024-11-27-11-27-31/
REMARK  8 active torsions:
REMARK  status: ('A' for Active; 'I' for Inactive)
REMARK    1  A    between atoms: C_3  and  C_5
REMARK    2  A    between atoms: C_5  and  O_13
REMARK    3  A    between atoms: O_13  and  C_15
REMARK    4  A    between atoms: C_15  and  C_16
REMARK    5  A    between atoms: C_21  and  O_22
REMARK    6  A    between atoms: O_22  and  C_23
REMARK    7  A    between atoms: C_23  and  C_24
REMARK    8  A    between atoms: C_24  and  C_25
REMARK                            x       y       z     vdW  Elec       q    Type
REMARK                         _______ _______ _______ _____ _____    ______ ____
ROOT
ATOM      1  C   UNL A   1     -24.323   2.215  27.769  0.00  0.00    +0.238 C 
ENDROOT
BRANCH   1   2
ATOM      2  C   UNL A   1     -23.026   1.653  28.221  0.00  0.00    +0.055 A 
ATOM      3  C   UNL A   1     -21.997   1.673  27.776  0.00  0.00    +0.002 A 
ATOM      4  C   UNL A   1     -21.160   1.140  27.584  0.00  0.00    -0.000 A 
ATOM      5  C   UNL A   1     -20.838  -0.091  28.483  0.00  0.00    +0.003 A 
ATOM      6  C   UNL A   1     -22.010  -0.347  29.227  0.00  0.00    +0.037 A 
ATOM      7  C   UNL A   1     -23.101   0.395  29.050  0.00  0.00    +0.138 A 
BRANCH   7   8
ATOM      8  O   UNL A   1     -24.206   0.114  29.760  0.00  0.00    -0.476 OA
BRANCH   8   9
ATOM      9  C   UNL A   1     -25.293  -0.481  29.284  0.00  0.00    +0.208 C 
BRANCH   9  10
ATOM     10  C   UNL A   1     -24.929  -1.606  28.504  0.00  0.00    +0.077 C 
BRANCH  10  11
ATOM     11  C   UNL A   1     -24.758  -2.798  29.314  0.00  0.00    +0.124 C 
ATOM     12  C   UNL A   1     -23.845  -3.621  28.777  0.00  0.00    +0.055 C 
ATOM     13  C   UNL A   1     -24.281  -4.917  28.712  0.00  0.00    -0.026 C 
ATOM     14  C   UNL A   1     -25.435  -5.238  29.184  0.00  0.00    +0.001 C 
ATOM     15  C   UNL A   1     -26.336  -4.317  29.708  0.00  0.00    +0.168 C 
ATOM     16  O   UNL A   1     -26.136  -3.243  29.491  0.00  0.00    -0.351 OA
ENDBRANCH  10  11
ENDBRANCH   9  10
ENDBRANCH   8   9
ENDBRANCH   7   8
ENDBRANCH   1   2
BRANCH   1  17
ATOM     17  O   UNL A   1     -24.425   2.259  26.452  0.00  0.00    -0.443 OA
BRANCH  17  18
ATOM     18  C   UNL A   1     -25.161   1.350  25.719  0.00  0.00    +0.326 C 
ATOM     19  O   UNL A   1     -24.601   0.391  25.527  0.00  0.00    -0.250 OA
BRANCH  18  22
ATOM     20  O   UNL A   1     -26.789   3.638  25.912  0.00  0.00    -0.273 OA
ATOM     21  C   UNL A   1     -27.140   2.529  25.495  0.00  0.00    +0.252 C 
ATOM     22  C   UNL A   1     -26.386   1.497  25.399  0.00  0.00    +0.177 C 
ATOM     23  N   UNL A   1     -28.439   2.351  24.867  0.00  0.00    -0.202 NA
ATOM     24  C   UNL A   1     -28.984   1.175  24.412  0.00  0.00    +0.117 C 
ATOM     25  C   UNL A   1     -30.223   1.034  23.883  0.00  0.00    -0.013 C 
ATOM     26  C   UNL A   1     -28.204  -0.024  24.340  0.00  0.00    +0.029 C 
ATOM     27  C   UNL A   1     -26.872   0.112  24.859  0.00  0.00    +0.023 C 
ATOM     28  C   UNL A   1     -30.563  -0.289  23.542  0.00  0.00    -0.046 C 
ATOM     29  C   UNL A   1     -28.973  -1.059  23.872  0.00  0.00    +0.024 C 
ATOM     30  C   UNL A   1     -31.480  -1.158  23.052  0.00  0.00    +0.026 C 
ENDBRANCH  18  22
ENDBRANCH  17  18
ENDBRANCH   1  17
TORSDOF 8
ENDMDL
ENDMDL
