MODEL 1878
MODEL 1
REMARK VINA RESULT:    -4.184      0.000      0.000
REMARK INTER + INTRA:          -4.184
REMARK INTER:                  -4.184
REMARK INTRA:                   0.000
REMARK UNBOUND:                 0.000
REMARK  Name = No_1878-gen_results/8p0m/2024-11-27-11-27-31/
REMARK  0 active torsions:
REMARK  status: ('A' for Active; 'I' for Inactive)
REMARK                            x       y       z     vdW  Elec       q    Type
REMARK                         _______ _______ _______ _____ _____    ______ ____
ROOT
ATOM      1  F   UNL A   1     -27.259  -4.910  29.814  0.00  0.00    -0.204 F 
ATOM      2  C   UNL A   1     -26.278  -4.166  29.692  0.00  0.00    +0.140 A 
ATOM      3  C   UNL A   1     -26.348  -2.889  30.107  0.00  0.00    +0.030 A 
ATOM      4  C   UNL A   1     -25.033  -4.703  29.088  0.00  0.00    +0.030 A 
ATOM      5  C   UNL A   1     -23.936  -3.816  28.846  0.00  0.00    +0.014 A 
ATOM      6  C   UNL A   1     -25.194  -1.997  29.867  0.00  0.00    +0.014 A 
ATOM      7  C   UNL A   1     -24.024  -2.457  29.255  0.00  0.00    +0.058 A 
ATOM      8 CL   UNL A   1     -22.709  -1.428  28.960  0.00  0.00    -0.082 Cl
ENDROOT
TORSDOF 0
ENDMDL
ENDMDL
