MODEL 1879
MODEL 1
REMARK VINA RESULT:    -6.089      0.000      0.000
REMARK INTER + INTRA:          -8.398
REMARK INTER:                  -7.512
REMARK INTRA:                  -0.885
REMARK UNBOUND:                -0.885
REMARK  Name = No_1879-gen_results/8p0m/2024-11-27-11-27-31/
REMARK  4 active torsions:
REMARK  status: ('A' for Active; 'I' for Inactive)
REMARK    1  A    between atoms: C_2  and  O_15
REMARK    2  A    between atoms: C_3  and  C_8
REMARK    3  A    between atoms: O_15  and  C_16
REMARK    4  A    between atoms: C_17  and  C_18
REMARK                            x       y       z     vdW  Elec       q    Type
REMARK                         _______ _______ _______ _____ _____    ______ ____
ROOT
ATOM      1  C   UNL A   1     -23.166   1.404  27.293  0.00  0.00    +0.049 A 
ATOM      2  C   UNL A   1     -23.572   0.422  27.869  0.00  0.00    +0.146 A 
ATOM      3  C   UNL A   1     -24.498  -0.407  27.480  0.00  0.00    +0.036 A 
ATOM      4  C   UNL A   1     -25.145  -0.154  26.233  0.00  0.00    +0.004 A 
ATOM      5  C   UNL A   1     -23.694   1.662  25.967  0.00  0.00    +0.061 A 
ATOM      6  C   UNL A   1     -24.660   0.871  25.500  0.00  0.00    +0.012 A 
ATOM      7 CL   UNL A   1     -23.034   2.982  25.112  0.00  0.00    -0.082 Cl
ENDROOT
BRANCH   3   8
ATOM      8  C   UNL A   1     -24.986  -1.581  28.344  0.00  0.00    +0.025 A 
ATOM      9  C   UNL A   1     -24.550  -2.569  28.495  0.00  0.00    +0.045 A 
ATOM     10  C   UNL A   1     -25.105  -3.711  29.258  0.00  0.00    +0.215 A 
ATOM     11  C   UNL A   1     -26.287  -1.294  29.082  0.00  0.00    +0.099 A 
ATOM     12  N   UNL A   1     -26.687  -2.233  30.015  0.00  0.00    -0.239 NA
ATOM     13  C   UNL A   1     -26.146  -3.433  30.054  0.00  0.00    +0.141 A 
ATOM     14  O   UNL A   1     -24.469  -4.921  29.393  0.00  0.00    -0.285 OA
ENDBRANCH   3   8
BRANCH   2  15
ATOM     15  O   UNL A   1     -23.027   0.122  29.167  0.00  0.00    -0.450 OA
BRANCH  15  16
ATOM     16  C   UNL A   1     -23.355   0.989  30.200  0.00  0.00    +0.179 C 
ATOM     17  C   UNL A   1     -23.664   0.417  31.489  0.00  0.00    +0.041 C 
BRANCH  17  18
ATOM     18  C   UNL A   1     -23.988  -0.480  31.865  0.00  0.00    +0.003 C 
ATOM     19  C   UNL A   1     -23.685  -1.253  33.107  0.00  0.00    +0.000 C 
ENDBRANCH  17  18
ENDBRANCH  15  16
ENDBRANCH   2  15
TORSDOF 4
ENDMDL
ENDMDL
