MODEL 187
MODEL 1
REMARK VINA RESULT:    -5.552      0.000      0.000
REMARK INTER + INTRA:          -6.373
REMARK INTER:                  -6.201
REMARK INTRA:                  -0.171
REMARK UNBOUND:                -0.171
REMARK  Name = No_187-gen_results/8p0m/2024-11-27-11-27-31/
REMARK  2 active torsions:
REMARK  status: ('A' for Active; 'I' for Inactive)
REMARK    1  A    between atoms: C_5  and  C_8
REMARK    2  A    between atoms: C_8  and  C_9
REMARK                            x       y       z     vdW  Elec       q    Type
REMARK                         _______ _______ _______ _____ _____    ______ ____
ROOT
ATOM      1  C   UNL A   1     -22.139   1.159  27.853  0.00  0.00    +0.058 A 
ATOM      2 CL   UNL A   1     -21.423   1.867  27.380  0.00  0.00    -0.082 Cl
ATOM      3  C   UNL A   1     -21.628   0.042  28.707  0.00  0.00    +0.011 A 
ATOM      4  C   UNL A   1     -22.338  -1.102  29.123  0.00  0.00    -0.003 A 
ATOM      5  C   UNL A   1     -23.744  -1.177  28.824  0.00  0.00    -0.018 A 
ATOM      6  C   UNL A   1     -24.247  -0.147  28.088  0.00  0.00    -0.003 A 
ATOM      7  C   UNL A   1     -23.555   0.840  27.639  0.00  0.00    +0.011 A 
ENDROOT
BRANCH   5   8
ATOM      8  C   UNL A   1     -24.441  -2.341  29.391  0.00  0.00    +0.052 C 
BRANCH   8   9
ATOM      9  C   UNL A   1     -24.261  -3.707  28.881  0.00  0.00    -0.026 C 
ATOM     10  C   UNL A   1     -25.204  -4.626  29.210  0.00  0.00    -0.030 C 
ATOM     11  C   UNL A   1     -24.780  -5.948  28.951  0.00  0.00    +0.030 C 
ENDBRANCH   8   9
ENDBRANCH   5   8
TORSDOF 2
ENDMDL
ENDMDL
