REMARK  Name = outputs/IAG933/test6/raw/output_1880_IAG933_linker_design_.xyz
REMARK  9 active torsions:
REMARK  status: ('A' for Active; 'I' for Inactive)
REMARK    1  A    between atoms: C_1  and  C_2
REMARK    2  A    between atoms: C_1  and  C_8
REMARK    3  A    between atoms: C_1  and  N_33
REMARK    4  A    between atoms: C_13  and  C_38
REMARK    5  A    between atoms: C_14  and  C_15
REMARK    6  A    between atoms: C_21  and  O_22
REMARK    7  A    between atoms: O_22  and  C_23
REMARK    8  A    between atoms: C_23  and  C_24
REMARK    9  A    between atoms: C_28  and  C_35
REMARK                            x       y       z     vdW  Elec       q    Type
REMARK                         _______ _______ _______ _____ _____    ______ ____
ROOT
ATOM      1  C   UNL A   1     -25.151   0.605  28.576  0.00  0.00    +0.184 C 
ATOM      2  C   UNL A   1     -21.299   1.306  27.659  0.00  0.00    +0.269 C 
ATOM      3  C   UNL A   1     -22.627   0.845  27.805  0.00  0.00    +0.117 C 
ATOM      4  C   UNL A   1     -20.794  -0.339  29.081  0.00  0.00    +0.346 C 
ATOM      5  N   UNL A   1     -24.339  -0.129  29.264  0.00  0.00    -0.191 N 
ATOM      6  F   UNL A   1     -21.041   2.317  26.855  0.00  0.00    -0.212 F 
ATOM      7  N   UNL A   1     -22.012  -0.662  29.499  0.00  0.00    -0.016 NA
ATOM      8  C   UNL A   1     -23.487   1.290  26.868  0.00  0.00    +0.064 C 
ATOM      9  C   UNL A   1     -24.772   1.196  27.262  0.00  0.00    +0.033 C 
ATOM     10  N   UNL A   1     -20.386   0.755  28.360  0.00  0.00    -0.133 NA
ATOM     11  C   UNL A   1     -23.021   0.008  28.865  0.00  0.00    +0.312 C 
ATOM     12 CL   UNL A   1     -23.143   1.815  25.266  0.00  0.00    -0.082 Cl
ENDROOT
BRANCH   9  13
ATOM     13  C   UNL A   1     -25.688   1.614  26.461  0.00  0.00    +0.039 C 
ATOM     14  C   UNL A   1     -26.250   2.920  26.395  0.00  0.00    +0.076 C 
ATOM     15  C   UNL A   1     -27.438   3.091  25.645  0.00  0.00    +0.107 C 
ATOM     16  N   UNL A   1     -28.075   2.089  25.003  0.00  0.00    -0.208 NA
ATOM     17  C   UNL A   1     -27.543   0.849  25.079  0.00  0.00    +0.253 C 
ATOM     18  C   UNL A   1     -26.354   0.576  25.777  0.00  0.00    +0.193 C 
ATOM     19  F   UNL A   1     -25.860  -0.681  25.795  0.00  0.00    -0.199 F 
BRANCH  14  20
ATOM     20  C   UNL A   1     -25.642   4.093  27.123  0.00  0.00    +0.266 C 
ATOM     21  N   UNL A   1     -25.614   5.252  26.449  0.00  0.00    -0.200 NA
ATOM     22  C   UNL A   1     -25.026   6.479  26.963  0.00  0.00    +0.139 C 
ATOM     23  O   UNL A   1     -25.143   3.966  28.243  0.00  0.00    -0.268 OA
ENDBRANCH  14  20
BRANCH  17  24
ATOM     24  O   UNL A   1     -28.193  -0.208  24.477  0.00  0.00    -0.456 OA
BRANCH  24  25
ATOM     25  C   UNL A   1     -29.460   0.005  23.866  0.00  0.00    +0.243 C 
BRANCH  25  26
ATOM     26  C   UNL A   1     -30.065  -1.377  23.573  0.00  0.00    +0.229 C 
ATOM     27  O   UNL A   1     -30.729  -1.878  24.721  0.00  0.00    -0.216 OA
ENDBRANCH  25  26
ENDBRANCH  24  25
ENDBRANCH  17  24
ENDBRANCH   9  13
BRANCH   1  29
ATOM     28  C   UNL A   1     -27.228   1.883  29.325  0.00  0.00    +0.005 C 
ATOM     29  C   UNL A   1     -26.394   0.747  29.112  0.00  0.00    +0.051 C 
ENDBRANCH   1  29
BRANCH   5  30
ATOM     30  C   UNL A   1     -24.855  -1.012  30.143  0.00  0.00    +0.198 C 
BRANCH  30  31
ATOM     31  C   UNL A   1     -24.973  -2.505  29.788  0.00  0.00    +0.021 C 
ATOM     32  C   UNL A   1     -23.906  -3.173  29.146  0.00  0.00    -0.000 C 
ATOM     33  C   UNL A   1     -23.989  -4.549  28.853  0.00  0.00    -0.000 C 
ATOM     34  C   UNL A   1     -25.137  -5.280  29.205  0.00  0.00    -0.000 C 
ATOM     35  C   UNL A   1     -26.232  -4.611  29.784  0.00  0.00    -0.000 C 
ATOM     36  C   UNL A   1     -26.155  -3.232  30.065  0.00  0.00    -0.000 C 
ENDBRANCH  30  31
BRANCH  30  37
ATOM     37  C   UNL A   1     -25.387  -0.679  31.571  0.00  0.00    +0.120 C 
ATOM     38  C   UNL A   1     -25.189   0.773  32.028  0.00  0.00    +0.023 C 
ATOM     39  C   UNL A   1     -25.336   0.684  33.544  0.00  0.00    +0.020 C 
ATOM     40  C   UNL A   1     -24.829  -0.715  33.905  0.00  0.00    +0.089 C 
ATOM     41  N   UNL A   1     -24.758  -1.481  32.646  0.00  0.00    -0.215 NA
ENDBRANCH  30  37
ENDBRANCH   5  30
TORSDOF 9
