MODEL 1880
MODEL 1
REMARK VINA RESULT:    -8.283      0.000      0.000
REMARK INTER + INTRA:         -10.374
REMARK INTER:                  -9.736
REMARK INTRA:                  -0.638
REMARK UNBOUND:                -0.638
REMARK  Name = No_1880-gen_results/8p0m/2024-11-27-11-27-31/
REMARK  3 active torsions:
REMARK  status: ('A' for Active; 'I' for Inactive)
REMARK    1  A    between atoms: C_1  and  C_2
REMARK    2  A    between atoms: C_5  and  C_14
REMARK    3  A    between atoms: C_12  and  C_19
REMARK                            x       y       z     vdW  Elec       q    Type
REMARK                         _______ _______ _______ _____ _____    ______ ____
ROOT
ATOM      1  C   UNL A   1     -24.153   1.111  26.601  0.00  0.00    +0.249 C 
ATOM      2  N   UNL A   1     -24.340   0.693  27.889  0.00  0.00    -0.276 N 
ATOM      3  C   UNL A   1     -24.425   1.496  28.899  0.00  0.00    +0.094 C 
ATOM      4  C   UNL A   1     -24.529   0.901  30.181  0.00  0.00    +0.022 C 
ATOM      5  C   UNL A   1     -24.336  -0.680  28.057  0.00  0.00    +0.098 C 
ATOM      6  C   UNL A   1     -24.468  -1.158  29.071  0.00  0.00    +0.042 C 
ATOM      7  C   UNL A   1     -24.573  -0.436  30.285  0.00  0.00    +0.008 C 
ATOM      8  O   UNL A   1     -23.076   1.729  26.369  0.00  0.00    -0.270 OA
ENDROOT
BRANCH   1   9
ATOM      9  C   UNL A   1     -25.152   1.264  25.937  0.00  0.00    +0.054 A 
ATOM     10  C   UNL A   1     -25.915   2.415  25.958  0.00  0.00    +0.004 A 
ATOM     11  C   UNL A   1     -27.160   2.618  25.241  0.00  0.00    +0.004 A 
ATOM     12  C   UNL A   1     -27.658   1.572  24.433  0.00  0.00    +0.071 A 
ATOM     13  C   UNL A   1     -26.879   0.360  24.414  0.00  0.00    +0.004 A 
ATOM     14  C   UNL A   1     -25.720   0.177  25.132  0.00  0.00    +0.004 A 
BRANCH  12  15
ATOM     15  C   UNL A   1     -28.864   1.674  23.686  0.00  0.00    +0.419 C 
ATOM     16  F   UNL A   1     -28.835   2.589  22.841  0.00  0.00    -0.166 F 
ATOM     17  F   UNL A   1     -29.133   0.455  22.971  0.00  0.00    -0.166 F 
ATOM     18  F   UNL A   1     -29.915   1.912  24.472  0.00  0.00    -0.166 F 
ENDBRANCH  12  15
ENDBRANCH   1   9
BRANCH   6  19
ATOM     19  C   UNL A   1     -24.669  -2.643  29.085  0.00  0.00    -0.021 A 
ATOM     20  C   UNL A   1     -23.890  -3.430  28.638  0.00  0.00    -0.004 A 
ATOM     21  C   UNL A   1     -25.896  -3.105  29.681  0.00  0.00    -0.004 A 
ATOM     22  C   UNL A   1     -24.111  -4.857  28.619  0.00  0.00    -0.000 A 
ATOM     23  C   UNL A   1     -26.166  -4.486  29.716  0.00  0.00    -0.000 A 
ATOM     24  C   UNL A   1     -25.253  -5.356  29.209  0.00  0.00    -0.000 A 
ENDBRANCH   6  19
TORSDOF 3
ENDMDL
ENDMDL
