MODEL 1881
MODEL 1
REMARK VINA RESULT:    -7.619      0.000      0.000
REMARK INTER + INTRA:          -8.477
REMARK INTER:                  -8.064
REMARK INTRA:                  -0.413
REMARK UNBOUND:                -0.413
REMARK  Name = No_1881-gen_results/8p0m/2024-11-27-11-27-31/
REMARK  1 active torsions:
REMARK  status: ('A' for Active; 'I' for Inactive)
REMARK    1  A    between atoms: C_2  and  C_7
REMARK                            x       y       z     vdW  Elec       q    Type
REMARK                         _______ _______ _______ _____ _____    ______ ____
ROOT
ATOM      1  C   UNL A   1     -24.080  -1.108  29.106  0.00  0.00    +0.081 A 
ATOM      2  N   UNL A   1     -22.905  -0.823  29.550  0.00  0.00    -0.244 NA
ATOM      3  C   UNL A   1     -24.238  -0.508  27.783  0.00  0.00    +0.018 A 
ATOM      4  C   UNL A   1     -25.320  -0.697  27.034  0.00  0.00    +0.002 A 
ATOM      5  C   UNL A   1     -22.359   0.342  29.138  0.00  0.00    +0.099 A 
ATOM      6  C   UNL A   1     -23.454   0.668  27.497  0.00  0.00    +0.003 A 
ATOM      7  C   UNL A   1     -22.466   1.091  28.254  0.00  0.00    +0.021 A 
ATOM      8  C   UNL A   1     -25.671   0.197  26.038  0.00  0.00    +0.000 A 
ATOM      9  C   UNL A   1     -24.855   1.176  25.663  0.00  0.00    +0.000 A 
ATOM     10  C   UNL A   1     -23.844   1.487  26.356  0.00  0.00    +0.000 A 
ENDROOT
BRANCH   1  12
ATOM     11  C   UNL A   1     -23.866  -3.359  28.799  0.00  0.00    +0.002 A 
ATOM     12  C   UNL A   1     -24.577  -2.478  29.225  0.00  0.00    +0.018 A 
ATOM     13  C   UNL A   1     -25.832  -2.761  29.753  0.00  0.00    +0.002 A 
ATOM     14  C   UNL A   1     -26.344  -4.107  29.767  0.00  0.00    +0.000 A 
ATOM     15  C   UNL A   1     -25.467  -5.060  29.234  0.00  0.00    +0.000 A 
ATOM     16  C   UNL A   1     -24.296  -4.738  28.731  0.00  0.00    +0.000 A 
ENDBRANCH   1  12
TORSDOF 1
ENDMDL
ENDMDL
