MODEL 1882
MODEL 1
REMARK VINA RESULT:    -6.897      0.000      0.000
REMARK INTER + INTRA:          -8.185
REMARK INTER:                  -7.704
REMARK INTRA:                  -0.481
REMARK UNBOUND:                -0.481
REMARK  Name = No_1882-gen_results/8p0m/2024-11-27-11-27-31/
REMARK  2 active torsions:
REMARK  status: ('A' for Active; 'I' for Inactive)
REMARK    1  A    between atoms: C_2  and  C_7
REMARK    2  A    between atoms: C_7  and  C_8
REMARK                            x       y       z     vdW  Elec       q    Type
REMARK                         _______ _______ _______ _____ _____    ______ ____
ROOT
ATOM      1  C   UNL A   1     -23.686  -1.375  29.871  0.00  0.00    +0.055 C 
ENDROOT
BRANCH   1   3
ATOM      2  C   UNL A   1     -24.416  -0.374  27.813  0.00  0.00    -0.003 A 
ATOM      3  C   UNL A   1     -23.586  -0.417  28.691  0.00  0.00    -0.018 A 
ATOM      4  C   UNL A   1     -22.491   0.383  28.739  0.00  0.00    -0.003 A 
ATOM      5  C   UNL A   1     -22.304   1.323  27.707  0.00  0.00    +0.011 A 
ATOM      6  C   UNL A   1     -24.339   0.626  26.778  0.00  0.00    +0.011 A 
ATOM      7  C   UNL A   1     -23.242   1.435  26.765  0.00  0.00    +0.058 A 
ATOM      8 CL   UNL A   1     -23.115   2.594  25.461  0.00  0.00    -0.082 Cl
ENDBRANCH   1   3
BRANCH   1   9
ATOM      9  C   UNL A   1     -24.463  -2.596  29.674  0.00  0.00    +0.010 A 
ATOM     10  C   UNL A   1     -25.588  -2.919  29.987  0.00  0.00    +0.137 A 
ATOM     11  C   UNL A   1     -26.191  -4.207  29.770  0.00  0.00    +0.029 A 
ATOM     12  C   UNL A   1     -25.468  -5.087  28.969  0.00  0.00    +0.002 A 
ATOM     13  C   UNL A   1     -23.832  -3.775  28.908  0.00  0.00    -0.002 A 
ATOM     14  C   UNL A   1     -24.246  -4.897  28.630  0.00  0.00    -0.000 A 
ATOM     15  F   UNL A   1     -26.541  -2.155  30.589  0.00  0.00    -0.204 F 
ENDBRANCH   1   9
TORSDOF 2
ENDMDL
ENDMDL
