MODEL 1883
MODEL 1
REMARK VINA RESULT:    -6.742      0.000      0.000
REMARK INTER + INTRA:          -7.473
REMARK INTER:                  -7.136
REMARK INTRA:                  -0.337
REMARK UNBOUND:                -0.337
REMARK  Name = No_1883-gen_results/8p0m/2024-11-27-11-27-31/
REMARK  1 active torsions:
REMARK  status: ('A' for Active; 'I' for Inactive)
REMARK    1  A    between atoms: C_3  and  C_8
REMARK                            x       y       z     vdW  Elec       q    Type
REMARK                         _______ _______ _______ _____ _____    ______ ____
ROOT
ATOM      1  C   UNL A   1     -23.538   0.784  27.394  0.00  0.00    +0.030 A 
ATOM      2  C   UNL A   1     -24.233  -0.185  27.593  0.00  0.00    +0.002 A 
ATOM      3  C   UNL A   1     -23.828  -1.194  28.460  0.00  0.00    +0.000 A 
ATOM      4  C   UNL A   1     -22.545  -1.138  29.114  0.00  0.00    +0.002 A 
ATOM      5  C   UNL A   1     -21.796   0.006  28.809  0.00  0.00    +0.030 A 
ATOM      6  C   UNL A   1     -22.218   0.923  27.968  0.00  0.00    +0.140 A 
ATOM      7  F   UNL A   1     -21.454   1.973  27.730  0.00  0.00    -0.204 F 
ENDROOT
BRANCH   3   8
ATOM      8  C   UNL A   1     -24.610  -2.443  28.786  0.00  0.00    +0.000 A 
ATOM      9  C   UNL A   1     -25.788  -2.359  29.397  0.00  0.00    +0.000 A 
ATOM     10  C   UNL A   1     -26.435  -3.504  29.865  0.00  0.00    +0.000 A 
ATOM     11  C   UNL A   1     -25.860  -4.814  29.695  0.00  0.00    +0.000 A 
ATOM     12  C   UNL A   1     -23.987  -3.732  28.698  0.00  0.00    +0.000 A 
ATOM     13  C   UNL A   1     -24.680  -4.909  29.108  0.00  0.00    +0.000 A 
ENDBRANCH   3   8
TORSDOF 1
ENDMDL
ENDMDL
