MODEL 1885
MODEL 1
REMARK VINA RESULT:    -7.708      0.000      0.000
REMARK INTER + INTRA:         -10.807
REMARK INTER:                  -9.961
REMARK INTRA:                  -0.846
REMARK UNBOUND:                -0.846
REMARK  Name = No_1885-gen_results/8p0m/2024-11-27-11-27-31/
REMARK  5 active torsions:
REMARK  status: ('A' for Active; 'I' for Inactive)
REMARK    1  A    between atoms: C_3  and  C_4
REMARK    2  A    between atoms: C_10  and  C_13
REMARK    3  A    between atoms: N_15  and  C_17
REMARK    4  A    between atoms: C_18  and  C_19
REMARK    5  A    between atoms: C_19  and  C_20
REMARK                            x       y       z     vdW  Elec       q    Type
REMARK                         _______ _______ _______ _____ _____    ______ ____
ROOT
ATOM      1  C   UNL A   1     -25.127   0.021  25.287  0.00  0.00    +0.004 A 
ATOM      2  C   UNL A   1     -26.193  -0.063  24.724  0.00  0.00    +0.000 A 
ATOM      3  C   UNL A   1     -27.100   0.992  24.628  0.00  0.00    +0.000 A 
ATOM      4  C   UNL A   1     -25.042   0.603  26.441  0.00  0.00    +0.054 A 
ATOM      5  C   UNL A   1     -25.823   1.850  26.605  0.00  0.00    +0.004 A 
ATOM      6  C   UNL A   1     -26.936   2.034  25.719  0.00  0.00    +0.000 A 
ENDROOT
BRANCH   3   7
ATOM      7  C   UNL A   1     -28.422   0.976  23.973  0.00  0.00    +0.000 A 
ATOM      8  C   UNL A   1     -28.925   2.246  23.558  0.00  0.00    +0.000 A 
ATOM      9  C   UNL A   1     -30.186   2.314  22.966  0.00  0.00    +0.000 A 
ATOM     10  C   UNL A   1     -30.977   1.136  22.948  0.00  0.00    +0.000 A 
ATOM     11  C   UNL A   1     -30.506  -0.074  23.362  0.00  0.00    +0.000 A 
ATOM     12  C   UNL A   1     -29.205  -0.158  23.944  0.00  0.00    +0.000 A 
ENDBRANCH   3   7
BRANCH   4  13
ATOM     13  C   UNL A   1     -23.633   0.926  27.040  0.00  0.00    +0.253 C 
ATOM     14  O   UNL A   1     -22.867   1.674  26.769  0.00  0.00    -0.270 OA
ATOM     15  N   UNL A   1     -23.412   0.086  28.146  0.00  0.00    -0.253 N 
ATOM     16  C   UNL A   1     -22.172   0.185  28.907  0.00  0.00    +0.120 C 
BRANCH  15  17
ATOM     17  C   UNL A   1     -24.407  -0.863  28.634  0.00  0.00    +0.064 C 
ATOM     18  C   UNL A   1     -24.010  -2.209  28.497  0.00  0.00    -0.005 C 
BRANCH  18  19
ATOM     19  C   UNL A   1     -24.151  -3.013  29.113  0.00  0.00    +0.053 C 
BRANCH  19  20
ATOM     20  C   UNL A   1     -24.093  -4.498  28.768  0.00  0.00    -0.026 C 
ATOM     21  C   UNL A   1     -25.175  -5.208  29.161  0.00  0.00    -0.030 C 
ATOM     22  C   UNL A   1     -26.234  -4.549  29.694  0.00  0.00    +0.030 C 
ENDBRANCH  19  20
ENDBRANCH  18  19
ENDBRANCH  15  17
ENDBRANCH   4  13
TORSDOF 5
ENDMDL
ENDMDL
