MODEL 1886
MODEL 1
REMARK VINA RESULT:    -6.042      0.000      0.000
REMARK INTER + INTRA:          -8.860
REMARK INTER:                  -7.808
REMARK INTRA:                  -1.052
REMARK UNBOUND:                -1.052
REMARK  Name = No_1886-gen_results/8p0m/2024-11-27-11-27-31/
REMARK  5 active torsions:
REMARK  status: ('A' for Active; 'I' for Inactive)
REMARK    1  A    between atoms: C_2  and  C_7
REMARK    2  A    between atoms: C_7  and  O_8
REMARK    3  A    between atoms: O_8  and  C_12
REMARK    4  A    between atoms: C_12  and  C_13
REMARK    5  A    between atoms: C_14  and  C_15
REMARK                            x       y       z     vdW  Elec       q    Type
REMARK                         _______ _______ _______ _____ _____    ______ ____
ROOT
ATOM      1  C   UNL A   1     -22.729  -0.852  28.993  0.00  0.00    +0.342 C 
ATOM      2  O   UNL A   1     -21.585  -1.289  29.033  0.00  0.00    -0.245 OA
ENDROOT
BRANCH   1   4
ATOM      3  C   UNL A   1     -23.752  -2.891  28.955  0.00  0.00    +0.020 A 
ATOM      4  C   UNL A   1     -23.915  -1.899  29.272  0.00  0.00    +0.077 A 
ATOM      5  C   UNL A   1     -24.889  -3.852  29.218  0.00  0.00    +0.085 A 
ATOM      6  C   UNL A   1     -26.112  -3.356  29.719  0.00  0.00    +0.151 A 
ATOM      7  C   UNL A   1     -25.077  -1.132  29.775  0.00  0.00    +0.009 A 
ATOM      8  C   UNL A   1     -26.146  -1.982  30.023  0.00  0.00    +0.031 A 
ATOM      9 CL   UNL A   1     -24.849  -5.518  28.892  0.00  0.00    -0.080 Cl
ATOM     10  F   UNL A   1     -27.109  -4.130  29.998  0.00  0.00    -0.203 F 
ENDBRANCH   1   4
BRANCH   1  11
ATOM     11  O   UNL A   1     -23.040   0.386  28.855  0.00  0.00    -0.440 OA
BRANCH  11  12
ATOM     12  C   UNL A   1     -22.789   1.107  27.782  0.00  0.00    +0.235 C 
BRANCH  12  13
ATOM     13  C   UNL A   1     -23.053   1.986  27.344  0.00  0.00    +0.021 C 
ATOM     14  C   UNL A   1     -24.194   1.861  26.343  0.00  0.00    -0.001 C 
BRANCH  14  15
ATOM     15  C   UNL A   1     -24.310   0.754  25.659  0.00  0.00    -0.005 C 
ATOM     16  C   UNL A   1     -25.539  -0.107  25.828  0.00  0.00    -0.026 C 
ATOM     17  C   UNL A   1     -26.525   0.418  26.667  0.00  0.00    +0.031 C 
ENDBRANCH  14  15
ENDBRANCH  12  13
ENDBRANCH  11  12
ENDBRANCH   1  11
TORSDOF 5
ENDMDL
ENDMDL
