REMARK  Name = No_1887-gen_results/8p0m/2024-11-27-11-27-31/
REMARK  1 active torsions:
REMARK  status: ('A' for Active; 'I' for Inactive)
REMARK    1  A    between atoms: C_1  and  C_2
REMARK                            x       y       z     vdW  Elec       q    Type
REMARK                         _______ _______ _______ _____ _____    ______ ____
ROOT
ATOM      1  C   UNL A   1     -27.064  -0.119  28.608  0.00  0.00    +0.072 A 
ATOM      2  C   UNL A   1     -27.001   0.691  27.491  0.00  0.00    +0.004 A 
ATOM      3  C   UNL A   1     -25.855   1.482  27.083  0.00  0.00    +0.007 A 
ATOM      4  C   UNL A   1     -24.901   1.389  27.592  0.00  0.00    +0.045 A 
ATOM      5  C   UNL A   1     -24.678   0.576  28.830  0.00  0.00    +0.064 A 
ATOM      6  C   UNL A   1     -25.770  -0.205  29.280  0.00  0.00    +0.016 A 
ATOM      7 BR   UNL A   1     -23.259   2.385  27.198  0.00  0.00    -0.048 Br
ATOM      8 CL   UNL A   1     -23.160   0.503  29.674  0.00  0.00    -0.082 Cl
ENDROOT
BRANCH   1   9
ATOM      9  C   UNL A   1     -28.016  -0.814  28.878  0.00  0.00    +0.419 C 
ATOM     10  F   UNL A   1     -29.076  -0.715  28.305  0.00  0.00    -0.166 F 
ATOM     11  F   UNL A   1     -28.286  -0.655  30.314  0.00  0.00    -0.166 F 
ATOM     12  F   UNL A   1     -27.767  -2.145  29.240  0.00  0.00    -0.166 F 
ENDBRANCH   1   9
TORSDOF 1
