MODEL 1887
MODEL 1
REMARK VINA RESULT:    -5.101      0.000      0.000
REMARK INTER + INTRA:          -5.523
REMARK INTER:                  -5.399
REMARK INTRA:                  -0.123
REMARK UNBOUND:                -0.123
REMARK  Name = No_1887-gen_results/8p0m/2024-11-27-11-27-31/
REMARK  1 active torsions:
REMARK  status: ('A' for Active; 'I' for Inactive)
REMARK    1  A    between atoms: C_1  and  C_2
REMARK                            x       y       z     vdW  Elec       q    Type
REMARK                         _______ _______ _______ _____ _____    ______ ____
ROOT
ATOM      1  C   UNL A   1     -24.120  -1.365  28.680  0.00  0.00    +0.072 A 
ATOM      2  C   UNL A   1     -25.054  -0.957  27.748  0.00  0.00    +0.004 A 
ATOM      3  C   UNL A   1     -24.949   0.220  26.905  0.00  0.00    +0.007 A 
ATOM      4  C   UNL A   1     -24.038   0.809  26.877  0.00  0.00    +0.045 A 
ATOM      5  C   UNL A   1     -22.860   0.589  27.775  0.00  0.00    +0.064 A 
ATOM      6  C   UNL A   1     -22.916  -0.539  28.629  0.00  0.00    +0.016 A 
ATOM      7 BR   UNL A   1     -23.722   2.431  25.823  0.00  0.00    -0.048 Br
ATOM      8 CL   UNL A   1     -21.440   1.593  27.765  0.00  0.00    -0.082 Cl
ENDROOT
BRANCH   1   9
ATOM      9  C   UNL A   1     -24.213  -2.389  29.317  0.00  0.00    +0.419 C 
ATOM     10  F   UNL A   1     -23.885  -2.464  30.478  0.00  0.00    -0.166 F 
ATOM     11  F   UNL A   1     -23.472  -3.430  28.592  0.00  0.00    -0.166 F 
ATOM     12  F   UNL A   1     -25.311  -3.219  29.055  0.00  0.00    -0.166 F 
ENDBRANCH   1   9
TORSDOF 1
ENDMDL
ENDMDL
