MODEL 1888
MODEL 1
REMARK VINA RESULT:    -4.527      0.000      0.000
REMARK INTER + INTRA:          -4.527
REMARK INTER:                  -4.527
REMARK INTRA:                   0.000
REMARK UNBOUND:                 0.000
REMARK  Name = No_1888-gen_results/8p0m/2024-11-27-11-27-31/
REMARK  0 active torsions:
REMARK  status: ('A' for Active; 'I' for Inactive)
REMARK                            x       y       z     vdW  Elec       q    Type
REMARK                         _______ _______ _______ _____ _____    ______ ____
ROOT
ATOM      1  C   UNL A   1     -24.011  -4.397  28.662  0.00  0.00    +0.030 A 
ATOM      2  C   UNL A   1     -24.900  -4.921  28.877  0.00  0.00    +0.140 A 
ATOM      3  C   UNL A   1     -24.024  -2.925  29.006  0.00  0.00    +0.002 A 
ATOM      4  C   UNL A   1     -25.128  -2.388  29.703  0.00  0.00    +0.000 A 
ATOM      5  C   UNL A   1     -26.149  -4.617  29.611  0.00  0.00    +0.030 A 
ATOM      6  C   UNL A   1     -26.195  -3.272  29.950  0.00  0.00    +0.002 A 
ATOM      7  F   UNL A   1     -24.877  -6.336  28.556  0.00  0.00    -0.204 F 
ENDROOT
TORSDOF 0
ENDMDL
ENDMDL
