REMARK  Name = outputs/IAG933/test6/raw/output_1889_IAG933_linker_design_.xyz
REMARK  16 active torsions:
REMARK  status: ('A' for Active; 'I' for Inactive)
REMARK    1  A    between atoms: C_1  and  C_2
REMARK    2  A    between atoms: C_1  and  C_8
REMARK    3  A    between atoms: C_1  and  C_39
REMARK    4  A    between atoms: C_13  and  C_32
REMARK    5  A    between atoms: C_14  and  C_15
REMARK    6  A    between atoms: C_21  and  O_22
REMARK    7  A    between atoms: O_22  and  C_23
REMARK    8  A    between atoms: C_23  and  C_24
REMARK    9  A    between atoms: C_28  and  C_37
REMARK   10  A    between atoms: C_29  and  C_31
REMARK   11  A    between atoms: C_29  and  C_40
REMARK   12  A    between atoms: C_31  and  C_44
REMARK   13  A    between atoms: C_32  and  O_36
REMARK   14  A    between atoms: C_32  and  C_42
REMARK   15  A    between atoms: C_37  and  C_42
REMARK   16  A    between atoms: C_39  and  C_44
REMARK                            x       y       z     vdW  Elec       q    Type
REMARK                         _______ _______ _______ _____ _____    ______ ____
ROOT
ATOM      1  C   UNL A   1     -25.343  -0.218  28.913  0.00  0.00    -0.005 C 
ATOM      2  C   UNL A   1     -23.454   1.085  27.789  0.00  0.00    +0.061 C 
ATOM      3  C   UNL A   1     -24.151   0.292  28.188  0.00  0.00    -0.113 C 
ENDROOT
BRANCH   2   5
ATOM      4  F   UNL A   1     -20.966   2.227  27.660  0.00  0.00    -0.222 F 
ATOM      5  C   UNL A   1     -21.998   1.332  28.056  0.00  0.00    +0.267 C 
BRANCH   5   6
ATOM      6  C   UNL A   1     -21.483   0.202  28.629  0.00  0.00    +0.298 C 
ATOM      7  N   UNL A   1     -20.369  -0.073  28.448  0.00  0.00    -0.085 NA
ATOM      8  O   UNL A   1     -21.968  -0.508  29.407  0.00  0.00    -0.268 OA
ENDBRANCH   5   6
ENDBRANCH   2   5
BRANCH   1   9
ATOM      9  C   UNL A   1     -24.855  -1.012  30.143  0.00  0.00    +0.064 C 
BRANCH   9  10
ATOM     10  C   UNL A   1     -24.973  -2.505  29.788  0.00  0.00    -0.017 C 
ATOM     11  C   UNL A   1     -23.906  -3.173  29.146  0.00  0.00    -0.004 C 
ATOM     12  C   UNL A   1     -23.989  -4.549  28.853  0.00  0.00    -0.000 C 
ATOM     13  C   UNL A   1     -25.137  -5.280  29.205  0.00  0.00    -0.000 C 
ATOM     14  C   UNL A   1     -26.232  -4.611  29.784  0.00  0.00    -0.000 C 
ATOM     15  C   UNL A   1     -26.155  -3.232  30.065  0.00  0.00    -0.004 C 
ENDBRANCH   9  10
BRANCH   9  16
ATOM     16  C   UNL A   1     -25.387  -0.679  31.571  0.00  0.00    +0.081 C 
ATOM     17  C   UNL A   1     -25.189   0.773  32.028  0.00  0.00    +0.019 C 
ATOM     18  C   UNL A   1     -25.336   0.684  33.544  0.00  0.00    +0.020 C 
ATOM     19  C   UNL A   1     -24.829  -0.715  33.905  0.00  0.00    +0.089 C 
ATOM     20  N   UNL A   1     -24.758  -1.481  32.646  0.00  0.00    -0.219 NA
ENDBRANCH   9  16
ENDBRANCH   1   9
BRANCH   2  21
ATOM     21  C   UNL A   1     -24.263   1.591  27.002  0.00  0.00    +0.168 C 
BRANCH  21  22
ATOM     22  C   UNL A   1     -25.688   1.614  26.461  0.00  0.00    +0.047 C 
ATOM     23  C   UNL A   1     -26.250   2.920  26.395  0.00  0.00    +0.075 C 
ATOM     24  C   UNL A   1     -27.438   3.091  25.645  0.00  0.00    +0.106 C 
ATOM     25  N   UNL A   1     -28.075   2.089  25.003  0.00  0.00    -0.208 NA
ATOM     26  C   UNL A   1     -27.543   0.849  25.079  0.00  0.00    +0.253 C 
ATOM     27  C   UNL A   1     -26.354   0.576  25.777  0.00  0.00    +0.192 C 
ATOM     28  F   UNL A   1     -25.860  -0.681  25.795  0.00  0.00    -0.200 F 
BRANCH  23  29
ATOM     29  C   UNL A   1     -25.642   4.093  27.123  0.00  0.00    +0.266 C 
ATOM     30  N   UNL A   1     -25.614   5.252  26.449  0.00  0.00    -0.200 NA
ATOM     31  C   UNL A   1     -25.026   6.479  26.963  0.00  0.00    +0.139 C 
ATOM     32  O   UNL A   1     -25.143   3.966  28.243  0.00  0.00    -0.268 OA
ENDBRANCH  23  29
BRANCH  26  33
ATOM     33  O   UNL A   1     -28.193  -0.208  24.477  0.00  0.00    -0.456 OA
BRANCH  33  34
ATOM     34  C   UNL A   1     -29.460   0.005  23.866  0.00  0.00    +0.243 C 
BRANCH  34  35
ATOM     35  C   UNL A   1     -30.065  -1.377  23.573  0.00  0.00    +0.229 C 
ATOM     36  O   UNL A   1     -30.729  -1.878  24.721  0.00  0.00    -0.216 OA
ENDBRANCH  34  35
ENDBRANCH  33  34
ENDBRANCH  26  33
ENDBRANCH  21  22
BRANCH  21  38
ATOM     37  C   UNL A   1     -22.783   2.499  25.187  0.00  0.00    +0.175 C 
ATOM     38  O   UNL A   1     -23.156   2.738  26.415  0.00  0.00    -0.344 OA
ENDBRANCH  21  38
ENDBRANCH   2  21
BRANCH   1  39
ATOM     39  C   UNL A   1     -26.782  -0.011  28.611  0.00  0.00    +0.030 C 
BRANCH  39  40
ATOM     40  C   UNL A   1     -27.878  -0.036  29.553  0.00  0.00    +0.013 C 
BRANCH  40  41
ATOM     41  C   UNL A   1     -27.915   1.128  30.617  0.00  0.00    +0.065 C 
BRANCH  41  44
ATOM     42  C   UNL A   1     -29.211   3.209  31.459  0.00  0.00    +0.072 C 
ATOM     43  O   UNL A   1     -30.199   1.716  29.930  0.00  0.00    -0.296 OA
ATOM     44  C   UNL A   1     -29.144   1.979  30.613  0.00  0.00    +0.151 C 
ENDBRANCH  41  44
ENDBRANCH  40  41
ENDBRANCH  39  40
ENDBRANCH   1  39
TORSDOF 16
