MODEL 1890
MODEL 1
REMARK VINA RESULT:    -5.631      0.000      0.000
REMARK INTER + INTRA:          -6.077
REMARK INTER:                  -5.960
REMARK INTRA:                  -0.117
REMARK UNBOUND:                -0.117
REMARK  Name = No_1890-gen_results/8p0m/2024-11-27-11-27-31/
REMARK  1 active torsions:
REMARK  status: ('A' for Active; 'I' for Inactive)
REMARK    1  A    between atoms: C_5  and  C_10
REMARK                            x       y       z     vdW  Elec       q    Type
REMARK                         _______ _______ _______ _____ _____    ______ ____
ROOT
ATOM      1  C   UNL A   1     -24.284  -2.997  29.394  0.00  0.00    +0.271 C 
ATOM      2  C   UNL A   1     -23.859  -1.964  28.931  0.00  0.00    +0.012 C 
ATOM      3  C   UNL A   1     -24.601  -1.130  28.096  0.00  0.00    +0.027 C 
ATOM      4  C   UNL A   1     -24.160   0.136  27.479  0.00  0.00    +0.010 C 
ATOM      5  C   UNL A   1     -22.916   0.656  27.951  0.00  0.00    +0.068 C 
ATOM      6  C   UNL A   1     -22.159  -0.128  28.827  0.00  0.00    +0.010 C 
ATOM      7  C   UNL A   1     -22.576  -1.324  29.299  0.00  0.00    +0.027 C 
ATOM      8  F   UNL A   1     -25.525  -3.230  29.470  0.00  0.00    -0.173 F 
ATOM      9  F   UNL A   1     -23.760  -4.090  28.642  0.00  0.00    -0.173 F 
ENDROOT
BRANCH   5  10
ATOM     10  C   UNL A   1     -22.490   1.917  27.350  0.00  0.00    +0.318 C 
ATOM     11  F   UNL A   1     -21.264   2.083  27.417  0.00  0.00    -0.198 F 
ATOM     12  F   UNL A   1     -22.904   2.127  26.106  0.00  0.00    -0.198 F 
ENDBRANCH   5  10
TORSDOF 1
ENDMDL
ENDMDL
