REMARK  Name = outputs/IAG933/test6/raw/output_1890_IAG933_linker_design_.xyz
REMARK  14 active torsions:
REMARK  status: ('A' for Active; 'I' for Inactive)
REMARK    1  A    between atoms: C_1  and  C_2
REMARK    2  A    between atoms: C_1  and  C_8
REMARK    3  A    between atoms: C_1  and  C_41
REMARK    4  A    between atoms: C_13  and  C_29
REMARK    5  A    between atoms: C_14  and  C_15
REMARK    6  A    between atoms: C_21  and  O_22
REMARK    7  A    between atoms: O_22  and  C_23
REMARK    8  A    between atoms: C_23  and  C_24
REMARK    9  A    between atoms: C_28  and  C_40
REMARK   10  A    between atoms: C_29  and  N_31
REMARK   11  A    between atoms: C_29  and  C_36
REMARK   12  A    between atoms: N_31  and  C_41
REMARK   13  A    between atoms: C_36  and  C_38
REMARK   14  A    between atoms: C_40  and  C_41
REMARK                            x       y       z     vdW  Elec       q    Type
REMARK                         _______ _______ _______ _____ _____    ______ ____
ROOT
ATOM      1  C   UNL A   1     -25.588  -0.032  29.203  0.00  0.00    +0.083 C 
ENDROOT
BRANCH   1   2
ATOM      2  C   UNL A   1     -24.855  -1.012  30.143  0.00  0.00    +0.055 C 
BRANCH   2   3
ATOM      3  C   UNL A   1     -24.973  -2.505  29.788  0.00  0.00    -0.020 C 
ATOM      4  C   UNL A   1     -23.906  -3.173  29.146  0.00  0.00    -0.004 C 
ATOM      5  C   UNL A   1     -23.989  -4.549  28.853  0.00  0.00    -0.000 C 
ATOM      6  C   UNL A   1     -25.137  -5.280  29.205  0.00  0.00    -0.000 C 
ATOM      7  C   UNL A   1     -26.232  -4.611  29.784  0.00  0.00    -0.000 C 
ATOM      8  C   UNL A   1     -26.155  -3.232  30.065  0.00  0.00    -0.004 C 
ENDBRANCH   2   3
BRANCH   2   9
ATOM      9  C   UNL A   1     -25.387  -0.679  31.571  0.00  0.00    +0.078 C 
ATOM     10  C   UNL A   1     -25.189   0.773  32.028  0.00  0.00    +0.019 C 
ATOM     11  C   UNL A   1     -25.336   0.684  33.544  0.00  0.00    +0.020 C 
ATOM     12  C   UNL A   1     -24.829  -0.715  33.905  0.00  0.00    +0.089 C 
ATOM     13  N   UNL A   1     -24.758  -1.481  32.646  0.00  0.00    -0.219 NA
ENDBRANCH   2   9
ENDBRANCH   1   2
BRANCH   1  14
ATOM     14  N   UNL A   1     -24.586   0.184  28.142  0.00  0.00    -0.212 NA
BRANCH  14  15
ATOM     15  C   UNL A   1     -24.491   1.347  27.259  0.00  0.00    +0.137 C 
BRANCH  15  16
ATOM     16  C   UNL A   1     -25.688   1.614  26.461  0.00  0.00    +0.035 C 
ATOM     17  C   UNL A   1     -26.250   2.920  26.395  0.00  0.00    +0.074 C 
ATOM     18  C   UNL A   1     -27.438   3.091  25.645  0.00  0.00    +0.106 C 
ATOM     19  N   UNL A   1     -28.075   2.089  25.003  0.00  0.00    -0.208 NA
ATOM     20  C   UNL A   1     -27.543   0.849  25.079  0.00  0.00    +0.253 C 
ATOM     21  C   UNL A   1     -26.354   0.576  25.777  0.00  0.00    +0.191 C 
ATOM     22  F   UNL A   1     -25.860  -0.681  25.795  0.00  0.00    -0.200 F 
BRANCH  17  23
ATOM     23  C   UNL A   1     -25.642   4.093  27.123  0.00  0.00    +0.266 C 
ATOM     24  N   UNL A   1     -25.614   5.252  26.449  0.00  0.00    -0.200 NA
ATOM     25  C   UNL A   1     -25.026   6.479  26.963  0.00  0.00    +0.139 C 
ATOM     26  O   UNL A   1     -25.143   3.966  28.243  0.00  0.00    -0.268 OA
ENDBRANCH  17  23
BRANCH  20  27
ATOM     27  O   UNL A   1     -28.193  -0.208  24.477  0.00  0.00    -0.456 OA
BRANCH  27  28
ATOM     28  C   UNL A   1     -29.460   0.005  23.866  0.00  0.00    +0.243 C 
BRANCH  28  29
ATOM     29  C   UNL A   1     -30.065  -1.377  23.573  0.00  0.00    +0.229 C 
ATOM     30  O   UNL A   1     -30.729  -1.878  24.721  0.00  0.00    -0.216 OA
ENDBRANCH  28  29
ENDBRANCH  27  28
ENDBRANCH  20  27
ENDBRANCH  15  16
BRANCH  15  31
ATOM     31  C   UNL A   1     -23.176   1.501  26.582  0.00  0.00    +0.230 C 
ATOM     32  F   UNL A   1     -22.705   1.526  25.407  0.00  0.00    -0.228 F 
BRANCH  31  35
ATOM     33  F   UNL A   1     -21.276   2.519  27.500  0.00  0.00    -0.206 F 
ATOM     34  C   UNL A   1     -22.059   0.630  28.622  0.00  0.00    +0.030 C 
ATOM     35  C   UNL A   1     -22.344   1.605  27.833  0.00  0.00    +0.152 C 
ENDBRANCH  31  35
ENDBRANCH  15  31
ENDBRANCH  14  15
ENDBRANCH   1  14
BRANCH   1  36
ATOM     36  C   UNL A   1     -27.065  -0.708  29.321  0.00  0.00    +0.040 C 
BRANCH  36  37
ATOM     37  C   UNL A   1     -28.645  -0.413  29.546  0.00  0.00    -0.043 C 
ATOM     38  C   UNL A   1     -29.642  -0.965  30.340  0.00  0.00    +0.043 C 
ATOM     39  C   UNL A   1     -29.648   0.323  27.587  0.00  0.00    -0.005 C 
ATOM     40  C   UNL A   1     -32.478  -2.254  28.261  0.00  0.00    +0.030 C 
ATOM     41  C   UNL A   1     -31.320  -1.321  28.630  0.00  0.00    -0.029 C 
ATOM     42  C   UNL A   1     -28.050   1.762  29.048  0.00  0.00    +0.030 C 
ATOM     43  C   UNL A   1     -32.071  -1.405  30.994  0.00  0.00    +0.026 C 
ATOM     44  C   UNL A   1     -30.937  -1.248  29.918  0.00  0.00    -0.044 C 
ATOM     45  C   UNL A   1     -30.770  -0.508  27.622  0.00  0.00    -0.005 C 
ATOM     46  C   UNL A   1     -28.700   0.445  28.621  0.00  0.00    -0.029 C 
ENDBRANCH  36  37
ENDBRANCH   1  36
TORSDOF 14
