REMARK  Name = No_1891-gen_results/8p0m/2024-11-27-11-27-31/
REMARK  1 active torsions:
REMARK  status: ('A' for Active; 'I' for Inactive)
REMARK    1  A    between atoms: C_5  and  C_7
REMARK                            x       y       z     vdW  Elec       q    Type
REMARK                         _______ _______ _______ _____ _____    ______ ____
ROOT
ATOM      1  C   UNL A   1     -28.016  -0.814  28.878  0.00  0.00    +0.085 A 
ATOM      2  C   UNL A   1     -27.064  -0.119  28.608  0.00  0.00    +0.151 A 
ATOM      3  C   UNL A   1     -27.001   0.691  27.491  0.00  0.00    +0.030 A 
ATOM      4  C   UNL A   1     -28.137   0.736  26.635  0.00  0.00    +0.001 A 
ATOM      5  C   UNL A   1     -29.236   0.076  27.069  0.00  0.00    +0.011 A 
ATOM      6  C   UNL A   1     -29.218  -0.643  28.175  0.00  0.00    +0.012 A 
ATOM      7  F   UNL A   1     -25.849  -0.181  29.339  0.00  0.00    -0.203 F 
ATOM      8 CL   UNL A   1     -28.210  -1.772  30.343  0.00  0.00    -0.080 Cl
ENDROOT
BRANCH   5   9
ATOM      9  C   UNL A   1     -30.523   0.081  26.369  0.00  0.00    +0.193 C 
ATOM     10 CL   UNL A   1     -31.851  -0.406  26.745  0.00  0.00    -0.089 Cl
ATOM     11  N   UNL A   1     -30.350   0.553  24.969  0.00  0.00    -0.110 NA
ENDBRANCH   5   9
TORSDOF 1
