MODEL 1891
MODEL 1
REMARK VINA RESULT:    -4.974      0.000      0.000
REMARK INTER + INTRA:          -5.319
REMARK INTER:                  -5.265
REMARK INTRA:                  -0.054
REMARK UNBOUND:                -0.054
REMARK  Name = No_1891-gen_results/8p0m/2024-11-27-11-27-31/
REMARK  1 active torsions:
REMARK  status: ('A' for Active; 'I' for Inactive)
REMARK    1  A    between atoms: C_5  and  C_7
REMARK                            x       y       z     vdW  Elec       q    Type
REMARK                         _______ _______ _______ _____ _____    ______ ____
ROOT
ATOM      1  C   UNL A   1     -23.382   0.833  27.633  0.00  0.00    +0.085 A 
ATOM      2  C   UNL A   1     -22.203   1.063  27.772  0.00  0.00    +0.151 A 
ATOM      3  C   UNL A   1     -21.367   0.309  28.572  0.00  0.00    +0.030 A 
ATOM      4  C   UNL A   1     -21.920  -0.823  29.235  0.00  0.00    +0.001 A 
ATOM      5  C   UNL A   1     -23.197  -1.136  28.913  0.00  0.00    +0.011 A 
ATOM      6  C   UNL A   1     -23.911  -0.378  28.104  0.00  0.00    +0.012 A 
ATOM      7  F   UNL A   1     -21.590   2.228  27.241  0.00  0.00    -0.203 F 
ATOM      8 CL   UNL A   1     -24.474   1.677  26.538  0.00  0.00    -0.080 Cl
ENDROOT
BRANCH   5   9
ATOM      9  C   UNL A   1     -23.904  -2.312  29.425  0.00  0.00    +0.193 C 
ATOM     10 CL   UNL A   1     -24.121  -3.650  28.872  0.00  0.00    -0.089 Cl
ATOM     11  N   UNL A   1     -24.633  -1.975  30.677  0.00  0.00    -0.110 NA
ENDBRANCH   5   9
TORSDOF 1
ENDMDL
ENDMDL
