REMARK  Name = outputs/IAG933/test6/raw/output_1892_IAG933_linker_design_.xyz
REMARK  11 active torsions:
REMARK  status: ('A' for Active; 'I' for Inactive)
REMARK    1  A    between atoms: C_1  and  C_2
REMARK    2  A    between atoms: C_1  and  C_8
REMARK    3  A    between atoms: C_9  and  N_30
REMARK    4  A    between atoms: C_13  and  C_32
REMARK    5  A    between atoms: C_14  and  C_15
REMARK    6  A    between atoms: C_21  and  O_22
REMARK    7  A    between atoms: O_22  and  C_23
REMARK    8  A    between atoms: C_23  and  C_24
REMARK    9  A    between atoms: C_28  and  C_41
REMARK   10  A    between atoms: N_30  and  C_33
REMARK   11  A    between atoms: C_33  and  C_34
REMARK                            x       y       z     vdW  Elec       q    Type
REMARK                         _______ _______ _______ _____ _____    ______ ____
ROOT
ATOM      1  C   UNL A   1     -23.404   1.830  30.340  0.00  0.00    +0.120 C 
ENDROOT
BRANCH   1   4
ATOM      2  C   UNL A   1     -23.251   1.964  26.439  0.00  0.00    +0.167 C 
ATOM      3  C   UNL A   1     -24.449   1.541  27.016  0.00  0.00    +0.032 C 
ATOM      4  C   UNL A   1     -23.308   1.400  29.071  0.00  0.00    +0.000 C 
ATOM      5  F   UNL A   1     -20.876   2.071  26.510  0.00  0.00    -0.202 F 
ATOM      6  F   UNL A   1     -23.213   2.706  25.369  0.00  0.00    -0.202 F 
ATOM      7  C   UNL A   1     -24.450   1.166  28.350  0.00  0.00    -0.000 C 
ATOM      8  C   UNL A   1     -22.050   1.432  28.445  0.00  0.00    +0.029 C 
ATOM      9  C   UNL A   1     -21.995   1.758  27.081  0.00  0.00    +0.167 C 
BRANCH   3  10
ATOM     10  C   UNL A   1     -25.688   1.614  26.461  0.00  0.00    +0.040 C 
ATOM     11  C   UNL A   1     -26.250   2.920  26.395  0.00  0.00    +0.077 C 
ATOM     12  C   UNL A   1     -27.438   3.091  25.645  0.00  0.00    +0.107 C 
ATOM     13  N   UNL A   1     -28.075   2.089  25.003  0.00  0.00    -0.208 NA
ATOM     14  C   UNL A   1     -27.543   0.849  25.079  0.00  0.00    +0.253 C 
ATOM     15  C   UNL A   1     -26.354   0.576  25.777  0.00  0.00    +0.193 C 
ATOM     16  F   UNL A   1     -25.860  -0.681  25.795  0.00  0.00    -0.199 F 
BRANCH  11  17
ATOM     17  C   UNL A   1     -25.642   4.093  27.123  0.00  0.00    +0.266 C 
ATOM     18  N   UNL A   1     -25.614   5.252  26.449  0.00  0.00    -0.200 NA
ATOM     19  C   UNL A   1     -25.026   6.479  26.963  0.00  0.00    +0.139 C 
ATOM     20  O   UNL A   1     -25.143   3.966  28.243  0.00  0.00    -0.268 OA
ENDBRANCH  11  17
BRANCH  14  21
ATOM     21  O   UNL A   1     -28.193  -0.208  24.477  0.00  0.00    -0.456 OA
BRANCH  21  22
ATOM     22  C   UNL A   1     -29.460   0.005  23.866  0.00  0.00    +0.243 C 
BRANCH  22  23
ATOM     23  C   UNL A   1     -30.065  -1.377  23.573  0.00  0.00    +0.229 C 
ATOM     24  O   UNL A   1     -30.729  -1.878  24.721  0.00  0.00    -0.216 OA
ENDBRANCH  22  23
ENDBRANCH  21  22
ENDBRANCH  14  21
ENDBRANCH   3  10
ENDBRANCH   1   4
BRANCH   1  25
ATOM     25  N   UNL A   1     -24.474   1.873  31.333  0.00  0.00    -0.272 N 
ATOM     26  O   UNL A   1     -26.015   3.356  30.877  0.00  0.00    -0.270 OA
ATOM     27  C   UNL A   1     -25.185   3.076  31.684  0.00  0.00    +0.253 C 
BRANCH  27  28
ATOM     28  C   UNL A   1     -25.144   3.897  32.942  0.00  0.00    +0.096 C 
ATOM     29  C   UNL A   1     -25.774   3.639  34.190  0.00  0.00    +0.124 C 
ATOM     30  C   UNL A   1     -24.647   5.228  33.122  0.00  0.00    +0.109 C 
ATOM     31  C   UNL A   1     -24.942   7.112  34.941  0.00  0.00    +0.140 C 
ATOM     32 BR   UNL A   1     -24.330   6.548  31.982  0.00  0.00    -0.031 Br
ATOM     33  N   UNL A   1     -25.662   4.702  35.033  0.00  0.00    -0.176 NA
ATOM     34  N   UNL A   1     -25.031   5.701  34.398  0.00  0.00    -0.203 N 
ENDBRANCH  27  28
BRANCH  25  36
ATOM     35  C   UNL A   1     -25.387  -0.679  31.571  0.00  0.00    +0.095 C 
ATOM     36  C   UNL A   1     -25.189   0.773  32.028  0.00  0.00    +0.094 C 
ATOM     37  C   UNL A   1     -25.336   0.684  33.544  0.00  0.00    +0.040 C 
ATOM     38  C   UNL A   1     -24.829  -0.715  33.905  0.00  0.00    +0.090 C 
ATOM     39  N   UNL A   1     -24.758  -1.481  32.646  0.00  0.00    -0.217 NA
BRANCH  35  40
ATOM     40  C   UNL A   1     -24.855  -1.012  30.143  0.00  0.00    +0.045 C 
BRANCH  40  41
ATOM     41  C   UNL A   1     -24.973  -2.505  29.788  0.00  0.00    -0.021 C 
ATOM     42  C   UNL A   1     -23.906  -3.173  29.146  0.00  0.00    -0.004 C 
ATOM     43  C   UNL A   1     -23.989  -4.549  28.853  0.00  0.00    -0.000 C 
ATOM     44  C   UNL A   1     -25.137  -5.280  29.205  0.00  0.00    -0.000 C 
ATOM     45  C   UNL A   1     -26.232  -4.611  29.784  0.00  0.00    -0.000 C 
ATOM     46  C   UNL A   1     -26.155  -3.232  30.065  0.00  0.00    -0.004 C 
ENDBRANCH  40  41
ENDBRANCH  35  40
ENDBRANCH  25  36
ENDBRANCH   1  25
TORSDOF 11
