MODEL 1892
MODEL 1
REMARK VINA RESULT:    -5.321      0.000      0.000
REMARK INTER + INTRA:          -6.496
REMARK INTER:                  -6.255
REMARK INTRA:                  -0.242
REMARK UNBOUND:                -0.242
REMARK  Name = No_1892-gen_results/8p0m/2024-11-27-11-27-31/
REMARK  3 active torsions:
REMARK  status: ('A' for Active; 'I' for Inactive)
REMARK    1  A    between atoms: C_1  and  C_2
REMARK    2  A    between atoms: C_1  and  N_8
REMARK    3  A    between atoms: C_5  and  C_11
REMARK                            x       y       z     vdW  Elec       q    Type
REMARK                         _______ _______ _______ _____ _____    ______ ____
ROOT
ATOM      1  C   UNL A   1     -23.776  -1.799  29.007  0.00  0.00    +0.002 A 
ATOM      2  C   UNL A   1     -24.701  -1.355  28.118  0.00  0.00    -0.002 A 
ATOM      3  C   UNL A   1     -24.584  -0.104  27.337  0.00  0.00    +0.006 A 
ATOM      4  C   UNL A   1     -23.415   0.696  27.564  0.00  0.00    +0.080 A 
ATOM      5  C   UNL A   1     -22.512   0.236  28.549  0.00  0.00    +0.006 A 
ATOM      6  C   UNL A   1     -22.687  -0.938  29.235  0.00  0.00    -0.002 A 
ENDROOT
BRANCH   4   7
ATOM      7  C   UNL A   1     -23.184   1.937  26.878  0.00  0.00    +0.388 C 
ATOM      8  O   UNL A   1     -23.067   2.129  25.771  0.00  0.00    -0.241 OA
ATOM      9  O   UNL A   1     -23.605   3.022  27.661  0.00  0.00    -0.241 OA
ENDBRANCH   4   7
BRANCH   1  10
ATOM     10  C   UNL A   1     -23.885  -2.823  29.641  0.00  0.00    +0.153 C 
BRANCH  10  11
ATOM     11  N   UNL A   1     -23.916  -4.055  28.997  0.00  0.00    -0.252 NA
ATOM     12  C   UNL A   1     -24.605  -4.930  28.867  0.00  0.00    +0.162 C 
ATOM     13 CL   UNL A   1     -26.127  -4.881  29.578  0.00  0.00    -0.059 Cl
ENDBRANCH  10  11
ENDBRANCH   1  10
TORSDOF 3
ENDMDL
ENDMDL
