REMARK  Name = outputs/IAG933/test6/raw/output_1893_IAG933_linker_design_.xyz
REMARK  14 active torsions:
REMARK  status: ('A' for Active; 'I' for Inactive)
REMARK    1  A    between atoms: C_1  and  C_2
REMARK    2  A    between atoms: C_1  and  C_8
REMARK    3  A    between atoms: C_1  and  C_39
REMARK    4  A    between atoms: C_13  and  O_42
REMARK    5  A    between atoms: C_14  and  C_15
REMARK    6  A    between atoms: C_21  and  O_22
REMARK    7  A    between atoms: O_22  and  C_23
REMARK    8  A    between atoms: C_23  and  C_24
REMARK    9  A    between atoms: N_28  and  C_38
REMARK   10  A    between atoms: N_28  and  C_39
REMARK   11  A    between atoms: C_30  and  C_38
REMARK   12  A    between atoms: C_33  and  C_38
REMARK   13  A    between atoms: C_37  and  C_39
REMARK   14  A    between atoms: C_40  and  O_42
REMARK                            x       y       z     vdW  Elec       q    Type
REMARK                         _______ _______ _______ _____ _____    ______ ____
ROOT
ATOM      1  C   UNL A   1     -21.163   1.244  27.506  0.00  0.00    +0.003 C 
ATOM      2  C   UNL A   1     -21.250   0.452  28.650  0.00  0.00    -0.000 C 
ATOM      3  C   UNL A   1     -22.463   0.027  29.102  0.00  0.00    +0.000 C 
ATOM      4  C   UNL A   1     -22.341   1.537  26.816  0.00  0.00    +0.037 C 
ATOM      5  C   UNL A   1     -23.627   0.425  28.432  0.00  0.00    +0.028 C 
ATOM      6  C   UNL A   1     -23.531   1.042  27.324  0.00  0.00    +0.136 C 
ENDROOT
BRANCH   5   7
ATOM      7  C   UNL A   1     -25.072   0.073  29.080  0.00  0.00    +0.104 C 
BRANCH   7   8
ATOM      8  C   UNL A   1     -24.855  -1.012  30.143  0.00  0.00    +0.059 C 
BRANCH   8   9
ATOM      9  C   UNL A   1     -24.973  -2.505  29.788  0.00  0.00    -0.019 C 
ATOM     10  C   UNL A   1     -23.906  -3.173  29.146  0.00  0.00    -0.004 C 
ATOM     11  C   UNL A   1     -23.989  -4.549  28.853  0.00  0.00    -0.000 C 
ATOM     12  C   UNL A   1     -25.137  -5.280  29.205  0.00  0.00    -0.000 C 
ATOM     13  C   UNL A   1     -26.232  -4.611  29.784  0.00  0.00    -0.000 C 
ATOM     14  C   UNL A   1     -26.155  -3.232  30.065  0.00  0.00    -0.004 C 
ENDBRANCH   8   9
BRANCH   8  15
ATOM     15  C   UNL A   1     -25.387  -0.679  31.571  0.00  0.00    +0.079 C 
ATOM     16  C   UNL A   1     -25.189   0.773  32.028  0.00  0.00    +0.019 C 
ATOM     17  C   UNL A   1     -25.336   0.684  33.544  0.00  0.00    +0.020 C 
ATOM     18  C   UNL A   1     -24.829  -0.715  33.905  0.00  0.00    +0.089 C 
ATOM     19  N   UNL A   1     -24.758  -1.481  32.646  0.00  0.00    -0.219 NA
ENDBRANCH   8  15
ENDBRANCH   7   8
BRANCH   7  20
ATOM     20  N   UNL A   1     -26.446   0.537  28.966  0.00  0.00    -0.207 NA
BRANCH  20  21
ATOM     21  C   UNL A   1     -27.893   0.511  29.225  0.00  0.00    +0.152 C 
BRANCH  21  22
ATOM     22  C   UNL A   1     -28.463   1.923  29.001  0.00  0.00    +0.277 C 
ATOM     23  O   UNL A   1     -29.091   2.176  27.931  0.00  0.00    -0.270 OA
ATOM     24  N   UNL A   1     -28.119   2.834  29.926  0.00  0.00    -0.087 NA
ENDBRANCH  21  22
BRANCH  21  25
ATOM     25  C   UNL A   1     -28.547  -0.512  28.389  0.00  0.00    +0.027 C 
ATOM     26  C   UNL A   1     -30.096  -0.675  28.390  0.00  0.00    +0.002 C 
ENDBRANCH  21  25
ENDBRANCH  20  21
ENDBRANCH   7  20
ENDBRANCH   5   7
BRANCH   6  27
ATOM     27  O   UNL A   1     -24.475   1.425  26.469  0.00  0.00    -0.471 OA
BRANCH  27  28
ATOM     28  C   UNL A   1     -25.688   1.614  26.461  0.00  0.00    +0.235 C 
ATOM     29  C   UNL A   1     -26.250   2.920  26.395  0.00  0.00    +0.095 C 
ATOM     30  C   UNL A   1     -27.438   3.091  25.645  0.00  0.00    +0.106 C 
ATOM     31  N   UNL A   1     -28.075   2.089  25.003  0.00  0.00    -0.212 NA
ATOM     32  C   UNL A   1     -27.543   0.849  25.079  0.00  0.00    +0.238 C 
ATOM     33  C   UNL A   1     -26.354   0.576  25.777  0.00  0.00    +0.280 C 
ATOM     34  F   UNL A   1     -25.860  -0.681  25.795  0.00  0.00    -0.223 F 
BRANCH  29  35
ATOM     35  C   UNL A   1     -25.642   4.093  27.123  0.00  0.00    +0.266 C 
ATOM     36  N   UNL A   1     -25.614   5.252  26.449  0.00  0.00    -0.200 NA
ATOM     37  C   UNL A   1     -25.026   6.479  26.963  0.00  0.00    +0.139 C 
ATOM     38  O   UNL A   1     -25.143   3.966  28.243  0.00  0.00    -0.269 OA
ENDBRANCH  29  35
BRANCH  32  39
ATOM     39  O   UNL A   1     -28.193  -0.208  24.477  0.00  0.00    -0.458 OA
BRANCH  39  40
ATOM     40  C   UNL A   1     -29.460   0.005  23.866  0.00  0.00    +0.242 C 
BRANCH  40  41
ATOM     41  C   UNL A   1     -30.065  -1.377  23.573  0.00  0.00    +0.229 C 
ATOM     42  O   UNL A   1     -30.729  -1.878  24.721  0.00  0.00    -0.216 OA
ENDBRANCH  40  41
ENDBRANCH  39  40
ENDBRANCH  32  39
ENDBRANCH  27  28
ENDBRANCH   6  27
TORSDOF 14
