MODEL 1894
MODEL 1
REMARK VINA RESULT:    -6.268      0.000      0.000
REMARK INTER + INTRA:          -8.384
REMARK INTER:                  -7.734
REMARK INTRA:                  -0.650
REMARK UNBOUND:                -0.650
REMARK  Name = No_1894-gen_results/8p0m/2024-11-27-11-27-31/
REMARK  4 active torsions:
REMARK  status: ('A' for Active; 'I' for Inactive)
REMARK    1  A    between atoms: C_2  and  C_3
REMARK    2  A    between atoms: N_4  and  C_10
REMARK    3  A    between atoms: C_8  and  C_11
REMARK    4  A    between atoms: C_10  and  C_14
REMARK                            x       y       z     vdW  Elec       q    Type
REMARK                         _______ _______ _______ _____ _____    ______ ____
ROOT
ATOM      1  O   UNL A   1     -23.301   2.870  25.540  0.00  0.00    -0.268 OA
ATOM      2  C   UNL A   1     -23.641   2.333  26.501  0.00  0.00    +0.265 C 
ATOM      3  N   UNL A   1     -25.056   2.040  26.747  0.00  0.00    -0.197 NA
ENDROOT
BRANCH   2   4
ATOM      4  C   UNL A   1     -22.790   1.504  27.203  0.00  0.00    +0.055 A 
ATOM      5  C   UNL A   1     -21.832   1.499  27.545  0.00  0.00    +0.005 A 
ATOM      6  C   UNL A   1     -21.010   0.569  28.454  0.00  0.00    +0.000 A 
ATOM      7  C   UNL A   1     -21.713  -0.509  28.902  0.00  0.00    +0.007 A 
ATOM      8  C   UNL A   1     -23.048  -0.655  28.543  0.00  0.00    +0.080 A 
ATOM      9  C   UNL A   1     -23.680   0.219  27.828  0.00  0.00    +0.011 A 
BRANCH   8  10
ATOM     10  C   UNL A   1     -23.812  -1.793  29.179  0.00  0.00    +0.388 C 
ATOM     11  O   UNL A   1     -23.486  -2.915  28.878  0.00  0.00    -0.241 OA
ATOM     12  O   UNL A   1     -24.623  -1.529  30.105  0.00  0.00    -0.241 OA
ENDBRANCH   8  10
ENDBRANCH   2   4
BRANCH   3  13
ATOM     13  C   UNL A   1     -26.003   2.921  25.971  0.00  0.00    +0.142 C 
BRANCH  13  14
ATOM     14  C   UNL A   1     -26.729   2.226  25.222  0.00  0.00    -0.001 A 
ATOM     15  C   UNL A   1     -27.848   2.636  24.437  0.00  0.00    -0.003 A 
ATOM     16  C   UNL A   1     -28.653   1.864  23.613  0.00  0.00    -0.000 A 
ATOM     17  C   UNL A   1     -28.415   0.522  23.603  0.00  0.00    -0.000 A 
ATOM     18  C   UNL A   1     -27.372  -0.050  24.358  0.00  0.00    -0.000 A 
ATOM     19  C   UNL A   1     -26.607   0.748  25.152  0.00  0.00    -0.003 A 
ENDBRANCH  13  14
ENDBRANCH   3  13
TORSDOF 4
ENDMDL
ENDMDL
