REMARK  Name = outputs/IAG933/test6/raw/output_1895_IAG933_linker_design_.xyz
REMARK  7 active torsions:
REMARK  status: ('A' for Active; 'I' for Inactive)
REMARK    1  A    between atoms: C_1  and  C_2
REMARK    2  A    between atoms: C_1  and  C_8
REMARK    3  A    between atoms: C_9  and  O_42
REMARK    4  A    between atoms: C_21  and  O_22
REMARK    5  A    between atoms: O_22  and  C_23
REMARK    6  A    between atoms: C_23  and  C_24
REMARK    7  A    between atoms: C_38  and  O_42
REMARK                            x       y       z     vdW  Elec       q    Type
REMARK                         _______ _______ _______ _____ _____    ______ ____
ROOT
ATOM      1  C   UNL A   1     -25.688   1.614  26.461  0.00  0.00    +0.032 C 
ATOM      2  C   UNL A   1     -26.250   2.920  26.395  0.00  0.00    +0.072 C 
ATOM      3  C   UNL A   1     -25.642   4.093  27.123  0.00  0.00    +0.227 C 
ATOM      4  N   UNL A   1     -25.614   5.252  26.449  0.00  0.00    -0.235 NA
ATOM      5  C   UNL A   1     -25.026   6.479  26.963  0.00  0.00    +0.155 C 
ATOM      6  O   UNL A   1     -25.143   3.966  28.243  0.00  0.00    -0.432 OA
ATOM      7  C   UNL A   1     -27.438   3.091  25.645  0.00  0.00    +0.106 C 
ATOM      8  N   UNL A   1     -28.075   2.089  25.003  0.00  0.00    -0.208 NA
ATOM      9  C   UNL A   1     -27.543   0.849  25.079  0.00  0.00    +0.253 C 
ATOM     10  C   UNL A   1     -26.354   0.576  25.777  0.00  0.00    +0.190 C 
ATOM     11  F   UNL A   1     -25.860  -0.681  25.795  0.00  0.00    -0.200 F 
ATOM     12  C   UNL A   1     -25.726   5.453  30.217  0.00  0.00    +0.042 C 
ATOM     13 CL   UNL A   1     -23.227   2.296  24.694  0.00  0.00    -0.086 Cl
ATOM     14  C   UNL A   1     -23.052   1.846  26.259  0.00  0.00    +0.055 C 
ATOM     15  C   UNL A   1     -23.751   1.644  28.511  0.00  0.00    +0.360 C 
ATOM     16  C   UNL A   1     -26.085   5.418  31.586  0.00  0.00    +0.006 C 
ATOM     17  C   UNL A   1     -21.494   1.271  27.986  0.00  0.00    +0.236 C 
ATOM     18  C   UNL A   1     -25.456   4.220  29.517  0.00  0.00    +0.193 C 
ATOM     19  C   UNL A   1     -25.463   2.999  30.143  0.00  0.00    +0.261 C 
ATOM     20  N   UNL A   1     -24.740   2.014  29.388  0.00  0.00    -0.032 NA
ATOM     21  N   UNL A   1     -22.506   1.269  28.904  0.00  0.00    -0.034 NA
ATOM     22  C   UNL A   1     -26.032   2.960  31.424  0.00  0.00    +0.184 C 
ATOM     23  C   UNL A   1     -26.221   4.154  32.198  0.00  0.00    +0.041 C 
ATOM     24  C   UNL A   1     -21.732   1.604  26.672  0.00  0.00    +0.058 C 
ATOM     25  C   UNL A   1     -24.056   1.667  27.130  0.00  0.00    +0.170 C 
ENDROOT
BRANCH   9  26
ATOM     26  O   UNL A   1     -28.193  -0.208  24.477  0.00  0.00    -0.456 OA
BRANCH  26  27
ATOM     27  C   UNL A   1     -29.460   0.005  23.866  0.00  0.00    +0.243 C 
BRANCH  27  28
ATOM     28  C   UNL A   1     -30.065  -1.377  23.573  0.00  0.00    +0.229 C 
ATOM     29  O   UNL A   1     -30.729  -1.878  24.721  0.00  0.00    -0.216 OA
ENDBRANCH  27  28
ENDBRANCH  26  27
ENDBRANCH   9  26
BRANCH  22  30
ATOM     30  O   UNL A   1     -26.294   1.684  31.735  0.00  0.00    -0.474 OA
BRANCH  30  32
ATOM     31  C   UNL A   1     -25.387  -0.679  31.571  0.00  0.00    +0.117 C 
ATOM     32  C   UNL A   1     -25.189   0.773  32.028  0.00  0.00    +0.184 C 
ATOM     33  C   UNL A   1     -25.336   0.684  33.544  0.00  0.00    +0.064 C 
ATOM     34  C   UNL A   1     -24.829  -0.715  33.905  0.00  0.00    +0.093 C 
ATOM     35  N   UNL A   1     -24.758  -1.481  32.646  0.00  0.00    -0.215 NA
BRANCH  31  36
ATOM     36  C   UNL A   1     -24.855  -1.012  30.143  0.00  0.00    +0.047 C 
BRANCH  36  37
ATOM     37  C   UNL A   1     -24.973  -2.505  29.788  0.00  0.00    -0.021 C 
ATOM     38  C   UNL A   1     -23.906  -3.173  29.146  0.00  0.00    -0.004 C 
ATOM     39  C   UNL A   1     -23.989  -4.549  28.853  0.00  0.00    -0.000 C 
ATOM     40  C   UNL A   1     -25.137  -5.280  29.205  0.00  0.00    -0.000 C 
ATOM     41  C   UNL A   1     -26.232  -4.611  29.784  0.00  0.00    -0.000 C 
ATOM     42  C   UNL A   1     -26.155  -3.232  30.065  0.00  0.00    -0.004 C 
ENDBRANCH  36  37
ENDBRANCH  31  36
ENDBRANCH  30  32
ENDBRANCH  22  30
TORSDOF 7
