MODEL 1895
MODEL 1
REMARK VINA RESULT:    -4.906      0.000      0.000
REMARK INTER + INTRA:          -5.706
REMARK INTER:                  -5.480
REMARK INTRA:                  -0.227
REMARK UNBOUND:                -0.227
REMARK  Name = No_1895-gen_results/8p0m/2024-11-27-11-27-31/
REMARK  2 active torsions:
REMARK  status: ('A' for Active; 'I' for Inactive)
REMARK    1  A    between atoms: C_1  and  C_2
REMARK    2  A    between atoms: C_1  and  C_3
REMARK                            x       y       z     vdW  Elec       q    Type
REMARK                         _______ _______ _______ _____ _____    ______ ____
ROOT
ATOM      1  C   UNL A   1     -24.259  -2.919  29.128  0.00  0.00    -0.018 A 
ATOM      2  C   UNL A   1     -24.080  -4.247  28.704  0.00  0.00    -0.004 A 
ATOM      3  C   UNL A   1     -25.027  -5.204  29.036  0.00  0.00    -0.000 A 
ATOM      4  C   UNL A   1     -26.281  -4.797  29.606  0.00  0.00    -0.000 A 
ATOM      5  C   UNL A   1     -26.493  -3.494  29.947  0.00  0.00    -0.000 A 
ATOM      6  C   UNL A   1     -25.506  -2.554  29.702  0.00  0.00    -0.004 A 
ENDROOT
BRANCH   1   7
ATOM      7  C   UNL A   1     -23.193  -1.858  28.970  0.00  0.00    +0.052 C 
BRANCH   7   8
ATOM      8  C   UNL A   1     -23.412  -0.927  29.412  0.00  0.00    -0.021 C 
ATOM      9  C   UNL A   1     -22.640  -0.450  30.683  0.00  0.00    -0.005 C 
ENDBRANCH   7   8
ENDBRANCH   1   7
TORSDOF 2
ENDMDL
ENDMDL
