MODEL 1896
MODEL 1
REMARK VINA RESULT:    -4.640      0.000      0.000
REMARK INTER + INTRA:          -4.939
REMARK INTER:                  -4.911
REMARK INTRA:                  -0.028
REMARK UNBOUND:                -0.028
REMARK  Name = No_1896-gen_results/8p0m/2024-11-27-11-27-31/
REMARK  1 active torsions:
REMARK  status: ('A' for Active; 'I' for Inactive)
REMARK    1  A    between atoms: C_2  and  O_7
REMARK                            x       y       z     vdW  Elec       q    Type
REMARK                         _______ _______ _______ _____ _____    ______ ____
ROOT
ATOM      1  C   UNL A   1     -23.993  -4.265  28.760  0.00  0.00    +0.037 A 
ATOM      2  C   UNL A   1     -24.150  -3.268  29.064  0.00  0.00    +0.139 A 
ATOM      3  C   UNL A   1     -25.114  -5.228  29.082  0.00  0.00    +0.003 A 
ATOM      4  C   UNL A   1     -26.320  -4.729  29.617  0.00  0.00    +0.000 A 
ATOM      5  C   UNL A   1     -25.298  -2.499  29.594  0.00  0.00    +0.037 A 
ATOM      6  C   UNL A   1     -26.352  -3.350  29.897  0.00  0.00    +0.003 A 
ENDROOT
BRANCH   2   7
ATOM      7  O   UNL A   1     -23.063  -2.328  28.754  0.00  0.00    -0.471 OA
ATOM      8  C   UNL A   1     -22.826  -1.218  29.252  0.00  0.00    +0.253 C 
ENDBRANCH   2   7
TORSDOF 1
ENDMDL
ENDMDL
