REMARK  Name = outputs/IAG933/test6/raw/output_1897_IAG933_linker_design_.xyz
REMARK  11 active torsions:
REMARK  status: ('A' for Active; 'I' for Inactive)
REMARK    1  A    between atoms: C_1  and  C_2
REMARK    2  A    between atoms: C_1  and  C_8
REMARK    3  A    between atoms: C_1  and  C_39
REMARK    4  A    between atoms: C_13  and  C_47
REMARK    5  A    between atoms: C_14  and  C_15
REMARK    6  A    between atoms: C_21  and  O_22
REMARK    7  A    between atoms: O_22  and  C_23
REMARK    8  A    between atoms: C_23  and  C_24
REMARK    9  A    between atoms: C_32  and  C_46
REMARK   10  A    between atoms: C_39  and  C_41
REMARK   11  A    between atoms: C_39  and  C_46
REMARK                            x       y       z     vdW  Elec       q    Type
REMARK                         _______ _______ _______ _____ _____    ______ ____
ROOT
ATOM      1  C   UNL A   1     -25.476  -0.093  28.956  0.00  0.00    +0.028 C 
ENDROOT
BRANCH   1   5
ATOM      2  C   UNL A   1     -23.285   1.828  26.328  0.00  0.00    -0.000 C 
ATOM      3  C   UNL A   1     -22.880   0.638  28.792  0.00  0.00    -0.004 C 
ATOM      4  C   UNL A   1     -22.024   1.714  26.816  0.00  0.00    -0.000 C 
ATOM      5  C   UNL A   1     -24.219   0.662  28.301  0.00  0.00    -0.022 C 
ATOM      6  C   UNL A   1     -21.812   1.144  28.064  0.00  0.00    -0.000 C 
ATOM      7  C   UNL A   1     -24.385   1.350  27.049  0.00  0.00    -0.001 C 
BRANCH   7   8
ATOM      8  C   UNL A   1     -25.688   1.614  26.461  0.00  0.00    +0.038 C 
ATOM      9  C   UNL A   1     -26.250   2.920  26.395  0.00  0.00    +0.076 C 
ATOM     10  C   UNL A   1     -27.438   3.091  25.645  0.00  0.00    +0.107 C 
ATOM     11  N   UNL A   1     -28.075   2.089  25.003  0.00  0.00    -0.208 NA
ATOM     12  C   UNL A   1     -27.543   0.849  25.079  0.00  0.00    +0.253 C 
ATOM     13  C   UNL A   1     -26.354   0.576  25.777  0.00  0.00    +0.193 C 
ATOM     14  F   UNL A   1     -25.860  -0.681  25.795  0.00  0.00    -0.199 F 
BRANCH   9  15
ATOM     15  C   UNL A   1     -25.642   4.093  27.123  0.00  0.00    +0.266 C 
ATOM     16  N   UNL A   1     -25.614   5.252  26.449  0.00  0.00    -0.200 NA
ATOM     17  C   UNL A   1     -25.026   6.479  26.963  0.00  0.00    +0.139 C 
ATOM     18  O   UNL A   1     -25.143   3.966  28.243  0.00  0.00    -0.268 OA
ENDBRANCH   9  15
BRANCH  12  19
ATOM     19  O   UNL A   1     -28.193  -0.208  24.477  0.00  0.00    -0.456 OA
BRANCH  19  20
ATOM     20  C   UNL A   1     -29.460   0.005  23.866  0.00  0.00    +0.243 C 
BRANCH  20  21
ATOM     21  C   UNL A   1     -30.065  -1.377  23.573  0.00  0.00    +0.229 C 
ATOM     22  O   UNL A   1     -30.729  -1.878  24.721  0.00  0.00    -0.216 OA
ENDBRANCH  20  21
ENDBRANCH  19  20
ENDBRANCH  12  19
ENDBRANCH   7   8
ENDBRANCH   1   5
BRANCH   1  23
ATOM     23  C   UNL A   1     -24.855  -1.012  30.143  0.00  0.00    +0.042 C 
BRANCH  23  24
ATOM     24  C   UNL A   1     -24.973  -2.505  29.788  0.00  0.00    -0.021 C 
ATOM     25  C   UNL A   1     -23.906  -3.173  29.146  0.00  0.00    -0.004 C 
ATOM     26  C   UNL A   1     -23.989  -4.549  28.853  0.00  0.00    -0.000 C 
ATOM     27  C   UNL A   1     -25.137  -5.280  29.205  0.00  0.00    -0.000 C 
ATOM     28  C   UNL A   1     -26.232  -4.611  29.784  0.00  0.00    -0.000 C 
ATOM     29  C   UNL A   1     -26.155  -3.232  30.065  0.00  0.00    -0.004 C 
ENDBRANCH  23  24
BRANCH  23  30
ATOM     30  C   UNL A   1     -25.387  -0.679  31.571  0.00  0.00    +0.077 C 
ATOM     31  C   UNL A   1     -25.189   0.773  32.028  0.00  0.00    +0.019 C 
ATOM     32  C   UNL A   1     -25.336   0.684  33.544  0.00  0.00    +0.020 C 
ATOM     33  C   UNL A   1     -24.829  -0.715  33.905  0.00  0.00    +0.089 C 
ATOM     34  N   UNL A   1     -24.758  -1.481  32.646  0.00  0.00    -0.219 NA
ENDBRANCH  23  30
ENDBRANCH   1  23
BRANCH   1  35
ATOM     35  C   UNL A   1     -26.726   0.917  29.229  0.00  0.00    +0.009 C 
BRANCH  35  39
ATOM     36  O   UNL A   1     -32.764   0.152  25.924  0.00  0.00    -0.188 OA
ATOM     37  C   UNL A   1     -32.962   0.303  28.340  0.00  0.00    +0.154 C 
ATOM     38  C   UNL A   1     -28.621   0.940  31.146  0.00  0.00    -0.020 C 
ATOM     39  C   UNL A   1     -28.099   0.504  29.783  0.00  0.00    +0.025 C 
ATOM     40  S   UNL A   1     -31.313   0.482  31.089  0.00  0.00    -0.094 S 
ATOM     41  O   UNL A   1     -30.680   0.113  27.272  0.00  0.00    -0.328 OA
ATOM     42  C   UNL A   1     -31.200   0.902  29.535  0.00  0.00    +0.151 C 
ATOM     43  C   UNL A   1     -28.932  -0.166  28.929  0.00  0.00    +0.036 C 
ATOM     44  C   UNL A   1     -29.843   0.847  31.696  0.00  0.00    +0.028 C 
ATOM     45  C   UNL A   1     -32.097  -0.209  27.193  0.00  0.00    +0.287 C 
ATOM     46  C   UNL A   1     -30.239   0.330  28.638  0.00  0.00    +0.145 C 
ATOM     47  N   UNL A   1     -32.336   1.479  28.924  0.00  0.00    -0.200 NA
ENDBRANCH  35  39
ENDBRANCH   1  35
TORSDOF 11
