MODEL 1897
MODEL 1
REMARK VINA RESULT:    -6.063      0.000      0.000
REMARK INTER + INTRA:          -7.013
REMARK INTER:                  -6.772
REMARK INTRA:                  -0.242
REMARK UNBOUND:                -0.242
REMARK  Name = No_1897-gen_results/8p0m/2024-11-27-11-27-31/
REMARK  2 active torsions:
REMARK  status: ('A' for Active; 'I' for Inactive)
REMARK    1  A    between atoms: C_5  and  C_8
REMARK    2  A    between atoms: N_9  and  C_10
REMARK                            x       y       z     vdW  Elec       q    Type
REMARK                         _______ _______ _______ _____ _____    ______ ____
ROOT
ATOM      1  C   UNL A   1     -24.858  -0.665  27.875  0.00  0.00    +0.099 C 
ATOM      2  N   UNL A   1     -24.427  -1.289  28.652  0.00  0.00    -0.244 NA
ENDROOT
BRANCH   1   7
ATOM      3 CL   UNL A   1     -23.993   4.390  25.503  0.00  0.00    -0.082 Cl
ATOM      4  C   UNL A   1     -24.265   3.226  26.155  0.00  0.00    +0.058 A 
ATOM      5  C   UNL A   1     -25.498   2.656  26.068  0.00  0.00    +0.011 A 
ATOM      6  C   UNL A   1     -25.841   1.360  26.666  0.00  0.00    +0.002 A 
ATOM      7  C   UNL A   1     -24.768   0.656  27.297  0.00  0.00    +0.019 A 
ATOM      8  C   UNL A   1     -23.520   1.194  27.291  0.00  0.00    +0.002 A 
ATOM      9  C   UNL A   1     -23.250   2.402  26.726  0.00  0.00    +0.011 A 
ENDBRANCH   1   7
BRANCH   2  10
ATOM     10  C   UNL A   1     -24.741  -2.618  28.932  0.00  0.00    +0.081 A 
ATOM     11  C   UNL A   1     -23.966  -3.679  28.515  0.00  0.00    +0.019 A 
ATOM     12  C   UNL A   1     -24.288  -5.009  28.759  0.00  0.00    +0.002 A 
ATOM     13  C   UNL A   1     -25.522  -5.334  29.348  0.00  0.00    +0.000 A 
ATOM     14  C   UNL A   1     -25.967  -3.111  29.510  0.00  0.00    +0.019 A 
ATOM     15  C   UNL A   1     -26.335  -4.331  29.735  0.00  0.00    +0.002 A 
ENDBRANCH   2  10
TORSDOF 2
ENDMDL
ENDMDL
