MODEL 1899
MODEL 1
REMARK VINA RESULT:    -6.548      0.000      0.000
REMARK INTER + INTRA:          -7.764
REMARK INTER:                  -7.314
REMARK INTRA:                  -0.450
REMARK UNBOUND:                -0.450
REMARK  Name = No_1899-gen_results/8p0m/2024-11-27-11-27-31/
REMARK  2 active torsions:
REMARK  status: ('A' for Active; 'I' for Inactive)
REMARK    1  A    between atoms: C_3  and  C_7
REMARK    2  A    between atoms: C_6  and  C_13
REMARK                            x       y       z     vdW  Elec       q    Type
REMARK                         _______ _______ _______ _____ _____    ______ ____
ROOT
ATOM      1  C   UNL A   1     -29.420 -10.216  32.416  0.00  0.00    +0.007 A 
ATOM      2  C   UNL A   1     -29.760 -10.155  31.257  0.00  0.00    +0.000 A 
ATOM      3  C   UNL A   1     -29.290 -11.019  30.269  0.00  0.00    +0.000 A 
ATOM      4  C   UNL A   1     -28.294 -12.014  30.617  0.00  0.00    +0.000 A 
ATOM      5  C   UNL A   1     -27.916 -12.035  31.958  0.00  0.00    +0.007 A 
ATOM      6  C   UNL A   1     -28.404 -11.171  32.827  0.00  0.00    +0.080 A 
ENDROOT
BRANCH   3   7
ATOM      7  C   UNL A   1     -29.663 -11.015  28.818  0.00  0.00    +0.000 A 
ATOM      8  C   UNL A   1     -30.652 -10.295  28.368  0.00  0.00    +0.000 A 
ATOM      9  C   UNL A   1     -31.072 -10.287  27.183  0.00  0.00    +0.000 A 
ATOM     10  C   UNL A   1     -30.635 -11.189  26.184  0.00  0.00    +0.000 A 
ATOM     11  C   UNL A   1     -29.083 -11.978  27.903  0.00  0.00    +0.000 A 
ATOM     12  C   UNL A   1     -29.432 -12.041  26.663  0.00  0.00    +0.000 A 
ENDBRANCH   3   7
BRANCH   6  13
ATOM     13  C   UNL A   1     -27.897 -11.225  34.235  0.00  0.00    +0.388 C 
ATOM     14  O   UNL A   1     -27.561 -10.273  34.715  0.00  0.00    -0.241 OA
ATOM     15  O   UNL A   1     -27.298 -12.354  34.635  0.00  0.00    -0.241 OA
ENDBRANCH   6  13
TORSDOF 2
ENDMDL
ENDMDL
