MODEL 189
MODEL 1
REMARK VINA RESULT:    -6.976      0.000      0.000
REMARK INTER + INTRA:          -8.912
REMARK INTER:                  -8.199
REMARK INTRA:                  -0.713
REMARK UNBOUND:                -0.713
REMARK  Name = No_189-gen_results/8p0m/2024-11-27-11-27-31/
REMARK  3 active torsions:
REMARK  status: ('A' for Active; 'I' for Inactive)
REMARK    1  A    between atoms: C_3  and  C_4
REMARK    2  A    between atoms: C_7  and  N_13
REMARK    3  A    between atoms: N_13  and  C_14
REMARK                            x       y       z     vdW  Elec       q    Type
REMARK                         _______ _______ _______ _____ _____    ______ ____
ROOT
ATOM      1  C   UNL A   1     -25.012   0.041  25.316  0.00  0.00    +0.015 A 
ATOM      2  C   UNL A   1     -26.038  -0.020  24.678  0.00  0.00    +0.001 A 
ATOM      3  C   UNL A   1     -27.100   0.870  24.839  0.00  0.00    +0.000 A 
ATOM      4  C   UNL A   1     -24.935   1.011  26.450  0.00  0.00    +0.061 A 
ATOM      5  C   UNL A   1     -25.883   1.978  26.639  0.00  0.00    +0.015 A 
ATOM      6  C   UNL A   1     -27.072   1.944  25.861  0.00  0.00    +0.001 A 
ENDROOT
BRANCH   3   7
ATOM      7  C   UNL A   1     -28.387   0.863  24.117  0.00  0.00    +0.000 A 
ATOM      8  C   UNL A   1     -29.281  -0.260  24.003  0.00  0.00    +0.000 A 
ATOM      9  C   UNL A   1     -30.495  -0.147  23.297  0.00  0.00    +0.000 A 
ATOM     10  C   UNL A   1     -31.021   1.127  22.918  0.00  0.00    +0.000 A 
ATOM     11  C   UNL A   1     -28.981   2.103  23.619  0.00  0.00    +0.000 A 
ATOM     12  C   UNL A   1     -30.217   2.189  23.048  0.00  0.00    +0.000 A 
ENDBRANCH   3   7
BRANCH   4  13
ATOM     13  N   UNL A   1     -23.788   1.082  27.227  0.00  0.00    -0.201 N 
ATOM     14  C   UNL A   1     -22.677   1.826  26.595  0.00  0.00    +0.455 C 
ATOM     15  O   UNL A   1     -21.540   1.861  27.023  0.00  0.00    -0.222 OA
ATOM     16  O   UNL A   1     -22.962   2.637  25.550  0.00  0.00    -0.222 OA
BRANCH  13  17
ATOM     17  C   UNL A   1     -23.683   0.541  28.380  0.00  0.00    +0.061 A 
ATOM     18  C   UNL A   1     -23.554  -0.656  28.567  0.00  0.00    +0.015 A 
ATOM     19  C   UNL A   1     -23.783   1.518  29.504  0.00  0.00    +0.015 A 
ATOM     20  C   UNL A   1     -23.369  -1.293  29.924  0.00  0.00    +0.001 A 
ATOM     21  C   UNL A   1     -23.561   0.987  30.828  0.00  0.00    +0.001 A 
ATOM     22  C   UNL A   1     -23.453  -0.405  30.974  0.00  0.00    +0.000 A 
ENDBRANCH  13  17
ENDBRANCH   4  13
TORSDOF 3
ENDMDL
ENDMDL
