MODEL 18
MODEL 1
REMARK VINA RESULT:    -5.835      0.000      0.000
REMARK INTER + INTRA:          -9.178
REMARK INTER:                  -7.541
REMARK INTRA:                  -1.637
REMARK UNBOUND:                -1.637
REMARK  Name = No_18-gen_results/8p0m/2024-11-27-11-27-31/
REMARK  5 active torsions:
REMARK  status: ('A' for Active; 'I' for Inactive)
REMARK    1  A    between atoms: C_3  and  C_4
REMARK    2  A    between atoms: C_4  and  C_8
REMARK    3  A    between atoms: C_5  and  C_13
REMARK    4  A    between atoms: N_9  and  C_11
REMARK    5  A    between atoms: C_12  and  C_16
REMARK                            x       y       z     vdW  Elec       q    Type
REMARK                         _______ _______ _______ _____ _____    ______ ____
ROOT
ATOM      1  C   UNL A   1     -24.493  -3.142  29.115  0.00  0.00    +0.006 A 
ATOM      2  C   UNL A   1     -23.527  -2.420  29.033  0.00  0.00    -0.004 A 
ATOM      3  C   UNL A   1     -23.394  -1.303  29.851  0.00  0.00    -0.013 A 
ATOM      4  C   UNL A   1     -25.654  -2.727  29.906  0.00  0.00    +0.080 A 
ATOM      5  C   UNL A   1     -25.578  -1.698  30.812  0.00  0.00    +0.006 A 
ATOM      6  C   UNL A   1     -24.417  -0.923  30.799  0.00  0.00    -0.004 A 
ENDROOT
BRANCH   4   7
ATOM      7  C   UNL A   1     -26.982  -3.488  30.029  0.00  0.00    +0.388 C 
ATOM      8  O   UNL A   1     -28.040  -3.029  30.134  0.00  0.00    -0.241 OA
ATOM      9  O   UNL A   1     -26.854  -4.814  30.011  0.00  0.00    -0.241 OA
ENDBRANCH   4   7
BRANCH   3  10
ATOM     10  C   UNL A   1     -22.247  -0.466  29.846  0.00  0.00    +0.114 C 
BRANCH  10  11
ATOM     11  C   UNL A   1     -21.516  -0.108  28.791  0.00  0.00    +0.250 C 
ATOM     12  N   UNL A   1     -21.861   0.979  28.074  0.00  0.00    -0.178 NA
ATOM     13  O   UNL A   1     -20.495  -0.715  28.382  0.00  0.00    -0.273 OA
BRANCH  12  14
ATOM     14  C   UNL A   1     -22.972   1.863  28.303  0.00  0.00    +0.089 C 
ATOM     15  C   UNL A   1     -23.908   1.605  27.309  0.00  0.00    +0.018 C 
BRANCH  15  16
ATOM     16  C   UNL A   1     -24.033   0.629  26.668  0.00  0.00    -0.003 C 
ATOM     17  C   UNL A   1     -25.202  -0.236  26.693  0.00  0.00    -0.026 C 
ATOM     18  C   UNL A   1     -26.216   0.151  27.589  0.00  0.00    +0.031 C 
ENDBRANCH  15  16
ENDBRANCH  12  14
ENDBRANCH  10  11
ENDBRANCH   3  10
TORSDOF 5
ENDMDL
ENDMDL
