REMARK  Name = No_19-gen_results/8p0m/2024-11-27-11-27-31/
REMARK  3 active torsions:
REMARK  status: ('A' for Active; 'I' for Inactive)
REMARK    1  A    between atoms: C_3  and  C_7
REMARK    2  A    between atoms: C_7  and  C_8
REMARK    3  A    between atoms: C_8  and  C_9
REMARK                            x       y       z     vdW  Elec       q    Type
REMARK                         _______ _______ _______ _____ _____    ______ ____
ROOT
ATOM      1  C   UNL A   1     -26.135   0.356  26.818  0.00  0.00    +0.011 C 
ENDROOT
BRANCH   1   2
ATOM      2  C   UNL A   1     -25.387   0.026  27.921  0.00  0.00    +0.069 C 
ATOM      3  C   UNL A   1     -23.977   0.025  27.913  0.00  0.00    +0.031 C 
ATOM      4  C   UNL A   1     -23.212  -0.370  29.087  0.00  0.00    -0.028 C 
ATOM      5  C   UNL A   1     -23.813  -1.194  30.021  0.00  0.00    +0.009 C 
ATOM      6  C   UNL A   1     -25.180  -1.303  30.002  0.00  0.00    +0.243 C 
ATOM      7  C   UNL A   1     -25.939  -0.800  29.008  0.00  0.00    +0.297 C 
ATOM      8  F   UNL A   1     -25.967  -1.927  28.592  0.00  0.00    -0.201 F 
ATOM      9  F   UNL A   1     -25.777  -1.858  31.019  0.00  0.00    -0.227 F 
ATOM     10  F   UNL A   1     -25.942   0.472  29.801  0.00  0.00    -0.201 F 
ENDBRANCH   1   2
BRANCH   1  11
ATOM     11  C   UNL A   1     -27.459   0.379  26.705  0.00  0.00    +0.029 C 
BRANCH  11  14
ATOM     12  C   UNL A   1     -28.016  -0.814  28.878  0.00  0.00    +0.136 A 
ATOM     13  C   UNL A   1     -28.469  -0.785  29.829  0.00  0.00    +0.029 A 
ATOM     14  C   UNL A   1     -28.196   0.348  28.055  0.00  0.00    +0.005 A 
ATOM     15  C   UNL A   1     -29.019   1.350  28.378  0.00  0.00    -0.002 A 
ATOM     16  C   UNL A   1     -29.625   1.268  29.601  0.00  0.00    -0.000 A 
ATOM     17  C   UNL A   1     -29.382   0.182  30.400  0.00  0.00    +0.002 A 
ATOM     18  F   UNL A   1     -28.722  -1.576  28.254  0.00  0.00    -0.204 F 
ENDBRANCH  11  14
ENDBRANCH   1  11
TORSDOF 3
