REMARK  Name = outputs/IAG933/test6/raw/output_1900_IAG933_linker_design_.xyz
REMARK  12 active torsions:
REMARK  status: ('A' for Active; 'I' for Inactive)
REMARK    1  A    between atoms: C_1  and  C_2
REMARK    2  A    between atoms: C_1  and  C_8
REMARK    3  A    between atoms: C_1  and  C_32
REMARK    4  A    between atoms: C_13  and  C_30
REMARK    5  A    between atoms: C_14  and  C_15
REMARK    6  A    between atoms: C_21  and  O_22
REMARK    7  A    between atoms: O_22  and  C_23
REMARK    8  A    between atoms: C_23  and  C_24
REMARK    9  A    between atoms: C_30  and  C_38
REMARK   10  A    between atoms: C_32  and  C_39
REMARK   11  A    between atoms: C_32  and  C_45
REMARK   12  A    between atoms: N_40  and  C_44
REMARK                            x       y       z     vdW  Elec       q    Type
REMARK                         _______ _______ _______ _____ _____    ______ ____
ROOT
ATOM      1  C   UNL A   1     -24.537   0.072  29.268  0.00  0.00    +0.040 C 
ENDROOT
BRANCH   1   7
ATOM      2  F   UNL A   1     -21.282   2.090  26.415  0.00  0.00    -0.204 F 
ATOM      3  C   UNL A   1     -22.000  -0.106  29.047  0.00  0.00    +0.145 C 
ATOM      4  C   UNL A   1     -21.757   1.364  27.320  0.00  0.00    +0.278 C 
ATOM      5  O   UNL A   1     -21.069   0.395  27.989  0.00  0.00    -0.327 OA
ATOM      6  C   UNL A   1     -23.115   1.073  27.546  0.00  0.00    +0.065 C 
ATOM      7  C   UNL A   1     -23.290   0.258  28.658  0.00  0.00    +0.038 C 
BRANCH   6   8
ATOM      8  C   UNL A   1     -24.194   1.507  26.536  0.00  0.00    +0.013 C 
BRANCH   8   9
ATOM      9  C   UNL A   1     -25.688   1.614  26.461  0.00  0.00    +0.070 C 
ATOM     10  C   UNL A   1     -26.250   2.920  26.395  0.00  0.00    +0.055 C 
ATOM     11  C   UNL A   1     -27.438   3.091  25.645  0.00  0.00    +0.102 C 
ATOM     12  N   UNL A   1     -28.075   2.089  25.003  0.00  0.00    -0.212 NA
ATOM     13  C   UNL A   1     -27.543   0.849  25.079  0.00  0.00    +0.234 C 
ATOM     14  C   UNL A   1     -26.354   0.576  25.777  0.00  0.00    +0.240 C 
ATOM     15  F   UNL A   1     -25.860  -0.681  25.795  0.00  0.00    -0.227 F 
BRANCH  10  16
ATOM     16  C   UNL A   1     -25.642   4.093  27.123  0.00  0.00    +0.262 C 
ATOM     17  N   UNL A   1     -25.614   5.252  26.449  0.00  0.00    -0.200 NA
ATOM     18  C   UNL A   1     -25.026   6.479  26.963  0.00  0.00    +0.139 C 
ATOM     19  O   UNL A   1     -25.143   3.966  28.243  0.00  0.00    -0.269 OA
ENDBRANCH  10  16
BRANCH  13  20
ATOM     20  O   UNL A   1     -28.193  -0.208  24.477  0.00  0.00    -0.459 OA
BRANCH  20  21
ATOM     21  C   UNL A   1     -29.460   0.005  23.866  0.00  0.00    +0.242 C 
BRANCH  21  22
ATOM     22  C   UNL A   1     -30.065  -1.377  23.573  0.00  0.00    +0.229 C 
ATOM     23  O   UNL A   1     -30.729  -1.878  24.721  0.00  0.00    -0.216 OA
ENDBRANCH  21  22
ENDBRANCH  20  21
ENDBRANCH  13  20
ENDBRANCH   8   9
ENDBRANCH   6   8
ENDBRANCH   1   7
BRANCH   1  26
ATOM     24  O   UNL A   1     -26.879   0.604  28.829  0.00  0.00    -0.334 OA
ATOM     25  C   UNL A   1     -26.898   1.403  29.783  0.00  0.00    +0.223 C 
ATOM     26  C   UNL A   1     -25.641   0.994  29.065  0.00  0.00    +0.164 C 
BRANCH  25  30
ATOM     27  C   UNL A   1     -29.837   3.765  31.014  0.00  0.00    +0.089 C 
ATOM     28  N   UNL A   1     -26.263   4.342  30.831  0.00  0.00    -0.111 NA
ATOM     29  C   UNL A   1     -29.282   2.314  30.723  0.00  0.00    +0.228 C 
ATOM     30  N   UNL A   1     -27.982   2.452  30.004  0.00  0.00    -0.241 N 
ATOM     31  C   UNL A   1     -28.746   4.636  30.680  0.00  0.00    +0.049 C 
ATOM     32  O   UNL A   1     -29.913   1.170  31.212  0.00  0.00    -0.275 OA
ATOM     33  C   UNL A   1     -27.734   3.619  31.045  0.00  0.00    +0.170 C 
ENDBRANCH  25  30
ENDBRANCH   1  26
BRANCH   1  34
ATOM     34  C   UNL A   1     -24.855  -1.012  30.143  0.00  0.00    +0.041 C 
BRANCH  34  35
ATOM     35  C   UNL A   1     -24.973  -2.505  29.788  0.00  0.00    -0.021 C 
ATOM     36  C   UNL A   1     -23.906  -3.173  29.146  0.00  0.00    -0.004 C 
ATOM     37  C   UNL A   1     -23.989  -4.549  28.853  0.00  0.00    -0.000 C 
ATOM     38  C   UNL A   1     -25.137  -5.280  29.205  0.00  0.00    -0.000 C 
ATOM     39  C   UNL A   1     -26.232  -4.611  29.784  0.00  0.00    -0.000 C 
ATOM     40  C   UNL A   1     -26.155  -3.232  30.065  0.00  0.00    -0.004 C 
ENDBRANCH  34  35
BRANCH  34  41
ATOM     41  C   UNL A   1     -25.387  -0.679  31.571  0.00  0.00    +0.077 C 
ATOM     42  C   UNL A   1     -25.189   0.773  32.028  0.00  0.00    +0.019 C 
ATOM     43  C   UNL A   1     -25.336   0.684  33.544  0.00  0.00    +0.020 C 
ATOM     44  C   UNL A   1     -24.829  -0.715  33.905  0.00  0.00    +0.089 C 
ATOM     45  N   UNL A   1     -24.758  -1.481  32.646  0.00  0.00    -0.219 NA
ENDBRANCH  34  41
ENDBRANCH   1  34
TORSDOF 12
