MODEL 1900
MODEL 1
REMARK VINA RESULT:    -5.353      0.000      0.000
REMARK INTER + INTRA:          -6.156
REMARK INTER:                  -5.979
REMARK INTRA:                  -0.177
REMARK UNBOUND:                -0.177
REMARK  Name = No_1900-gen_results/8p0m/2024-11-27-11-27-31/
REMARK  2 active torsions:
REMARK  status: ('A' for Active; 'I' for Inactive)
REMARK    1  A    between atoms: C_2  and  C_7
REMARK    2  A    between atoms: C_7  and  N_8
REMARK                            x       y       z     vdW  Elec       q    Type
REMARK                         _______ _______ _______ _____ _____    ______ ____
ROOT
ATOM      1  C   UNL A   1     -21.672  -0.416  28.887  0.00  0.00    -0.003 A 
ATOM      2  C   UNL A   1     -22.699  -0.515  28.673  0.00  0.00    -0.001 A 
ATOM      3  C   UNL A   1     -20.971   0.731  28.194  0.00  0.00    -0.000 A 
ATOM      4  C   UNL A   1     -21.731   1.655  27.447  0.00  0.00    -0.000 A 
ATOM      5  C   UNL A   1     -23.713   0.309  27.976  0.00  0.00    -0.003 A 
ATOM      6  C   UNL A   1     -23.106   1.378  27.331  0.00  0.00    -0.000 A 
ENDROOT
BRANCH   2   7
ATOM      7  C   UNL A   1     -23.473  -1.716  29.406  0.00  0.00    +0.143 C 
BRANCH   7   8
ATOM      8  N   UNL A   1     -23.454  -2.890  28.872  0.00  0.00    -0.187 NA
ATOM      9  C   UNL A   1     -24.126  -3.691  28.874  0.00  0.00    +0.326 C 
ATOM     10 CL   UNL A   1     -25.709  -3.588  29.391  0.00  0.00    -0.021 Cl
ATOM     11  O   UNL A   1     -23.915  -4.913  28.296  0.00  0.00    -0.255 OA
ENDBRANCH   7   8
ENDBRANCH   2   7
TORSDOF 2
ENDMDL
ENDMDL
