MODEL 1901
MODEL 1
REMARK VINA RESULT:    -6.732      0.000      0.000
REMARK INTER + INTRA:          -8.332
REMARK INTER:                  -7.913
REMARK INTRA:                  -0.419
REMARK UNBOUND:                -0.419
REMARK  Name = No_1901-gen_results/8p0m/2024-11-27-11-27-31/
REMARK  3 active torsions:
REMARK  status: ('A' for Active; 'I' for Inactive)
REMARK    1  A    between atoms: C_1  and  C_2
REMARK    2  A    between atoms: C_1  and  N_8
REMARK    3  A    between atoms: C_5  and  C_14
REMARK                            x       y       z     vdW  Elec       q    Type
REMARK                         _______ _______ _______ _____ _____    ______ ____
ROOT
ATOM      1  C   UNL A   1     -23.898  -0.541  29.034  0.00  0.00    +0.021 A 
ATOM      2  C   UNL A   1     -22.721   0.176  28.935  0.00  0.00    +0.138 A 
ATOM      3  C   UNL A   1     -22.412   1.156  27.911  0.00  0.00    +0.034 A 
ATOM      4  C   UNL A   1     -23.370   1.416  26.906  0.00  0.00    +0.059 A 
ATOM      5  C   UNL A   1     -24.608   0.684  27.007  0.00  0.00    +0.004 A 
ATOM      6  C   UNL A   1     -24.894  -0.214  28.008  0.00  0.00    -0.001 A 
ATOM      7  F   UNL A   1     -21.786   0.054  29.826  0.00  0.00    -0.204 F 
ENDROOT
BRANCH   4   8
ATOM      8  C   UNL A   1     -23.186   2.399  25.883  0.00  0.00    +0.284 C 
ATOM      9  N   UNL A   1     -24.030   3.437  25.803  0.00  0.00    -0.084 NA
ATOM     10  O   UNL A   1     -22.441   2.184  24.854  0.00  0.00    -0.267 OA
ENDBRANCH   4   8
BRANCH   1  11
ATOM     11  C   UNL A   1     -24.143  -1.302  29.941  0.00  0.00    +0.101 C 
BRANCH  11  12
ATOM     12  N   UNL A   1     -24.602  -2.580  29.659  0.00  0.00    -0.269 NA
ATOM     13  C   UNL A   1     -25.816  -3.088  30.016  0.00  0.00    +0.072 C 
ATOM     14  C   UNL A   1     -26.124  -4.393  29.639  0.00  0.00    +0.017 C 
ATOM     15  C   UNL A   1     -23.829  -3.533  28.931  0.00  0.00    +0.072 C 
ATOM     16  C   UNL A   1     -24.126  -4.751  28.597  0.00  0.00    +0.017 C 
ATOM     17  C   UNL A   1     -25.318  -5.223  28.946  0.00  0.00    +0.003 C 
ENDBRANCH  11  12
ENDBRANCH   1  11
TORSDOF 3
ENDMDL
ENDMDL
