MODEL 1902
MODEL 1
REMARK VINA RESULT:    -6.408      0.000      0.000
REMARK INTER + INTRA:         -10.392
REMARK INTER:                  -9.405
REMARK INTRA:                  -0.987
REMARK UNBOUND:                -0.987
REMARK  Name = No_1902-gen_results/8p0m/2024-11-27-11-27-31/
REMARK  8 active torsions:
REMARK  status: ('A' for Active; 'I' for Inactive)
REMARK    1  A    between atoms: C_1  and  O_18
REMARK    2  A    between atoms: C_3  and  C_4
REMARK    3  A    between atoms: C_6  and  C_13
REMARK    4  A    between atoms: C_12  and  O_16
REMARK    5  A    between atoms: O_18  and  C_19
REMARK    6  A    between atoms: C_20  and  C_21
REMARK    7  A    between atoms: C_21  and  N_22
REMARK    8  A    between atoms: N_22  and  C_23
REMARK                            x       y       z     vdW  Elec       q    Type
REMARK                         _______ _______ _______ _____ _____    ______ ____
ROOT
ATOM      1  C   UNL A   1      -8.583   0.216  35.339  0.00  0.00    +0.152 A 
ATOM      2  C   UNL A   1      -9.010  -0.470  36.239  0.00  0.00    +0.038 A 
ATOM      3  C   UNL A   1     -10.159  -0.109  36.934  0.00  0.00    +0.003 A 
ATOM      4  C   UNL A   1      -9.164   1.544  35.084  0.00  0.00    +0.114 A 
ATOM      5  C   UNL A   1     -10.330   1.956  35.659  0.00  0.00    +0.010 A 
ATOM      6  C   UNL A   1     -10.890   1.118  36.637  0.00  0.00    +0.000 A 
ENDROOT
BRANCH   3   7
ATOM      7  C   UNL A   1     -10.777  -0.860  38.064  0.00  0.00    +0.003 A 
ATOM      8  C   UNL A   1     -11.659  -1.989  37.931  0.00  0.00    +0.000 A 
ATOM      9  C   UNL A   1     -12.135  -2.580  39.066  0.00  0.00    +0.003 A 
ATOM     10  C   UNL A   1     -11.688  -2.418  40.338  0.00  0.00    +0.037 A 
ATOM     11  C   UNL A   1     -10.323  -0.634  39.428  0.00  0.00    +0.037 A 
ATOM     12  C   UNL A   1     -10.784  -1.398  40.499  0.00  0.00    +0.139 A 
BRANCH  12  13
ATOM     13  O   UNL A   1     -10.271  -1.088  41.719  0.00  0.00    -0.471 OA
ATOM     14  C   UNL A   1     -11.053  -1.432  42.830  0.00  0.00    +0.253 C 
ENDBRANCH  12  13
ENDBRANCH   3   7
BRANCH   4  15
ATOM     15  C   UNL A   1      -8.594   2.466  34.038  0.00  0.00    +0.391 C 
ATOM     16  O   UNL A   1      -9.249   2.568  33.012  0.00  0.00    -0.240 OA
ATOM     17  O   UNL A   1      -7.458   2.973  34.159  0.00  0.00    -0.240 OA
ENDBRANCH   4  15
BRANCH   1  18
ATOM     18  O   UNL A   1      -7.443  -0.219  34.807  0.00  0.00    -0.451 OA
BRANCH  18  19
ATOM     19  C   UNL A   1      -7.281  -1.421  34.339  0.00  0.00    +0.177 C 
ATOM     20  C   UNL A   1      -6.209  -1.941  34.225  0.00  0.00    +0.038 C 
BRANCH  20  21
ATOM     21  C   UNL A   1      -5.122  -1.367  34.876  0.00  0.00    +0.141 C 
BRANCH  21  22
ATOM     22  N   UNL A   1      -4.018  -1.713  34.863  0.00  0.00    -0.232 NA
BRANCH  22  23
ATOM     23  C   UNL A   1      -3.212  -2.197  33.995  0.00  0.00    +0.076 C 
ATOM     24  C   UNL A   1      -2.176  -1.952  33.586  0.00  0.00    -0.008 C 
ATOM     25  C   UNL A   1      -1.370  -2.600  32.578  0.00  0.00    +0.032 C 
ENDBRANCH  22  23
ENDBRANCH  21  22
ENDBRANCH  20  21
ENDBRANCH  18  19
ENDBRANCH   1  18
TORSDOF 8
ENDMDL
ENDMDL
