MODEL 1904
MODEL 1
REMARK VINA RESULT:    -7.365      0.000      0.000
REMARK INTER + INTRA:          -9.715
REMARK INTER:                  -8.657
REMARK INTRA:                  -1.058
REMARK UNBOUND:                -1.058
REMARK  Name = No_1904-gen_results/8p0m/2024-11-27-11-27-31/
REMARK  3 active torsions:
REMARK  status: ('A' for Active; 'I' for Inactive)
REMARK    1  A    between atoms: C_4  and  C_6
REMARK    2  A    between atoms: C_6  and  C_8
REMARK    3  A    between atoms: C_6  and  C_14
REMARK                            x       y       z     vdW  Elec       q    Type
REMARK                         _______ _______ _______ _____ _____    ______ ____
ROOT
ATOM      1  C   UNL A   1     -23.899  -1.188  29.679  0.00  0.00    +0.093 C 
ENDROOT
BRANCH   1   5
ATOM      2  C   UNL A   1     -22.331   1.501  27.494  0.00  0.00    +0.011 A 
ATOM      3  C   UNL A   1     -23.048   1.521  26.722  0.00  0.00    +0.058 A 
ATOM      4  C   UNL A   1     -22.536   0.597  28.560  0.00  0.00    -0.003 A 
ATOM      5  C   UNL A   1     -23.640  -0.232  28.613  0.00  0.00    -0.014 A 
ATOM      6  C   UNL A   1     -24.294   0.751  26.536  0.00  0.00    +0.011 A 
ATOM      7  C   UNL A   1     -24.527  -0.141  27.548  0.00  0.00    -0.003 A 
ATOM      8 CL   UNL A   1     -22.903   2.639  25.242  0.00  0.00    -0.082 Cl
ENDBRANCH   1   5
BRANCH   1   9
ATOM      9  C   UNL A   1     -24.455  -2.317  29.519  0.00  0.00    -0.015 A 
ATOM     10  C   UNL A   1     -23.801  -3.475  28.961  0.00  0.00    -0.004 A 
ATOM     11  C   UNL A   1     -25.784  -2.569  30.034  0.00  0.00    -0.004 A 
ATOM     12  C   UNL A   1     -26.303  -3.889  29.859  0.00  0.00    -0.000 A 
ATOM     13  C   UNL A   1     -25.640  -4.888  29.278  0.00  0.00    -0.000 A 
ATOM     14  C   UNL A   1     -24.337  -4.657  28.732  0.00  0.00    -0.000 A 
ENDBRANCH   1   9
BRANCH   1  15
ATOM     15  C   UNL A   1     -23.478  -0.691  31.083  0.00  0.00    +0.247 C 
ATOM     16 CL   UNL A   1     -22.780  -1.088  31.690  0.00  0.00    -0.076 Cl
ATOM     17  F   UNL A   1     -24.379   0.367  31.278  0.00  0.00    -0.219 F 
ENDBRANCH   1  15
TORSDOF 3
ENDMDL
ENDMDL
