MODEL 1906
MODEL 1
REMARK VINA RESULT:    -8.193      0.000      0.000
REMARK INTER + INTRA:         -10.983
REMARK INTER:                 -10.109
REMARK INTRA:                  -0.873
REMARK UNBOUND:                -0.873
REMARK  Name = No_1906-gen_results/8p0m/2024-11-27-11-27-31/
REMARK  4 active torsions:
REMARK  status: ('A' for Active; 'I' for Inactive)
REMARK    1  A    between atoms: C_1  and  C_2
REMARK    2  A    between atoms: C_1  and  C_8
REMARK    3  A    between atoms: C_5  and  C_10
REMARK    4  A    between atoms: C_21  and  C_23
REMARK                            x       y       z     vdW  Elec       q    Type
REMARK                         _______ _______ _______ _____ _____    ______ ____
ROOT
ATOM      1  C   UNL A   1      -9.794  -0.765  41.025  0.00  0.00    +0.230 C 
ATOM      2  N   UNL A   1      -9.810  -0.127  39.807  0.00  0.00    -0.279 N 
ATOM      3  O   UNL A   1      -9.572  -0.114  42.008  0.00  0.00    -0.275 OA
ATOM      4  C   UNL A   1     -10.161  -0.720  38.581  0.00  0.00    +0.093 C 
ATOM      5  C   UNL A   1      -9.640   1.348  39.689  0.00  0.00    +0.093 C 
ATOM      6  C   UNL A   1     -11.078  -0.007  37.692  0.00  0.00    +0.022 C 
ATOM      7  C   UNL A   1     -10.434   1.112  37.212  0.00  0.00    +0.004 C 
ATOM      8  C   UNL A   1     -11.125   1.900  36.306  0.00  0.00    +0.000 C 
ATOM      9  C   UNL A   1     -10.299   1.932  38.543  0.00  0.00    +0.022 C 
ATOM     10  C   UNL A   1      -9.015   0.884  36.768  0.00  0.00    +0.004 C 
ATOM     11  C   UNL A   1      -8.752   0.460  35.814  0.00  0.00    +0.022 C 
ATOM     12  C   UNL A   1     -10.960   1.450  34.909  0.00  0.00    +0.000 C 
ATOM     13  C   UNL A   1      -9.678   0.779  34.606  0.00  0.00    +0.004 C 
ATOM     14  C   UNL A   1     -12.599   1.820  36.653  0.00  0.00    +0.000 C 
ATOM     15  C   UNL A   1     -10.661   3.411  36.244  0.00  0.00    +0.000 C 
ATOM     16  C   UNL A   1     -11.528   4.301  36.351  0.00  0.00    +0.000 C 
ATOM     17  C   UNL A   1     -13.527   2.930  36.557  0.00  0.00    +0.000 C 
ATOM     18  C   UNL A   1     -12.911   4.170  36.596  0.00  0.00    +0.000 C 
ATOM     19  C   UNL A   1     -11.903   1.585  33.842  0.00  0.00    +0.000 C 
ENDROOT
BRANCH  11  20
ATOM     20  C   UNL A   1      -7.445  -0.114  35.349  0.00  0.00    -0.022 A 
ATOM     21  C   UNL A   1      -6.381   0.320  35.689  0.00  0.00    -0.004 A 
ATOM     22  C   UNL A   1      -5.090  -0.212  35.333  0.00  0.00    -0.000 A 
ATOM     23  C   UNL A   1      -4.981  -1.447  34.731  0.00  0.00    -0.000 A 
ATOM     24  C   UNL A   1      -6.190  -2.053  34.469  0.00  0.00    -0.000 A 
ATOM     25  C   UNL A   1      -7.412  -1.499  34.784  0.00  0.00    -0.004 A 
ENDBRANCH  11  20
BRANCH   1  26
ATOM     26  C   UNL A   1      -9.928  -2.227  41.011  0.00  0.00    +0.112 C 
BRANCH  26  27
ATOM     27  C   UNL A   1      -9.617  -2.775  42.044  0.00  0.00    -0.013 A 
ATOM     28  C   UNL A   1      -8.340  -3.204  42.365  0.00  0.00    -0.004 A 
ATOM     29  C   UNL A   1      -7.956  -3.931  43.551  0.00  0.00    +0.008 A 
ATOM     30  C   UNL A   1      -8.954  -4.246  44.504  0.00  0.00    +0.098 A 
ATOM     31  C   UNL A   1     -10.285  -3.831  44.237  0.00  0.00    +0.008 A 
ATOM     32  C   UNL A   1     -10.553  -3.176  43.074  0.00  0.00    -0.004 A 
BRANCH  30  33
ATOM     33  C   UNL A   1      -8.639  -4.959  45.730  0.00  0.00    +0.477 C 
ATOM     34  N   UNL A   1      -9.659  -5.626  46.337  0.00  0.00    +0.205 NA
ATOM     35  N   UNL A   1      -7.381  -5.231  46.051  0.00  0.00    +0.205 NA
ENDBRANCH  30  33
ENDBRANCH  26  27
ENDBRANCH   1  26
TORSDOF 4
ENDMDL
ENDMDL
