MODEL 1907
MODEL 1
REMARK VINA RESULT:    -6.454      0.000      0.000
REMARK INTER + INTRA:          -8.646
REMARK INTER:                  -7.963
REMARK INTRA:                  -0.682
REMARK UNBOUND:                -0.682
REMARK  Name = No_1907-gen_results/8p0m/2024-11-27-11-27-31/
REMARK  4 active torsions:
REMARK  status: ('A' for Active; 'I' for Inactive)
REMARK    1  A    between atoms: C_1  and  C_11
REMARK    2  A    between atoms: C_3  and  C_14
REMARK    3  A    between atoms: C_5  and  C_7
REMARK    4  A    between atoms: C_14  and  C_15
REMARK                            x       y       z     vdW  Elec       q    Type
REMARK                         _______ _______ _______ _____ _____    ______ ____
ROOT
ATOM      1  C   UNL A   1     -29.812  -9.738  31.912  0.00  0.00    +0.090 A 
ATOM      2  C   UNL A   1     -29.926 -10.152  30.781  0.00  0.00    +0.060 A 
ATOM      3  C   UNL A   1     -29.194 -11.192  30.236  0.00  0.00    -0.007 A 
ATOM      4  C   UNL A   1     -28.254 -11.842  31.090  0.00  0.00    +0.004 A 
ATOM      5  C   UNL A   1     -28.261 -11.456  32.382  0.00  0.00    +0.080 A 
ATOM      6  C   UNL A   1     -29.075 -10.495  32.825  0.00  0.00    +0.014 A 
ATOM      7 CL   UNL A   1     -30.989  -9.302  29.565  0.00  0.00    -0.082 Cl
ENDROOT
BRANCH   5   8
ATOM      8  C   UNL A   1     -27.315 -12.178  33.255  0.00  0.00    +0.388 C 
ATOM      9  O   UNL A   1     -27.445 -12.260  34.459  0.00  0.00    -0.241 OA
ATOM     10  O   UNL A   1     -26.406 -12.964  32.686  0.00  0.00    -0.241 OA
ENDBRANCH   5   8
BRANCH   1  11
ATOM     11  C   UNL A   1     -30.699  -8.581  32.443  0.00  0.00    +0.389 C 
ATOM     12  O   UNL A   1     -30.376  -7.493  32.499  0.00  0.00    -0.240 OA
ATOM     13  O   UNL A   1     -31.782  -8.975  33.112  0.00  0.00    -0.240 OA
ENDBRANCH   1  11
BRANCH   3  14
ATOM     14  C   UNL A   1     -29.263 -11.541  28.754  0.00  0.00    +0.055 C 
BRANCH  14  15
ATOM     15  C   UNL A   1     -29.500 -12.433  28.222  0.00  0.00    +0.001 A 
ATOM     16  C   UNL A   1     -30.410 -13.583  28.740  0.00  0.00    +0.095 A 
ATOM     17  N   UNL A   1     -30.814 -14.575  27.913  0.00  0.00    -0.243 NA
ATOM     18  C   UNL A   1     -30.289 -14.467  26.623  0.00  0.00    +0.099 A 
ATOM     19  C   UNL A   1     -29.475 -13.710  26.100  0.00  0.00    +0.020 A 
ATOM     20  C   UNL A   1     -29.114 -12.710  26.821  0.00  0.00    -0.001 A 
ENDBRANCH  14  15
ENDBRANCH   3  14
TORSDOF 4
ENDMDL
ENDMDL
