MODEL 1908
MODEL 1
REMARK VINA RESULT:    -6.530      0.000      0.000
REMARK INTER + INTRA:          -7.287
REMARK INTER:                  -6.912
REMARK INTRA:                  -0.375
REMARK UNBOUND:                -0.375
REMARK  Name = No_1908-gen_results/8p0m/2024-11-27-11-27-31/
REMARK  1 active torsions:
REMARK  status: ('A' for Active; 'I' for Inactive)
REMARK    1  A    between atoms: C_4  and  C_7
REMARK                            x       y       z     vdW  Elec       q    Type
REMARK                         _______ _______ _______ _____ _____    ______ ____
ROOT
ATOM      1  C   UNL A   1     -26.598  -3.931  29.855  0.00  0.00    +0.000 A 
ATOM      2  C   UNL A   1     -26.164  -4.856  29.598  0.00  0.00    +0.000 A 
ATOM      3  C   UNL A   1     -25.763  -2.734  29.664  0.00  0.00    +0.000 A 
ATOM      4  C   UNL A   1     -24.491  -2.833  29.030  0.00  0.00    +0.000 A 
ATOM      5  C   UNL A   1     -24.082  -4.099  28.694  0.00  0.00    +0.000 A 
ATOM      6  C   UNL A   1     -24.879  -5.166  28.916  0.00  0.00    +0.000 A 
ENDROOT
BRANCH   4   7
ATOM      7  C   UNL A   1     -23.667  -1.671  28.817  0.00  0.00    +0.000 A 
ATOM      8  C   UNL A   1     -22.758  -1.460  29.223  0.00  0.00    +0.000 A 
ATOM      9  C   UNL A   1     -21.982  -0.128  29.159  0.00  0.00    +0.000 A 
ATOM     10  C   UNL A   1     -22.623   0.806  28.368  0.00  0.00    +0.000 A 
ATOM     11  C   UNL A   1     -24.329  -0.595  28.003  0.00  0.00    +0.000 A 
ATOM     12  C   UNL A   1     -23.792   0.596  27.844  0.00  0.00    +0.000 A 
ENDBRANCH   4   7
TORSDOF 1
ENDMDL
ENDMDL
