MODEL 1909
MODEL 1
REMARK VINA RESULT:    -6.861      0.000      0.000
REMARK INTER + INTRA:          -9.703
REMARK INTER:                  -8.867
REMARK INTRA:                  -0.836
REMARK UNBOUND:                -0.836
REMARK  Name = No_1909-gen_results/8p0m/2024-11-27-11-27-31/
REMARK  5 active torsions:
REMARK  status: ('A' for Active; 'I' for Inactive)
REMARK    1  A    between atoms: C_3  and  C_8
REMARK    2  A    between atoms: C_6  and  O_7
REMARK    3  A    between atoms: O_7  and  C_14
REMARK    4  A    between atoms: C_14  and  C_15
REMARK    5  A    between atoms: C_15  and  C_16
REMARK                            x       y       z     vdW  Elec       q    Type
REMARK                         _______ _______ _______ _____ _____    ______ ____
ROOT
ATOM      1  C   UNL A   1     -27.528 -11.949  33.059  0.00  0.00    +0.178 C 
ATOM      2  C   UNL A   1     -27.858 -12.377  31.977  0.00  0.00    +0.071 C 
ATOM      3  C   UNL A   1     -28.806 -11.718  31.202  0.00  0.00    +0.030 C 
ATOM      4  C   UNL A   1     -29.459 -10.528  31.685  0.00  0.00    +0.008 C 
ATOM      5  C   UNL A   1     -29.035 -10.116  32.955  0.00  0.00    +0.037 C 
ATOM      6  C   UNL A   1     -28.147 -10.784  33.654  0.00  0.00    +0.172 C 
ATOM      7  O   UNL A   1     -26.751 -12.577  33.949  0.00  0.00    -0.293 OA
ENDROOT
BRANCH   3   8
ATOM      8  C   UNL A   1     -29.290 -12.144  29.838  0.00  0.00    -0.022 A 
ATOM      9  C   UNL A   1     -28.962 -11.594  28.722  0.00  0.00    -0.004 A 
ATOM     10  C   UNL A   1     -29.415 -12.132  27.451  0.00  0.00    -0.000 A 
ATOM     11  C   UNL A   1     -29.984 -13.414  27.431  0.00  0.00    -0.000 A 
ATOM     12  C   UNL A   1     -29.872 -13.479  29.749  0.00  0.00    -0.004 A 
ATOM     13  C   UNL A   1     -30.224 -14.039  28.559  0.00  0.00    -0.000 A 
ENDBRANCH   3   8
BRANCH   6  14
ATOM     14  O   UNL A   1     -27.819 -10.337  34.897  0.00  0.00    -0.341 OA
BRANCH  14  15
ATOM     15  C   UNL A   1     -27.127  -9.180  35.089  0.00  0.00    +0.243 C 
BRANCH  15  16
ATOM     16  C   UNL A   1     -27.752  -8.245  35.994  0.00  0.00    +0.462 C 
ATOM     17  O   UNL A   1     -28.414  -9.011  37.061  0.00  0.00    -0.263 OA
ATOM     18  O   UNL A   1     -26.603  -7.562  36.692  0.00  0.00    -0.263 OA
BRANCH  16  19
ATOM     19  C   UNL A   1     -28.486  -7.271  35.426  0.00  0.00    +0.480 C 
ATOM     20  F   UNL A   1     -28.769  -7.216  34.308  0.00  0.00    -0.163 F 
ATOM     21  F   UNL A   1     -28.033  -5.994  35.774  0.00  0.00    -0.163 F 
ATOM     22  F   UNL A   1     -29.771  -7.203  36.214  0.00  0.00    -0.163 F 
ENDBRANCH  16  19
ENDBRANCH  15  16
ENDBRANCH  14  15
ENDBRANCH   6  14
TORSDOF 5
ENDMDL
ENDMDL
