MODEL 190
MODEL 1
REMARK VINA RESULT:    -7.881      0.000      0.000
REMARK INTER + INTRA:         -10.530
REMARK INTER:                  -9.724
REMARK INTRA:                  -0.806
REMARK UNBOUND:                -0.806
REMARK  Name = No_190-gen_results/8p0m/2024-11-27-11-27-31/
REMARK  4 active torsions:
REMARK  status: ('A' for Active; 'I' for Inactive)
REMARK    1  A    between atoms: C_6  and  C_18
REMARK    2  A    between atoms: C_10  and  C_15
REMARK    3  A    between atoms: N_20  and  C_21
REMARK    4  A    between atoms: C_21  and  C_22
REMARK                            x       y       z     vdW  Elec       q    Type
REMARK                         _______ _______ _______ _____ _____    ______ ____
ROOT
ATOM      1  C   UNL A   1     -28.013 -11.571   8.602  0.00  0.00    +0.086 A 
ATOM      2  C   UNL A   1     -27.894 -12.638   8.045  0.00  0.00    +0.018 A 
ATOM      3  C   UNL A   1     -27.008 -12.799   6.985  0.00  0.00    +0.002 A 
ATOM      4  C   UNL A   1     -26.239 -11.688   6.486  0.00  0.00    +0.000 A 
ATOM      5  C   UNL A   1     -26.456 -10.486   7.173  0.00  0.00    +0.006 A 
ATOM      6  C   UNL A   1     -27.318 -10.383   8.159  0.00  0.00    +0.073 A 
ATOM      7  C   UNL A   1     -28.625 -13.882   8.406  0.00  0.00    +0.003 A 
ATOM      8  C   UNL A   1     -29.266 -14.099   9.172  0.00  0.00    +0.018 A 
ATOM      9  C   UNL A   1     -29.632 -12.963  10.130  0.00  0.00    +0.088 A 
ATOM     10  C   UNL A   1     -30.100 -13.276  11.371  0.00  0.00    +0.097 A 
ATOM     11  C   UNL A   1     -30.461 -14.590  11.628  0.00  0.00    +0.008 A 
ATOM     12  C   UNL A   1     -30.262 -15.689  10.796  0.00  0.00    +0.000 A 
ATOM     13  C   UNL A   1     -29.604 -15.467   9.660  0.00  0.00    +0.002 A 
ATOM     14  N   UNL A   1     -28.925 -11.548   9.709  0.00  0.00    -0.245 NA
ENDROOT
BRANCH  10  15
ATOM     15  C   UNL A   1     -30.084 -12.212  12.213  0.00  0.00    +0.389 C 
ATOM     16  O   UNL A   1     -29.119 -11.977  12.853  0.00  0.00    -0.240 OA
ATOM     17  O   UNL A   1     -31.140 -11.372  12.258  0.00  0.00    -0.240 OA
ENDBRANCH  10  15
BRANCH   6  18
ATOM     18  C   UNL A   1     -27.601  -9.063   8.805  0.00  0.00    +0.267 C 
ATOM     19  O   UNL A   1     -26.990  -8.633   9.590  0.00  0.00    -0.268 OA
ATOM     20  N   UNL A   1     -28.764  -8.466   8.416  0.00  0.00    -0.197 NA
BRANCH  20  21
ATOM     21  C   UNL A   1     -29.137  -7.156   8.900  0.00  0.00    +0.142 C 
BRANCH  21  22
ATOM     22  C   UNL A   1     -30.141  -7.170   9.767  0.00  0.00    -0.001 A 
ATOM     23  C   UNL A   1     -30.589  -5.998  10.160  0.00  0.00    -0.003 A 
ATOM     24  C   UNL A   1     -31.473  -5.697  10.600  0.00  0.00    -0.000 A 
ATOM     25  C   UNL A   1     -32.519  -6.766  11.037  0.00  0.00    -0.000 A 
ATOM     26  C   UNL A   1     -32.106  -8.075  10.748  0.00  0.00    -0.000 A 
ATOM     27  C   UNL A   1     -30.985  -8.297  10.013  0.00  0.00    -0.003 A 
ENDBRANCH  21  22
ENDBRANCH  20  21
ENDBRANCH   6  18
TORSDOF 4
ENDMDL
ENDMDL
