REMARK  Name = outputs/IAG933/test6/raw/output_191_IAG933_linker_design_.xyz
REMARK  18 active torsions:
REMARK  status: ('A' for Active; 'I' for Inactive)
REMARK    1  A    between atoms: C_1  and  C_2
REMARK    2  A    between atoms: C_1  and  C_8
REMARK    3  A    between atoms: C_1  and  C_37
REMARK    4  A    between atoms: C_13  and  C_31
REMARK    5  A    between atoms: C_14  and  C_15
REMARK    6  A    between atoms: C_21  and  O_22
REMARK    7  A    between atoms: O_22  and  C_23
REMARK    8  A    between atoms: C_23  and  C_24
REMARK    9  A    between atoms: N_28  and  C_31
REMARK   10  A    between atoms: N_28  and  C_37
REMARK   11  A    between atoms: C_30  and  C_39
REMARK   12  A    between atoms: C_31  and  C_33
REMARK   13  A    between atoms: C_33  and  C_35
REMARK   14  A    between atoms: C_34  and  C_37
REMARK   15  A    between atoms: C_34  and  C_38
REMARK   16  A    between atoms: C_38  and  C_40
REMARK   17  A    between atoms: C_39  and  C_41
REMARK   18  A    between atoms: C_40  and  C_41
REMARK                            x       y       z     vdW  Elec       q    Type
REMARK                         _______ _______ _______ _____ _____    ______ ____
ROOT
ATOM      1  C   UNL A   1     -25.332  -0.134  28.964  0.00  0.00    +0.078 C 
ENDROOT
BRANCH   1   2
ATOM      2  N   UNL A   1     -24.929   1.111  28.715  0.00  0.00    -0.220 NA
BRANCH   2   3
ATOM      3  C   UNL A   1     -24.684   1.210  27.428  0.00  0.00    +0.080 C 
BRANCH   3   4
ATOM      4  C   UNL A   1     -25.688   1.614  26.461  0.00  0.00    +0.086 C 
ATOM      5  C   UNL A   1     -26.250   2.920  26.395  0.00  0.00    +0.056 C 
ATOM      6  C   UNL A   1     -27.438   3.091  25.645  0.00  0.00    +0.102 C 
ATOM      7  N   UNL A   1     -28.075   2.089  25.003  0.00  0.00    -0.212 NA
ATOM      8  C   UNL A   1     -27.543   0.849  25.079  0.00  0.00    +0.234 C 
ATOM      9  C   UNL A   1     -26.354   0.576  25.777  0.00  0.00    +0.241 C 
ATOM     10  F   UNL A   1     -25.860  -0.681  25.795  0.00  0.00    -0.227 F 
BRANCH   5  11
ATOM     11  C   UNL A   1     -25.642   4.093  27.123  0.00  0.00    +0.263 C 
ATOM     12  N   UNL A   1     -25.614   5.252  26.449  0.00  0.00    -0.200 NA
ATOM     13  C   UNL A   1     -25.026   6.479  26.963  0.00  0.00    +0.139 C 
ATOM     14  O   UNL A   1     -25.143   3.966  28.243  0.00  0.00    -0.269 OA
ENDBRANCH   5  11
BRANCH   8  15
ATOM     15  O   UNL A   1     -28.193  -0.208  24.477  0.00  0.00    -0.459 OA
BRANCH  15  16
ATOM     16  C   UNL A   1     -29.460   0.005  23.866  0.00  0.00    +0.242 C 
BRANCH  16  17
ATOM     17  C   UNL A   1     -30.065  -1.377  23.573  0.00  0.00    +0.229 C 
ATOM     18  O   UNL A   1     -30.729  -1.878  24.721  0.00  0.00    -0.216 OA
ENDBRANCH  16  17
ENDBRANCH  15  16
ENDBRANCH   8  15
ENDBRANCH   3   4
BRANCH   3  19
ATOM     19  C   UNL A   1     -23.395   0.876  26.918  0.00  0.00    +0.018 C 
BRANCH  19  21
ATOM     20  C   UNL A   1     -21.056   1.657  27.237  0.00  0.00    +0.000 C 
ATOM     21  C   UNL A   1     -22.268   1.061  27.965  0.00  0.00    +0.001 C 
ENDBRANCH  19  21
ENDBRANCH   3  19
ENDBRANCH   2   3
ENDBRANCH   1   2
BRANCH   1  22
ATOM     22  C   UNL A   1     -24.855  -1.012  30.143  0.00  0.00    +0.054 C 
BRANCH  22  23
ATOM     23  C   UNL A   1     -24.973  -2.505  29.788  0.00  0.00    -0.020 C 
ATOM     24  C   UNL A   1     -23.906  -3.173  29.146  0.00  0.00    -0.004 C 
ATOM     25  C   UNL A   1     -23.989  -4.549  28.853  0.00  0.00    -0.000 C 
ATOM     26  C   UNL A   1     -25.137  -5.280  29.205  0.00  0.00    -0.000 C 
ATOM     27  C   UNL A   1     -26.232  -4.611  29.784  0.00  0.00    -0.000 C 
ATOM     28  C   UNL A   1     -26.155  -3.232  30.065  0.00  0.00    -0.004 C 
ENDBRANCH  22  23
BRANCH  22  29
ATOM     29  C   UNL A   1     -25.387  -0.679  31.571  0.00  0.00    +0.078 C 
ATOM     30  C   UNL A   1     -25.189   0.773  32.028  0.00  0.00    +0.019 C 
ATOM     31  C   UNL A   1     -25.336   0.684  33.544  0.00  0.00    +0.020 C 
ATOM     32  C   UNL A   1     -24.829  -0.715  33.905  0.00  0.00    +0.089 C 
ATOM     33  N   UNL A   1     -24.758  -1.481  32.646  0.00  0.00    -0.219 NA
ENDBRANCH  22  29
ENDBRANCH   1  22
BRANCH   1  34
ATOM     34  C   UNL A   1     -26.785  -0.632  28.661  0.00  0.00    +0.018 C 
BRANCH  34  35
ATOM     35  C   UNL A   1     -27.654   0.042  29.715  0.00  0.00    +0.002 C 
BRANCH  35  36
ATOM     36  C   UNL A   1     -27.189   1.489  29.573  0.00  0.00    +0.000 C 
BRANCH  36  37
ATOM     37  C   UNL A   1     -27.818   2.769  30.204  0.00  0.00    +0.005 C 
BRANCH  37  38
ATOM     38  C   UNL A   1     -29.136   2.979  29.464  0.00  0.00    +0.026 C 
BRANCH  38  39
ATOM     39  C   UNL A   1     -29.647   4.413  29.737  0.00  0.00    -0.022 C 
ATOM     40  C   UNL A   1     -30.997   6.487  30.912  0.00  0.00    +0.196 C 
ATOM     41  C   UNL A   1     -29.063   5.113  30.787  0.00  0.00    -0.001 C 
ATOM     42  C   UNL A   1     -30.735   4.979  29.078  0.00  0.00    -0.001 C 
ATOM     43  O   UNL A   1     -31.732   7.481  31.551  0.00  0.00    -0.287 OA
ATOM     44  C   UNL A   1     -29.755   6.120  31.421  0.00  0.00    +0.042 C 
ATOM     45  C   UNL A   1     -31.499   5.941  29.743  0.00  0.00    +0.042 C 
ENDBRANCH  38  39
ENDBRANCH  37  38
ENDBRANCH  36  37
ENDBRANCH  35  36
ENDBRANCH  34  35
ENDBRANCH   1  34
TORSDOF 18
