MODEL 1912
MODEL 1
REMARK VINA RESULT:    -5.285      0.000      0.000
REMARK INTER + INTRA:          -5.743
REMARK INTER:                  -5.594
REMARK INTRA:                  -0.148
REMARK UNBOUND:                -0.148
REMARK  Name = No_1912-gen_results/8p0m/2024-11-27-11-27-31/
REMARK  1 active torsions:
REMARK  status: ('A' for Active; 'I' for Inactive)
REMARK    1  A    between atoms: C_4  and  C_6
REMARK                            x       y       z     vdW  Elec       q    Type
REMARK                         _______ _______ _______ _____ _____    ______ ____
ROOT
ATOM      1  C   UNL A   1     -24.607  -5.266  28.897  0.00  0.00    -0.000 A 
ATOM      2  C   UNL A   1     -25.593  -5.218  29.266  0.00  0.00    -0.000 A 
ATOM      3  C   UNL A   1     -23.932  -3.982  28.652  0.00  0.00    +0.004 A 
ATOM      4  C   UNL A   1     -24.546  -2.754  29.037  0.00  0.00    +0.071 A 
ATOM      5  C   UNL A   1     -26.424  -4.100  29.791  0.00  0.00    -0.000 A 
ATOM      6  C   UNL A   1     -25.815  -2.869  29.603  0.00  0.00    +0.004 A 
ENDROOT
BRANCH   4   7
ATOM      7  C   UNL A   1     -23.954  -1.497  28.829  0.00  0.00    +0.419 C 
ATOM      8  F   UNL A   1     -24.261  -0.960  27.798  0.00  0.00    -0.166 F 
ATOM      9  F   UNL A   1     -22.536  -1.609  28.830  0.00  0.00    -0.166 F 
ATOM     10  F   UNL A   1     -24.224  -0.664  29.881  0.00  0.00    -0.166 F 
ENDBRANCH   4   7
TORSDOF 1
ENDMDL
ENDMDL
