MODEL 1915
MODEL 1
REMARK VINA RESULT:    -4.288      0.000      0.000
REMARK INTER + INTRA:          -4.288
REMARK INTER:                  -4.288
REMARK INTRA:                   0.000
REMARK UNBOUND:                 0.000
REMARK  Name = No_1915-gen_results/8p0m/2024-11-27-11-27-31/
REMARK  0 active torsions:
REMARK  status: ('A' for Active; 'I' for Inactive)
REMARK                            x       y       z     vdW  Elec       q    Type
REMARK                         _______ _______ _______ _____ _____    ______ ____
ROOT
ATOM      1  C   UNL A   1     -26.076  -4.774  29.661  0.00  0.00    +0.000 A 
ATOM      2  C   UNL A   1     -26.157  -3.568  29.705  0.00  0.00    +0.000 A 
ATOM      3  C   UNL A   1     -25.149  -2.718  29.295  0.00  0.00    +0.000 A 
ATOM      4  C   UNL A   1     -23.967  -3.298  28.755  0.00  0.00    +0.000 A 
ATOM      5  C   UNL A   1     -23.992  -4.638  28.569  0.00  0.00    +0.000 A 
ATOM      6  C   UNL A   1     -25.020  -5.370  28.955  0.00  0.00    +0.000 A 
ENDROOT
TORSDOF 0
ENDMDL
ENDMDL
