MODEL 1916
MODEL 1
REMARK VINA RESULT:    -5.107      0.000      0.000
REMARK INTER + INTRA:          -6.189
REMARK INTER:                  -6.003
REMARK INTRA:                  -0.186
REMARK UNBOUND:                -0.186
REMARK  Name = No_1916-gen_results/8p0m/2024-11-27-11-27-31/
REMARK  3 active torsions:
REMARK  status: ('A' for Active; 'I' for Inactive)
REMARK    1  A    between atoms: C_6  and  O_7
REMARK    2  A    between atoms: O_7  and  C_9
REMARK    3  A    between atoms: C_9  and  C_10
REMARK                            x       y       z     vdW  Elec       q    Type
REMARK                         _______ _______ _______ _____ _____    ______ ____
ROOT
ATOM      1  C   UNL A   1     -30.298 -10.008  30.401  0.00  0.00    +0.038 A 
ATOM      2  C   UNL A   1     -30.738 -10.015  29.275  0.00  0.00    +0.015 A 
ATOM      3  C   UNL A   1     -30.235 -10.884  28.313  0.00  0.00    +0.058 A 
ATOM      4  C   UNL A   1     -29.141 -11.770  28.615  0.00  0.00    +0.015 A 
ATOM      5  C   UNL A   1     -28.677 -11.680  29.934  0.00  0.00    +0.038 A 
ATOM      6  C   UNL A   1     -29.177 -10.829  30.801  0.00  0.00    +0.139 A 
ATOM      7 CL   UNL A   1     -30.790 -10.989  26.666  0.00  0.00    -0.082 Cl
ENDROOT
BRANCH   6   8
ATOM      8  O   UNL A   1     -28.642 -10.778  32.052  0.00  0.00    -0.464 OA
BRANCH   8   9
ATOM      9  C   UNL A   1     -28.654 -11.898  32.871  0.00  0.00    +0.319 C 
BRANCH   9  10
ATOM     10  C   UNL A   1     -27.379 -12.161  33.373  0.00  0.00    +0.408 C 
ATOM     11  O   UNL A   1     -27.170 -12.320  34.477  0.00  0.00    -0.241 OA
ATOM     12  O   UNL A   1     -26.482 -12.763  32.572  0.00  0.00    -0.241 OA
ENDBRANCH   9  10
ENDBRANCH   8   9
ENDBRANCH   6   8
TORSDOF 3
ENDMDL
ENDMDL
