MODEL 1919
MODEL 1
REMARK VINA RESULT:    -6.416      0.000      0.000
REMARK INTER + INTRA:         -10.207
REMARK INTER:                  -9.042
REMARK INTRA:                  -1.166
REMARK UNBOUND:                -1.166
REMARK  Name = No_1919-gen_results/8p0m/2024-11-27-11-27-31/
REMARK  7 active torsions:
REMARK  status: ('A' for Active; 'I' for Inactive)
REMARK    1  A    between atoms: C_3  and  C_8
REMARK    2  A    between atoms: C_6  and  O_7
REMARK    3  A    between atoms: O_7  and  C_14
REMARK    4  A    between atoms: C_14  and  C_15
REMARK    5  A    between atoms: C_15  and  C_16
REMARK    6  A    between atoms: C_17  and  C_18
REMARK    7  A    between atoms: C_19  and  C_20
REMARK                            x       y       z     vdW  Elec       q    Type
REMARK                         _______ _______ _______ _____ _____    ______ ____
ROOT
ATOM      1  C   UNL A   1     -24.829   0.133  25.319  0.00  0.00    +0.037 A 
ATOM      2  C   UNL A   1     -25.905  -0.011  24.787  0.00  0.00    +0.003 A 
ATOM      3  C   UNL A   1     -26.864   0.998  24.700  0.00  0.00    +0.000 A 
ATOM      4  C   UNL A   1     -26.600   2.279  25.326  0.00  0.00    +0.003 A 
ATOM      5  C   UNL A   1     -25.328   2.371  25.935  0.00  0.00    +0.037 A 
ATOM      6  C   UNL A   1     -24.493   1.363  25.972  0.00  0.00    +0.139 A 
ENDROOT
BRANCH   3   7
ATOM      7  C   UNL A   1     -28.215   0.895  24.058  0.00  0.00    +0.000 A 
ATOM      8  C   UNL A   1     -28.852   1.986  23.656  0.00  0.00    +0.000 A 
ATOM      9  C   UNL A   1     -30.177   1.922  23.218  0.00  0.00    +0.000 A 
ATOM     10  C   UNL A   1     -30.892   0.726  23.146  0.00  0.00    +0.000 A 
ATOM     11  C   UNL A   1     -28.953  -0.328  24.107  0.00  0.00    +0.000 A 
ATOM     12  C   UNL A   1     -30.287  -0.415  23.603  0.00  0.00    +0.000 A 
ENDBRANCH   3   7
BRANCH   6  13
ATOM     13  O   UNL A   1     -23.313   1.550  26.634  0.00  0.00    -0.475 OA
BRANCH  13  14
ATOM     14  C   UNL A   1     -23.196   1.473  28.007  0.00  0.00    +0.210 C 
BRANCH  14  15
ATOM     15  C   UNL A   1     -22.380   0.397  28.401  0.00  0.00    +0.073 C 
BRANCH  15  16
ATOM     16  C   UNL A   1     -23.154  -0.672  28.778  0.00  0.00    -0.022 C 
ATOM     17  C   UNL A   1     -24.231  -0.865  28.943  0.00  0.00    -0.004 C 
BRANCH  17  18
ATOM     18  C   UNL A   1     -25.124  -1.397  28.941  0.00  0.00    -0.000 C 
ATOM     19  C   UNL A   1     -25.334  -2.880  28.925  0.00  0.00    -0.000 C 
BRANCH  19  20
ATOM     20  C   UNL A   1     -24.262  -3.679  29.193  0.00  0.00    -0.000 C 
ATOM     21  C   UNL A   1     -24.167  -4.902  28.577  0.00  0.00    -0.000 C 
ENDBRANCH  19  20
ENDBRANCH  17  18
ENDBRANCH  15  16
ENDBRANCH  14  15
ENDBRANCH  13  14
ENDBRANCH   6  13
TORSDOF 7
ENDMDL
ENDMDL
