MODEL 1920
MODEL 1
REMARK VINA RESULT:    -7.521      0.000      0.000
REMARK INTER + INTRA:          -9.050
REMARK INTER:                  -8.401
REMARK INTRA:                  -0.650
REMARK UNBOUND:                -0.650
REMARK  Name = No_1920-gen_results/8p0m/2024-11-27-11-27-31/
REMARK  2 active torsions:
REMARK  status: ('A' for Active; 'I' for Inactive)
REMARK    1  A    between atoms: C_2  and  C_7
REMARK    2  A    between atoms: C_6  and  C_13
REMARK                            x       y       z     vdW  Elec       q    Type
REMARK                         _______ _______ _______ _____ _____    ______ ____
ROOT
ATOM      1  C   UNL A   1     -24.139  -0.305  27.906  0.00  0.00    +0.004 A 
ATOM      2  C   UNL A   1     -23.785  -1.182  28.659  0.00  0.00    -0.000 A 
ATOM      3  C   UNL A   1     -22.534  -1.146  29.265  0.00  0.00    -0.000 A 
ATOM      4  C   UNL A   1     -21.602  -0.085  28.979  0.00  0.00    -0.000 A 
ATOM      5  C   UNL A   1     -22.085   0.874  28.079  0.00  0.00    +0.004 A 
ATOM      6  C   UNL A   1     -23.270   0.785  27.520  0.00  0.00    +0.071 A 
ENDROOT
BRANCH   2   7
ATOM      7  C   UNL A   1     -24.603  -2.363  29.047  0.00  0.00    -0.000 A 
ATOM      8  C   UNL A   1     -25.711  -2.416  29.556  0.00  0.00    -0.000 A 
ATOM      9  C   UNL A   1     -26.486  -3.642  29.787  0.00  0.00    -0.000 A 
ATOM     10  C   UNL A   1     -25.874  -4.857  29.413  0.00  0.00    +0.000 A 
ATOM     11  C   UNL A   1     -23.870  -3.630  28.783  0.00  0.00    -0.000 A 
ATOM     12  C   UNL A   1     -24.568  -4.824  28.934  0.00  0.00    -0.000 A 
ENDBRANCH   2   7
BRANCH   6  13
ATOM     13  C   UNL A   1     -23.608   1.833  26.527  0.00  0.00    +0.419 C 
ATOM     14  F   UNL A   1     -24.157   2.717  26.928  0.00  0.00    -0.166 F 
ATOM     15  F   UNL A   1     -24.269   1.164  25.522  0.00  0.00    -0.166 F 
ATOM     16  F   UNL A   1     -22.446   2.203  25.927  0.00  0.00    -0.166 F 
ENDBRANCH   6  13
TORSDOF 2
ENDMDL
ENDMDL
