MODEL 1921
MODEL 1
REMARK VINA RESULT:    -5.602      0.000      0.000
REMARK INTER + INTRA:          -6.439
REMARK INTER:                  -6.256
REMARK INTRA:                  -0.182
REMARK UNBOUND:                -0.182
REMARK  Name = No_1921-gen_results/8p0m/2024-11-27-11-27-31/
REMARK  2 active torsions:
REMARK  status: ('A' for Active; 'I' for Inactive)
REMARK    1  A    between atoms: C_2  and  C_5
REMARK    2  A    between atoms: N_9  and  C_10
REMARK                            x       y       z     vdW  Elec       q    Type
REMARK                         _______ _______ _______ _____ _____    ______ ____
ROOT
ATOM      1  C   UNL A   1     -25.630  -2.549  29.542  0.00  0.00    +0.005 A 
ATOM      2  C   UNL A   1     -24.765  -2.884  29.041  0.00  0.00    +0.055 A 
ATOM      3  C   UNL A   1     -26.620  -3.628  29.921  0.00  0.00    +0.000 A 
ATOM      4  C   UNL A   1     -26.277  -4.982  29.723  0.00  0.00    +0.000 A 
ATOM      5  C   UNL A   1     -25.066  -5.241  29.120  0.00  0.00    +0.000 A 
ATOM      6  C   UNL A   1     -24.214  -4.213  28.791  0.00  0.00    +0.005 A 
ENDROOT
BRANCH   2   7
ATOM      7  C   UNL A   1     -23.732  -1.798  28.663  0.00  0.00    +0.269 C 
ATOM      8  O   UNL A   1     -22.710  -1.946  28.994  0.00  0.00    -0.268 OA
ATOM      9  N   UNL A   1     -24.175  -0.552  28.177  0.00  0.00    -0.174 NA
BRANCH   9  10
ATOM     10  C   UNL A   1     -23.197   0.459  27.857  0.00  0.00    +0.084 C 
ATOM     11  C   UNL A   1     -23.130   1.186  27.124  0.00  0.00    -0.008 C 
ATOM     12  C   UNL A   1     -22.074   2.141  26.850  0.00  0.00    +0.032 C 
ENDBRANCH   9  10
ENDBRANCH   2   7
TORSDOF 2
ENDMDL
ENDMDL
