MODEL 1922
MODEL 1
REMARK VINA RESULT:    -7.594      0.000      0.000
REMARK INTER + INTRA:         -12.628
REMARK INTER:                 -10.258
REMARK INTRA:                  -2.369
REMARK UNBOUND:                -2.369
REMARK  Name = No_1922-gen_results/8p0m/2024-11-27-11-27-31/
REMARK  6 active torsions:
REMARK  status: ('A' for Active; 'I' for Inactive)
REMARK    1  A    between atoms: C_2  and  C_14
REMARK    2  A    between atoms: C_6  and  C_24
REMARK    3  A    between atoms: C_9  and  C_10
REMARK    4  A    between atoms: C_10  and  C_11
REMARK    5  A    between atoms: N_16  and  C_18
REMARK    6  A    between atoms: C_26  and  C_27
REMARK                            x       y       z     vdW  Elec       q    Type
REMARK                         _______ _______ _______ _____ _____    ______ ____
ROOT
ATOM      1  C   UNL A   1      -9.286   0.922  34.840  0.00  0.00    +0.004 A 
ATOM      2  C   UNL A   1      -8.740   0.182  35.354  0.00  0.00    +0.054 A 
ATOM      3  C   UNL A   1     -10.632   1.133  35.373  0.00  0.00    +0.000 A 
ATOM      4  C   UNL A   1     -11.551   2.187  34.888  0.00  0.00    -0.000 A 
ATOM      5  C   UNL A   1      -9.007  -0.695  36.486  0.00  0.00    +0.004 A 
ATOM      6  C   UNL A   1     -10.273  -0.535  37.009  0.00  0.00    +0.000 A 
ATOM      7  C   UNL A   1     -11.088   0.409  36.505  0.00  0.00    -0.000 A 
ATOM      8  C   UNL A   1     -12.242   2.958  35.412  0.00  0.00    -0.004 A 
ATOM      9  C   UNL A   1     -12.164   2.979  36.886  0.00  0.00    -0.021 A 
ATOM     10  C   UNL A   1     -12.228   1.559  37.511  0.00  0.00    -0.004 A 
ENDROOT
BRANCH   6  11
ATOM     11  C   UNL A   1     -10.776  -1.127  38.260  0.00  0.00    +0.000 A 
ATOM     12  C   UNL A   1     -11.782  -1.795  38.319  0.00  0.00    +0.000 A 
ATOM     13  C   UNL A   1     -10.119  -0.588  39.448  0.00  0.00    +0.000 A 
ATOM     14  C   UNL A   1     -10.577  -1.226  40.716  0.00  0.00    +0.000 A 
ATOM     15  C   UNL A   1     -11.697  -2.075  40.752  0.00  0.00    +0.000 A 
ATOM     16  C   UNL A   1     -12.205  -2.527  39.559  0.00  0.00    +0.000 A 
BRANCH  13  17
ATOM     17  C   UNL A   1      -9.476   0.395  39.623  0.00  0.00    +0.000 A 
ATOM     18  C   UNL A   1      -8.138   0.425  39.670  0.00  0.00    +0.000 A 
ATOM     19  C   UNL A   1      -7.366   1.616  39.984  0.00  0.00    +0.000 A 
ATOM     20  C   UNL A   1     -10.091   1.727  39.925  0.00  0.00    +0.000 A 
ATOM     21  C   UNL A   1      -9.337   2.898  40.181  0.00  0.00    +0.000 A 
ATOM     22  C   UNL A   1      -7.988   2.813  40.139  0.00  0.00    +0.000 A 
ENDBRANCH  13  17
ENDBRANCH   6  11
BRANCH   2  23
ATOM     23  C   UNL A   1      -7.289  -0.283  34.727  0.00  0.00    +0.253 C 
ATOM     24  O   UNL A   1      -7.364  -0.922  33.798  0.00  0.00    -0.270 OA
ATOM     25  N   UNL A   1      -6.150   0.186  35.334  0.00  0.00    -0.253 N 
ATOM     26  C   UNL A   1      -6.052   1.098  36.470  0.00  0.00    +0.120 C 
BRANCH  25  27
ATOM     27  C   UNL A   1      -4.906  -0.189  34.700  0.00  0.00    +0.054 A 
ATOM     28  C   UNL A   1      -4.067   0.357  34.360  0.00  0.00    +0.015 A 
ATOM     29  C   UNL A   1      -2.805  -0.040  33.770  0.00  0.00    +0.001 A 
ATOM     30  C   UNL A   1      -2.605  -1.415  33.757  0.00  0.00    +0.000 A 
ATOM     31  C   UNL A   1      -4.722  -1.739  34.843  0.00  0.00    +0.015 A 
ATOM     32  C   UNL A   1      -3.586  -2.258  34.297  0.00  0.00    +0.001 A 
ENDBRANCH  25  27
ENDBRANCH   2  23
BRANCH   9  33
ATOM     33  C   UNL A   1     -11.990   3.890  37.494  0.00  0.00    +0.047 C 
BRANCH  33  34
ATOM     34  C   UNL A   1     -12.866   5.136  37.562  0.00  0.00    +0.114 C 
ATOM     35  N   UNL A   1     -14.083   5.022  37.757  0.00  0.00    -0.131 NA
ENDBRANCH  33  34
ENDBRANCH   9  33
TORSDOF 6
ENDMDL
ENDMDL
