MODEL 1923
MODEL 1
REMARK VINA RESULT:    -7.320      0.000      0.000
REMARK INTER + INTRA:          -7.320
REMARK INTER:                  -7.320
REMARK INTRA:                   0.000
REMARK UNBOUND:                 0.000
REMARK  Name = No_1923-gen_results/8p0m/2024-11-27-11-27-31/
REMARK  0 active torsions:
REMARK  status: ('A' for Active; 'I' for Inactive)
REMARK                            x       y       z     vdW  Elec       q    Type
REMARK                         _______ _______ _______ _____ _____    ______ ____
ROOT
ATOM      1  C   UNL A   1     -23.542  -0.571  28.481  0.00  0.00    +0.011 A 
ATOM      2  C   UNL A   1     -24.470  -1.032  29.105  0.00  0.00    -0.003 A 
ATOM      3  C   UNL A   1     -25.346  -0.207  29.804  0.00  0.00    -0.022 A 
ATOM      4  C   UNL A   1     -25.147   1.219  29.845  0.00  0.00    -0.003 A 
ATOM      5  C   UNL A   1     -24.037   1.664  29.116  0.00  0.00    +0.011 A 
ATOM      6  C   UNL A   1     -23.230   0.841  28.485  0.00  0.00    +0.058 A 
ATOM      7 CL   UNL A   1     -21.877   1.488  27.678  0.00  0.00    -0.082 Cl
ATOM      8  C   UNL A   1     -24.809  -2.484  29.201  0.00  0.00    -0.004 A 
ATOM      9  C   UNL A   1     -24.245  -3.306  28.997  0.00  0.00    -0.000 A 
ATOM     10  C   UNL A   1     -24.173  -4.462  28.922  0.00  0.00    -0.000 A 
ATOM     11  C   UNL A   1     -25.460  -5.160  29.273  0.00  0.00    -0.005 A 
ATOM     12  C   UNL A   1     -26.513  -4.314  29.611  0.00  0.00    -0.026 A 
ATOM     13  C   UNL A   1     -26.251  -2.944  29.629  0.00  0.00    -0.026 A 
ATOM     14  C   UNL A   1     -27.802  -4.765  30.154  0.00  0.00    +0.026 C 
ATOM     15  C   UNL A   1     -28.406  -3.961  31.197  0.00  0.00    +0.005 C 
ATOM     16  C   UNL A   1     -28.436  -2.535  30.936  0.00  0.00    +0.005 C 
ATOM     17  C   UNL A   1     -27.111  -2.046  30.420  0.00  0.00    +0.026 C 
ATOM     18  C   UNL A   1     -26.788  -0.587  30.390  0.00  0.00    +0.031 C 
ENDROOT
TORSDOF 0
ENDMDL
ENDMDL
