MODEL 1924
MODEL 1
REMARK VINA RESULT:    -6.381      0.000      0.000
REMARK INTER + INTRA:          -7.486
REMARK INTER:                  -7.127
REMARK INTRA:                  -0.359
REMARK UNBOUND:                -0.359
REMARK  Name = No_1924-gen_results/8p0m/2024-11-27-11-27-31/
REMARK  2 active torsions:
REMARK  status: ('A' for Active; 'I' for Inactive)
REMARK    1  A    between atoms: C_1  and  C_8
REMARK    2  A    between atoms: C_5  and  C_11
REMARK                            x       y       z     vdW  Elec       q    Type
REMARK                         _______ _______ _______ _____ _____    ______ ____
ROOT
ATOM      1  C   UNL A   1     -23.081   1.240  28.796  0.00  0.00    +0.041 C 
ATOM      2  C   UNL A   1     -23.617   0.158  28.851  0.00  0.00    +0.015 C 
ATOM      3  C   UNL A   1     -24.984  -0.053  28.919  0.00  0.00    +0.102 C 
ATOM      4  C   UNL A   1     -25.645  -1.327  29.068  0.00  0.00    +0.029 C 
ATOM      5  C   UNL A   1     -24.852  -2.496  29.149  0.00  0.00    +0.079 C 
ATOM      6  C   UNL A   1     -23.442  -2.350  29.082  0.00  0.00    +0.061 C 
ATOM      7  C   UNL A   1     -22.911  -1.102  28.971  0.00  0.00    +0.216 C 
ATOM      8 CL   UNL A   1     -26.023   1.274  28.924  0.00  0.00    -0.110 Cl
ATOM      9  F   UNL A   1     -21.603  -1.079  28.915  0.00  0.00    -0.219 F 
ATOM     10 CL   UNL A   1     -22.112  -0.374  29.123  0.00  0.00    -0.076 Cl
ENDROOT
BRANCH   1  11
ATOM     11  C   UNL A   1     -22.308   1.497  27.521  0.00  0.00    +0.340 C 
ATOM     12  F   UNL A   1     -21.310   1.804  27.424  0.00  0.00    -0.193 F 
ATOM     13  F   UNL A   1     -23.076   1.223  26.409  0.00  0.00    -0.193 F 
ENDBRANCH   1  11
BRANCH   5  14
ATOM     14  C   UNL A   1     -25.449  -3.824  29.255  0.00  0.00    +0.230 C 
ATOM     15 CL   UNL A   1     -24.516  -5.090  28.845  0.00  0.00    -0.043 Cl
ATOM     16  O   UNL A   1     -26.573  -4.051  29.775  0.00  0.00    -0.279 OA
ENDBRANCH   5  14
TORSDOF 2
ENDMDL
ENDMDL
