REMARK  Name = outputs/IAG933/test6/raw/output_1924_IAG933_linker_design_.xyz
REMARK  14 active torsions:
REMARK  status: ('A' for Active; 'I' for Inactive)
REMARK    1  A    between atoms: C_1  and  C_2
REMARK    2  A    between atoms: C_1  and  C_8
REMARK    3  A    between atoms: C_1  and  C_37
REMARK    4  A    between atoms: C_13  and  C_40
REMARK    5  A    between atoms: C_14  and  C_15
REMARK    6  A    between atoms: C_21  and  O_22
REMARK    7  A    between atoms: O_22  and  C_23
REMARK    8  A    between atoms: C_23  and  C_24
REMARK    9  A    between atoms: C_29  and  C_38
REMARK   10  A    between atoms: C_29  and  N_39
REMARK   11  A    between atoms: C_31  and  C_40
REMARK   12  A    between atoms: N_34  and  C_37
REMARK   13  A    between atoms: N_35  and  C_37
REMARK   14  A    between atoms: N_39  and  C_41
REMARK                            x       y       z     vdW  Elec       q    Type
REMARK                         _______ _______ _______ _____ _____    ______ ____
ROOT
ATOM      1  N   UNL A   1     -24.836   0.532  28.366  0.00  0.00    -0.254 NA
ATOM      2  C   UNL A   1     -24.528   1.170  27.423  0.00  0.00    +0.063 C 
ENDROOT
BRANCH   2   3
ATOM      3  C   UNL A   1     -25.688   1.614  26.461  0.00  0.00    +0.051 C 
ATOM      4  C   UNL A   1     -26.250   2.920  26.395  0.00  0.00    +0.078 C 
ATOM      5  C   UNL A   1     -27.438   3.091  25.645  0.00  0.00    +0.107 C 
ATOM      6  N   UNL A   1     -28.075   2.089  25.003  0.00  0.00    -0.208 NA
ATOM      7  C   UNL A   1     -27.543   0.849  25.079  0.00  0.00    +0.253 C 
ATOM      8  C   UNL A   1     -26.354   0.576  25.777  0.00  0.00    +0.194 C 
ATOM      9  F   UNL A   1     -25.860  -0.681  25.795  0.00  0.00    -0.199 F 
BRANCH   4  10
ATOM     10  C   UNL A   1     -25.642   4.093  27.123  0.00  0.00    +0.267 C 
ATOM     11  N   UNL A   1     -25.614   5.252  26.449  0.00  0.00    -0.200 NA
ATOM     12  C   UNL A   1     -25.026   6.479  26.963  0.00  0.00    +0.139 C 
ATOM     13  O   UNL A   1     -25.143   3.966  28.243  0.00  0.00    -0.268 OA
ENDBRANCH   4  10
BRANCH   7  14
ATOM     14  O   UNL A   1     -28.193  -0.208  24.477  0.00  0.00    -0.456 OA
BRANCH  14  15
ATOM     15  C   UNL A   1     -29.460   0.005  23.866  0.00  0.00    +0.243 C 
BRANCH  15  16
ATOM     16  C   UNL A   1     -30.065  -1.377  23.573  0.00  0.00    +0.229 C 
ATOM     17  O   UNL A   1     -30.729  -1.878  24.721  0.00  0.00    -0.216 OA
ENDBRANCH  15  16
ENDBRANCH  14  15
ENDBRANCH   7  14
ENDBRANCH   2   3
BRANCH   2  20
ATOM     18  C   UNL A   1     -22.315   1.366  27.716  0.00  0.00    +0.191 C 
ATOM     19  C   UNL A   1     -23.038   2.033  25.466  0.00  0.00    +0.191 C 
ATOM     20  C   UNL A   1     -23.393   1.439  27.058  0.00  0.00    +0.106 C 
ATOM     21  O   UNL A   1     -21.173   1.806  26.947  0.00  0.00    -0.220 OA
ATOM     22  O   UNL A   1     -21.862   2.282  25.822  0.00  0.00    -0.220 OA
ENDBRANCH   2  20
BRANCH   1  23
ATOM     23  C   UNL A   1     -25.721  -0.177  29.132  0.00  0.00    +0.202 C 
BRANCH  23  25
ATOM     24  O   UNL A   1     -28.815  -0.507  28.137  0.00  0.00    -0.271 OA
ATOM     25  N   UNL A   1     -27.086   0.009  29.584  0.00  0.00    -0.181 NA
ATOM     26  C   UNL A   1     -28.451  -0.283  29.263  0.00  0.00    +0.263 C 
BRANCH  26  27
ATOM     27  C   UNL A   1     -29.547  -0.344  30.323  0.00  0.00    +0.179 C 
BRANCH  27  28
ATOM     28  N   UNL A   1     -30.431  -1.499  29.992  0.00  0.00    -0.297 N 
ATOM     29  C   UNL A   1     -31.667  -1.363  29.142  0.00  0.00    +0.113 C 
BRANCH  28  31
ATOM     30  C   UNL A   1     -29.481  -3.239  31.485  0.00  0.00    +0.017 C 
ATOM     31  C   UNL A   1     -30.129  -2.832  30.375  0.00  0.00    +0.062 C 
ENDBRANCH  28  31
ENDBRANCH  27  28
ENDBRANCH  26  27
ENDBRANCH  23  25
BRANCH  23  32
ATOM     32  C   UNL A   1     -24.855  -1.012  30.143  0.00  0.00    +0.081 C 
BRANCH  32  33
ATOM     33  C   UNL A   1     -24.973  -2.505  29.788  0.00  0.00    -0.018 C 
ATOM     34  C   UNL A   1     -23.906  -3.173  29.146  0.00  0.00    -0.004 C 
ATOM     35  C   UNL A   1     -23.989  -4.549  28.853  0.00  0.00    -0.000 C 
ATOM     36  C   UNL A   1     -25.137  -5.280  29.205  0.00  0.00    -0.000 C 
ATOM     37  C   UNL A   1     -26.232  -4.611  29.784  0.00  0.00    -0.000 C 
ATOM     38  C   UNL A   1     -26.155  -3.232  30.065  0.00  0.00    -0.004 C 
ENDBRANCH  32  33
BRANCH  32  39
ATOM     39  C   UNL A   1     -25.387  -0.679  31.571  0.00  0.00    +0.080 C 
ATOM     40  C   UNL A   1     -25.189   0.773  32.028  0.00  0.00    +0.019 C 
ATOM     41  C   UNL A   1     -25.336   0.684  33.544  0.00  0.00    +0.020 C 
ATOM     42  C   UNL A   1     -24.829  -0.715  33.905  0.00  0.00    +0.089 C 
ATOM     43  N   UNL A   1     -24.758  -1.481  32.646  0.00  0.00    -0.219 NA
ENDBRANCH  32  39
ENDBRANCH  23  32
ENDBRANCH   1  23
TORSDOF 14
