MODEL 1925
MODEL 1
REMARK VINA RESULT:    -5.339      0.000      0.000
REMARK INTER + INTRA:          -8.925
REMARK INTER:                  -7.212
REMARK INTRA:                  -1.713
REMARK UNBOUND:                -1.713
REMARK  Name = No_1925-gen_results/8p0m/2024-11-27-11-27-31/
REMARK  6 active torsions:
REMARK  status: ('A' for Active; 'I' for Inactive)
REMARK    1  A    between atoms: C_1  and  C_2
REMARK    2  A    between atoms: C_1  and  N_8
REMARK    3  A    between atoms: C_5  and  C_10
REMARK    4  A    between atoms: N_8  and  C_9
REMARK    5  A    between atoms: C_9  and  C_14
REMARK    6  A    between atoms: C_14  and  C_15
REMARK                            x       y       z     vdW  Elec       q    Type
REMARK                         _______ _______ _______ _____ _____    ______ ____
ROOT
ATOM      1  C   UNL A   1     -23.548  -1.444  29.369  0.00  0.00    +0.267 C 
ATOM      2  O   UNL A   1     -23.203  -2.653  28.978  0.00  0.00    -0.194 OA
ENDROOT
BRANCH   1   3
ATOM      3  C   UNL A   1     -23.447  -0.527  28.588  0.00  0.00    +0.029 A 
ATOM      4  C   UNL A   1     -22.365   0.289  28.513  0.00  0.00    +0.000 A 
ATOM      5  C   UNL A   1     -22.225   1.415  27.562  0.00  0.00    +0.006 A 
ATOM      6  C   UNL A   1     -23.309   1.631  26.649  0.00  0.00    +0.080 A 
ATOM      7  C   UNL A   1     -24.384   0.717  26.711  0.00  0.00    +0.006 A 
ATOM      8  C   UNL A   1     -24.446  -0.306  27.622  0.00  0.00    +0.000 A 
BRANCH   6   9
ATOM      9  C   UNL A   1     -23.279   2.661  25.651  0.00  0.00    +0.388 C 
ATOM     10  O   UNL A   1     -22.540   2.835  24.808  0.00  0.00    -0.241 OA
ATOM     11  O   UNL A   1     -24.308   3.520  25.778  0.00  0.00    -0.241 OA
ENDBRANCH   6   9
ENDBRANCH   1   3
BRANCH   1  12
ATOM     12  N   UNL A   1     -24.328  -1.341  30.362  0.00  0.00    -0.208 NA
BRANCH  12  13
ATOM     13  C   UNL A   1     -23.921  -0.703  31.538  0.00  0.00    +0.050 C 
ATOM     14  C   UNL A   1     -22.854  -1.175  32.300  0.00  0.00    +0.013 C 
BRANCH  13  15
ATOM     15  C   UNL A   1     -24.577   0.527  31.982  0.00  0.00    +0.068 C 
BRANCH  15  16
ATOM     16  C   UNL A   1     -24.400   1.684  31.270  0.00  0.00    -0.025 C 
ATOM     17  C   UNL A   1     -25.094   2.174  30.734  0.00  0.00    -0.030 C 
ATOM     18  C   UNL A   1     -25.428   2.806  29.531  0.00  0.00    +0.030 C 
ENDBRANCH  15  16
ENDBRANCH  13  15
ENDBRANCH  12  13
ENDBRANCH   1  12
TORSDOF 6
ENDMDL
ENDMDL
