MODEL 1928
MODEL 1
REMARK VINA RESULT:    -6.359      0.000      0.000
REMARK INTER + INTRA:          -7.362
REMARK INTER:                  -7.102
REMARK INTRA:                  -0.260
REMARK UNBOUND:                -0.260
REMARK  Name = No_1928-gen_results/8p0m/2024-11-27-11-27-31/
REMARK  2 active torsions:
REMARK  status: ('A' for Active; 'I' for Inactive)
REMARK    1  A    between atoms: C_2  and  C_7
REMARK    2  A    between atoms: N_8  and  C_10
REMARK                            x       y       z     vdW  Elec       q    Type
REMARK                         _______ _______ _______ _____ _____    ______ ____
ROOT
ATOM      1  C   UNL A   1     -23.599  -1.283  29.485  0.00  0.00    +0.269 C 
ATOM      2  N   UNL A   1     -24.561  -1.722  28.958  0.00  0.00    -0.175 NA
ATOM      3  O   UNL A   1     -23.502  -1.349  30.811  0.00  0.00    -0.268 OA
ENDROOT
BRANCH   1   5
ATOM      4  C   UNL A   1     -21.702  -0.396  28.914  0.00  0.00    +0.005 A 
ATOM      5  C   UNL A   1     -22.722  -0.200  28.733  0.00  0.00    +0.055 A 
ATOM      6  C   UNL A   1     -20.729   0.525  28.214  0.00  0.00    +0.000 A 
ATOM      7  C   UNL A   1     -21.221   1.641  27.505  0.00  0.00    +0.000 A 
ATOM      8  C   UNL A   1     -23.484   0.888  28.081  0.00  0.00    +0.005 A 
ATOM      9  C   UNL A   1     -22.622   1.760  27.431  0.00  0.00    +0.000 A 
ENDBRANCH   1   5
BRANCH   2  10
ATOM     10  C   UNL A   1     -25.439  -2.751  29.493  0.00  0.00    +0.074 A 
ATOM     11  C   UNL A   1     -25.148  -3.820  29.281  0.00  0.00    +0.017 A 
ATOM     12  C   UNL A   1     -25.955  -4.907  29.470  0.00  0.00    +0.001 A 
ATOM     13  C   UNL A   1     -27.234  -4.606  30.098  0.00  0.00    +0.000 A 
ATOM     14  C   UNL A   1     -27.530  -3.319  30.382  0.00  0.00    +0.001 A 
ATOM     15  C   UNL A   1     -26.664  -2.310  30.013  0.00  0.00    +0.017 A 
ENDBRANCH   2  10
TORSDOF 2
ENDMDL
ENDMDL
