MODEL 1929
MODEL 1
REMARK VINA RESULT:    -6.422      0.000      0.000
REMARK INTER + INTRA:          -5.792
REMARK INTER:                  -7.173
REMARK INTRA:                   1.381
REMARK UNBOUND:                 1.381
REMARK  Name = No_1929-gen_results/8p0m/2024-11-27-11-27-31/
REMARK  2 active torsions:
REMARK  status: ('A' for Active; 'I' for Inactive)
REMARK    1  A    between atoms: C_9  and  C_13
REMARK    2  A    between atoms: C_13  and  C_16
REMARK                            x       y       z     vdW  Elec       q    Type
REMARK                         _______ _______ _______ _____ _____    ______ ____
ROOT
ATOM      1  C   UNL A   1     -29.468 -11.560  28.205  0.00  0.00    +0.186 C 
ATOM      2  C   UNL A   1     -29.685 -11.216  29.343  0.00  0.00    +0.013 A 
ATOM      3  C   UNL A   1     -30.449 -10.122  29.713  0.00  0.00    +0.036 A 
ATOM      4  C   UNL A   1     -31.048  -9.364  28.663  0.00  0.00    +0.205 C 
ATOM      5  C   UNL A   1     -30.923  -9.858  27.421  0.00  0.00    +0.225 C 
ATOM      6  C   UNL A   1     -30.219 -10.924  27.171  0.00  0.00    +0.083 C 
ATOM      7  C   UNL A   1     -30.574  -9.652  31.139  0.00  0.00    +0.009 A 
ATOM      8  C   UNL A   1     -29.585 -10.095  31.934  0.00  0.00    +0.031 A 
ATOM      9  C   UNL A   1     -28.759 -11.212  31.619  0.00  0.00    -0.007 A 
ATOM     10  C   UNL A   1     -28.745 -11.720  30.428  0.00  0.00    -0.005 A 
ATOM     11 BR   UNL A   1     -29.696  -9.625  33.835  0.00  0.00    -0.049 Br
ATOM     12  F   UNL A   1     -31.610  -9.217  26.462  0.00  0.00    -0.229 F 
ATOM     13  F   UNL A   1     -28.721 -12.615  27.851  0.00  0.00    -0.232 F 
ATOM     14  O   UNL A   1     -31.850  -8.343  28.992  0.00  0.00    -0.288 OA
ENDROOT
BRANCH   9  15
ATOM     15  C   UNL A   1     -27.944 -11.791  32.787  0.00  0.00    +0.113 C 
ATOM     16  C   UNL A   1     -27.395 -10.903  33.640  0.00  0.00    +0.016 C 
ATOM     17  C   UNL A   1     -26.798 -12.667  32.310  0.00  0.00    +0.016 C 
BRANCH  15  18
ATOM     18  C   UNL A   1     -28.845 -12.572  33.836  0.00  0.00    +0.367 C 
ATOM     19  O   UNL A   1     -29.805 -13.409  33.376  0.00  0.00    -0.245 OA
ATOM     20  O   UNL A   1     -28.383 -12.733  34.943  0.00  0.00    -0.245 OA
ENDBRANCH  15  18
ENDBRANCH   9  15
TORSDOF 2
ENDMDL
ENDMDL
