MODEL 192
MODEL 1
REMARK VINA RESULT:    -6.601      0.000      0.000
REMARK INTER + INTRA:          -7.735
REMARK INTER:                  -7.373
REMARK INTRA:                  -0.362
REMARK UNBOUND:                -0.362
REMARK  Name = No_192-gen_results/8p0m/2024-11-27-11-27-31/
REMARK  2 active torsions:
REMARK  status: ('A' for Active; 'I' for Inactive)
REMARK    1  A    between atoms: C_2  and  C_8
REMARK    2  A    between atoms: C_12  and  O_14
REMARK                            x       y       z     vdW  Elec       q    Type
REMARK                         _______ _______ _______ _____ _____    ______ ____
ROOT
ATOM      1  C   UNL A   1     -22.916  -1.329  29.336  0.00  0.00    +0.001 A 
ATOM      2  C   UNL A   1     -23.928  -1.569  28.720  0.00  0.00    +0.001 A 
ATOM      3  C   UNL A   1     -24.493  -0.743  27.762  0.00  0.00    +0.007 A 
ATOM      4  C   UNL A   1     -23.804   0.469  27.463  0.00  0.00    +0.045 A 
ATOM      5  C   UNL A   1     -22.604   0.632  28.058  0.00  0.00    +0.064 A 
ATOM      6  C   UNL A   1     -22.110  -0.273  28.905  0.00  0.00    +0.012 A 
ATOM      7 CL   UNL A   1     -21.764   2.048  27.638  0.00  0.00    -0.082 Cl
ATOM      8 BR   UNL A   1     -24.538   1.584  26.132  0.00  0.00    -0.048 Br
ENDROOT
BRANCH   2   9
ATOM      9  C   UNL A   1     -24.847  -2.807  29.090  0.00  0.00    +0.003 A 
ATOM     10  C   UNL A   1     -24.567  -3.824  28.993  0.00  0.00    +0.000 A 
ATOM     11  C   UNL A   1     -25.418  -4.972  29.296  0.00  0.00    +0.003 A 
ATOM     12  C   UNL A   1     -26.695  -4.733  29.849  0.00  0.00    +0.037 A 
ATOM     13  C   UNL A   1     -27.068  -3.381  29.999  0.00  0.00    +0.139 A 
ATOM     14  C   UNL A   1     -26.150  -2.338  29.688  0.00  0.00    +0.037 A 
BRANCH  13  15
ATOM     15  O   UNL A   1     -28.283  -3.139  30.526  0.00  0.00    -0.471 OA
ATOM     16  C   UNL A   1     -28.852  -4.192  31.352  0.00  0.00    +0.253 C 
ENDBRANCH  13  15
ENDBRANCH   2   9
TORSDOF 2
ENDMDL
ENDMDL
