REMARK  Name = outputs/IAG933/test6/raw/output_1930_IAG933_linker_design_.xyz
REMARK  13 active torsions:
REMARK  status: ('A' for Active; 'I' for Inactive)
REMARK    1  A    between atoms: C_1  and  C_2
REMARK    2  A    between atoms: C_1  and  C_8
REMARK    3  A    between atoms: C_1  and  C_30
REMARK    4  A    between atoms: C_13  and  N_32
REMARK    5  A    between atoms: C_14  and  C_15
REMARK    6  A    between atoms: C_21  and  O_22
REMARK    7  A    between atoms: O_22  and  C_23
REMARK    8  A    between atoms: C_23  and  C_24
REMARK    9  A    between atoms: C_28  and  C_40
REMARK   10  A    between atoms: C_30  and  N_34
REMARK   11  A    between atoms: C_30  and  C_40
REMARK   12  A    between atoms: C_38  and  C_43
REMARK   13  A    between atoms: O_39  and  C_43
REMARK                            x       y       z     vdW  Elec       q    Type
REMARK                         _______ _______ _______ _____ _____    ______ ____
ROOT
ATOM      1  C   UNL A   1     -24.046   0.617  27.886  0.00  0.00    +0.092 C 
ATOM      2  N   UNL A   1     -23.603   2.810  25.176  0.00  0.00    +0.144 NA
ATOM      3  C   UNL A   1     -23.297   2.103  26.248  0.00  0.00    +0.452 C 
ATOM      4  N   UNL A   1     -24.347   1.462  26.867  0.00  0.00    -0.172 N 
ATOM      5  C   UNL A   1     -21.736   0.859  28.690  0.00  0.00    +0.043 C 
ATOM      6  C   UNL A   1     -23.087   0.497  28.815  0.00  0.00    +0.030 C 
ATOM      7  C   UNL A   1     -21.254   1.565  27.611  0.00  0.00    +0.193 C 
ATOM      8  N   UNL A   1     -22.002   2.017  26.633  0.00  0.00    -0.067 NA
ENDROOT
BRANCH   4   9
ATOM      9  C   UNL A   1     -25.688   1.614  26.461  0.00  0.00    +0.208 C 
ATOM     10  C   UNL A   1     -26.250   2.920  26.395  0.00  0.00    +0.089 C 
ATOM     11  C   UNL A   1     -27.438   3.091  25.645  0.00  0.00    +0.105 C 
ATOM     12  N   UNL A   1     -28.075   2.089  25.003  0.00  0.00    -0.212 NA
ATOM     13  C   UNL A   1     -27.543   0.849  25.079  0.00  0.00    +0.237 C 
ATOM     14  C   UNL A   1     -26.354   0.576  25.777  0.00  0.00    +0.274 C 
ATOM     15  F   UNL A   1     -25.860  -0.681  25.795  0.00  0.00    -0.223 F 
BRANCH  10  16
ATOM     16  C   UNL A   1     -25.642   4.093  27.123  0.00  0.00    +0.265 C 
ATOM     17  N   UNL A   1     -25.614   5.252  26.449  0.00  0.00    -0.200 NA
ATOM     18  C   UNL A   1     -25.026   6.479  26.963  0.00  0.00    +0.139 C 
ATOM     19  O   UNL A   1     -25.143   3.966  28.243  0.00  0.00    -0.269 OA
ENDBRANCH  10  16
BRANCH  13  20
ATOM     20  O   UNL A   1     -28.193  -0.208  24.477  0.00  0.00    -0.458 OA
BRANCH  20  21
ATOM     21  C   UNL A   1     -29.460   0.005  23.866  0.00  0.00    +0.242 C 
BRANCH  21  22
ATOM     22  C   UNL A   1     -30.065  -1.377  23.573  0.00  0.00    +0.229 C 
ATOM     23  O   UNL A   1     -30.729  -1.878  24.721  0.00  0.00    -0.216 OA
ENDBRANCH  21  22
ENDBRANCH  20  21
ENDBRANCH  13  20
ENDBRANCH   4   9
BRANCH   1  24
ATOM     24  C   UNL A   1     -25.011  -0.518  27.994  0.00  0.00    +0.080 C 
BRANCH  24  25
ATOM     25  C   UNL A   1     -25.780  -0.131  29.245  0.00  0.00    +0.108 C 
BRANCH  25  26
ATOM     26  N   UNL A   1     -26.159   1.324  29.317  0.00  0.00    -0.204 NA
ATOM     27  O   UNL A   1     -28.419   1.296  29.071  0.00  0.00    -0.271 OA
ATOM     28  C   UNL A   1     -27.432   1.793  29.592  0.00  0.00    +0.272 C 
BRANCH  28  29
ATOM     29  C   UNL A   1     -27.624   2.962  30.563  0.00  0.00    +0.229 C 
BRANCH  29  31
ATOM     30  C   UNL A   1     -28.586   3.671  32.666  0.00  0.00    +0.175 C 
ATOM     31  O   UNL A   1     -28.696   2.815  31.505  0.00  0.00    -0.342 OA
ENDBRANCH  29  31
ENDBRANCH  28  29
ENDBRANCH  25  26
BRANCH  25  32
ATOM     32  C   UNL A   1     -24.855  -1.012  30.143  0.00  0.00    +0.059 C 
BRANCH  32  33
ATOM     33  C   UNL A   1     -24.973  -2.505  29.788  0.00  0.00    -0.019 C 
ATOM     34  C   UNL A   1     -23.906  -3.173  29.146  0.00  0.00    -0.004 C 
ATOM     35  C   UNL A   1     -23.989  -4.549  28.853  0.00  0.00    -0.000 C 
ATOM     36  C   UNL A   1     -25.137  -5.280  29.205  0.00  0.00    -0.000 C 
ATOM     37  C   UNL A   1     -26.232  -4.611  29.784  0.00  0.00    -0.000 C 
ATOM     38  C   UNL A   1     -26.155  -3.232  30.065  0.00  0.00    -0.004 C 
ENDBRANCH  32  33
BRANCH  32  39
ATOM     39  C   UNL A   1     -25.387  -0.679  31.571  0.00  0.00    +0.079 C 
ATOM     40  C   UNL A   1     -25.189   0.773  32.028  0.00  0.00    +0.019 C 
ATOM     41  C   UNL A   1     -25.336   0.684  33.544  0.00  0.00    +0.020 C 
ATOM     42  C   UNL A   1     -24.829  -0.715  33.905  0.00  0.00    +0.089 C 
ATOM     43  N   UNL A   1     -24.758  -1.481  32.646  0.00  0.00    -0.219 NA
ENDBRANCH  32  39
ENDBRANCH  25  32
ENDBRANCH  24  25
ENDBRANCH   1  24
TORSDOF 13
