MODEL 1930
MODEL 1
REMARK VINA RESULT:    -6.928      0.000      0.000
REMARK INTER + INTRA:          -7.566
REMARK INTER:                  -7.333
REMARK INTRA:                  -0.233
REMARK UNBOUND:                -0.233
REMARK  Name = No_1930-gen_results/8p0m/2024-11-27-11-27-31/
REMARK  1 active torsions:
REMARK  status: ('A' for Active; 'I' for Inactive)
REMARK    1  A    between atoms: C_4  and  C_16
REMARK                            x       y       z     vdW  Elec       q    Type
REMARK                         _______ _______ _______ _____ _____    ______ ____
ROOT
ATOM      1  C   UNL A   1     -25.261   0.817  27.366  0.00  0.00    -0.016 A 
ATOM      2  C   UNL A   1     -24.907   1.722  26.957  0.00  0.00    +0.050 A 
ATOM      3  C   UNL A   1     -24.258  -0.059  27.992  0.00  0.00    -0.000 A 
ATOM      4  C   UNL A   1     -22.911   0.378  28.151  0.00  0.00    +0.071 A 
ATOM      5  C   UNL A   1     -23.598   2.425  27.036  0.00  0.00    +0.004 A 
ATOM      6  C   UNL A   1     -22.639   1.639  27.602  0.00  0.00    +0.004 A 
ATOM      7  C   UNL A   1     -25.966   2.708  26.287  0.00  0.00    +0.249 C 
ATOM      8  O   UNL A   1     -26.277   3.703  26.684  0.00  0.00    -0.270 OA
ATOM      9  N   UNL A   1     -26.579   2.114  25.186  0.00  0.00    -0.277 N 
ATOM     10  C   UNL A   1     -27.653   2.802  24.553  0.00  0.00    +0.094 C 
ATOM     11  C   UNL A   1     -28.509   1.998  24.023  0.00  0.00    +0.022 C 
ATOM     12  C   UNL A   1     -28.278   0.582  23.787  0.00  0.00    +0.004 C 
ATOM     13  C   UNL A   1     -27.167  -0.005  24.458  0.00  0.00    +0.020 C 
ATOM     14  C   UNL A   1     -26.417   0.723  25.168  0.00  0.00    +0.080 C 
ATOM     15  C   UNL A   1     -25.501  -0.081  25.910  0.00  0.00    +0.046 C 
ENDROOT
BRANCH   4  16
ATOM     16  C   UNL A   1     -21.894  -0.359  28.904  0.00  0.00    +0.419 C 
ATOM     17  F   UNL A   1     -20.826  -0.303  28.516  0.00  0.00    -0.166 F 
ATOM     18  F   UNL A   1     -22.310  -1.680  28.927  0.00  0.00    -0.166 F 
ATOM     19  F   UNL A   1     -21.948   0.048  30.239  0.00  0.00    -0.166 F 
ENDBRANCH   4  16
TORSDOF 1
ENDMDL
ENDMDL
