REMARK  Name = outputs/IAG933/test6/raw/output_1932_IAG933_linker_design_.xyz
REMARK  14 active torsions:
REMARK  status: ('A' for Active; 'I' for Inactive)
REMARK    1  A    between atoms: C_1  and  C_2
REMARK    2  A    between atoms: C_1  and  C_8
REMARK    3  A    between atoms: C_1  and  O_35
REMARK    4  A    between atoms: C_14  and  C_15
REMARK    5  A    between atoms: C_15  and  O_18
REMARK    6  A    between atoms: O_18  and  C_43
REMARK    7  A    between atoms: C_21  and  O_22
REMARK    8  A    between atoms: O_22  and  C_23
REMARK    9  A    between atoms: C_23  and  C_24
REMARK   10  A    between atoms: N_32  and  C_34
REMARK   11  A    between atoms: N_32  and  C_43
REMARK   12  A    between atoms: N_33  and  C_34
REMARK   13  A    between atoms: C_34  and  O_35
REMARK   14  A    between atoms: C_36  and  C_43
REMARK                            x       y       z     vdW  Elec       q    Type
REMARK                         _______ _______ _______ _____ _____    ______ ____
ROOT
ATOM      1  C   UNL A   1     -25.171   3.274  29.343  0.00  0.00    +0.262 C 
ENDROOT
BRANCH   1   4
ATOM      2  C   UNL A   1     -28.081   5.100  31.748  0.00  0.00    +0.160 C 
ATOM      3  C   UNL A   1     -29.566   6.687  30.729  0.00  0.00    +0.145 C 
ATOM      4  C   UNL A   1     -26.431   3.805  30.048  0.00  0.00    +0.133 C 
ATOM      5  O   UNL A   1     -29.400   5.240  31.021  0.00  0.00    -0.352 OA
ATOM      6  O   UNL A   1     -26.134   6.322  31.669  0.00  0.00    -0.223 OA
ATOM      7  C   UNL A   1     -26.935   5.230  29.665  0.00  0.00    +0.056 C 
ATOM      8  C   UNL A   1     -28.132   7.177  30.593  0.00  0.00    +0.065 C 
ATOM      9  N   UNL A   1     -26.224   3.554  31.484  0.00  0.00    -0.211 NA
ATOM     10  C   UNL A   1     -27.296   5.945  30.978  0.00  0.00    +0.157 C 
ATOM     11  C   UNL A   1     -27.525   3.819  32.173  0.00  0.00    +0.121 C 
ENDBRANCH   1   4
BRANCH   1  12
ATOM     12  O   UNL A   1     -25.143   3.966  28.243  0.00  0.00    -0.445 OA
BRANCH  12  13
ATOM     13  C   UNL A   1     -25.642   4.093  27.123  0.00  0.00    +0.223 C 
ATOM     14  N   UNL A   1     -25.614   5.252  26.449  0.00  0.00    -0.236 NA
ATOM     15  C   UNL A   1     -25.026   6.479  26.963  0.00  0.00    +0.155 C 
BRANCH  13  17
ATOM     16  C   UNL A   1     -25.688   1.614  26.461  0.00  0.00    +0.041 C 
ATOM     17  C   UNL A   1     -26.250   2.920  26.395  0.00  0.00    +0.074 C 
ATOM     18  C   UNL A   1     -27.438   3.091  25.645  0.00  0.00    +0.107 C 
ATOM     19  N   UNL A   1     -28.075   2.089  25.003  0.00  0.00    -0.208 NA
ATOM     20  C   UNL A   1     -27.543   0.849  25.079  0.00  0.00    +0.253 C 
ATOM     21  C   UNL A   1     -26.354   0.576  25.777  0.00  0.00    +0.193 C 
ATOM     22  F   UNL A   1     -25.860  -0.681  25.795  0.00  0.00    -0.199 F 
BRANCH  20  23
ATOM     23  O   UNL A   1     -28.193  -0.208  24.477  0.00  0.00    -0.456 OA
BRANCH  23  24
ATOM     24  C   UNL A   1     -29.460   0.005  23.866  0.00  0.00    +0.243 C 
BRANCH  24  25
ATOM     25  C   UNL A   1     -30.065  -1.377  23.573  0.00  0.00    +0.229 C 
ATOM     26  O   UNL A   1     -30.729  -1.878  24.721  0.00  0.00    -0.216 OA
ENDBRANCH  24  25
ENDBRANCH  23  24
ENDBRANCH  20  23
ENDBRANCH  13  17
ENDBRANCH  12  13
ENDBRANCH   1  12
BRANCH   1  27
ATOM     27  N   UNL A   1     -24.296   2.162  29.127  0.00  0.00    -0.132 NA
BRANCH  27  28
ATOM     28  C   UNL A   1     -23.901   0.887  29.096  0.00  0.00    +0.299 C 
BRANCH  28  31
ATOM     29  C   UNL A   1     -21.768   1.090  27.937  0.00  0.00    +0.362 C 
ATOM     30  N   UNL A   1     -20.565   0.862  27.834  0.00  0.00    -0.068 NA
ATOM     31  N   UNL A   1     -22.623   0.521  28.904  0.00  0.00    -0.141 NA
ATOM     32  O   UNL A   1     -22.297   1.803  26.944  0.00  0.00    -0.247 OA
ENDBRANCH  28  31
BRANCH  28  33
ATOM     33  O   UNL A   1     -24.912   0.011  29.147  0.00  0.00    -0.319 OA
BRANCH  33  34
ATOM     34  C   UNL A   1     -24.855  -1.012  30.143  0.00  0.00    +0.157 C 
BRANCH  34  35
ATOM     35  C   UNL A   1     -24.973  -2.505  29.788  0.00  0.00    +0.006 C 
ATOM     36  C   UNL A   1     -23.906  -3.173  29.146  0.00  0.00    -0.002 C 
ATOM     37  C   UNL A   1     -23.989  -4.549  28.853  0.00  0.00    -0.000 C 
ATOM     38  C   UNL A   1     -25.137  -5.280  29.205  0.00  0.00    -0.000 C 
ATOM     39  C   UNL A   1     -26.232  -4.611  29.784  0.00  0.00    -0.000 C 
ATOM     40  C   UNL A   1     -26.155  -3.232  30.065  0.00  0.00    -0.002 C 
ENDBRANCH  34  35
BRANCH  34  41
ATOM     41  C   UNL A   1     -25.387  -0.679  31.571  0.00  0.00    +0.104 C 
ATOM     42  C   UNL A   1     -25.189   0.773  32.028  0.00  0.00    +0.022 C 
ATOM     43  C   UNL A   1     -25.336   0.684  33.544  0.00  0.00    +0.020 C 
ATOM     44  C   UNL A   1     -24.829  -0.715  33.905  0.00  0.00    +0.089 C 
ATOM     45  N   UNL A   1     -24.758  -1.481  32.646  0.00  0.00    -0.217 NA
ENDBRANCH  34  41
ENDBRANCH  33  34
ENDBRANCH  28  33
ENDBRANCH  27  28
ENDBRANCH   1  27
TORSDOF 14
