MODEL 1932
MODEL 1
REMARK VINA RESULT:    -7.019      0.000      0.000
REMARK INTER + INTRA:         -12.277
REMARK INTER:                  -9.891
REMARK INTRA:                  -2.386
REMARK UNBOUND:                -2.386
REMARK  Name = No_1932-gen_results/8p0m/2024-11-27-11-27-31/
REMARK  7 active torsions:
REMARK  status: ('A' for Active; 'I' for Inactive)
REMARK    1  A    between atoms: C_2  and  C_16
REMARK    2  A    between atoms: C_3  and  C_4
REMARK    3  A    between atoms: C_7  and  C_13
REMARK    4  A    between atoms: C_13  and  O_15
REMARK    5  A    between atoms: O_15  and  C_19
REMARK    6  A    between atoms: C_20  and  C_21
REMARK    7  A    between atoms: C_22  and  C_23
REMARK                            x       y       z     vdW  Elec       q    Type
REMARK                         _______ _______ _______ _____ _____    ______ ____
ROOT
ATOM      1  C   UNL A   1     -22.957  -0.811  28.841  0.00  0.00    +0.007 A 
ATOM      2  C   UNL A   1     -22.770   0.223  28.917  0.00  0.00    +0.080 A 
ATOM      3  C   UNL A   1     -24.184  -1.236  29.526  0.00  0.00    +0.000 A 
ATOM      4  C   UNL A   1     -23.320   1.246  29.763  0.00  0.00    +0.013 A 
ATOM      5  C   UNL A   1     -24.404   0.882  30.420  0.00  0.00    +0.076 A 
ATOM      6  C   UNL A   1     -24.927  -0.314  30.320  0.00  0.00    +0.006 A 
ENDROOT
BRANCH   3   7
ATOM      7  C   UNL A   1     -24.709  -2.605  29.359  0.00  0.00    +0.000 A 
ATOM      8  C   UNL A   1     -25.852  -3.005  29.861  0.00  0.00    +0.000 A 
ATOM      9  C   UNL A   1     -26.244  -4.329  29.728  0.00  0.00    +0.000 A 
ATOM     10  C   UNL A   1     -25.421  -5.290  29.150  0.00  0.00    +0.000 A 
ATOM     11  C   UNL A   1     -24.218  -4.867  28.609  0.00  0.00    +0.000 A 
ATOM     12  C   UNL A   1     -23.823  -3.582  28.718  0.00  0.00    +0.000 A 
ENDBRANCH   3   7
BRANCH   2  13
ATOM     13  C   UNL A   1     -21.403   0.717  28.138  0.00  0.00    +0.388 C 
ATOM     14  O   UNL A   1     -20.387  -0.003  28.321  0.00  0.00    -0.241 OA
ATOM     15  O   UNL A   1     -21.387   1.765  27.474  0.00  0.00    -0.241 OA
ENDBRANCH   2  13
BRANCH   5  16
ATOM     16  C   UNL A   1     -25.154   1.883  31.307  0.00  0.00    +0.346 C 
ATOM     17  O   UNL A   1     -25.341   1.747  32.395  0.00  0.00    -0.244 OA
BRANCH  16  18
ATOM     18  O   UNL A   1     -25.909   2.738  30.539  0.00  0.00    -0.418 OA
BRANCH  18  19
ATOM     19  C   UNL A   1     -26.261   2.788  29.543  0.00  0.00    +0.183 C 
ATOM     20  C   UNL A   1     -25.714   3.614  28.616  0.00  0.00    +0.041 C 
BRANCH  20  21
ATOM     21  C   UNL A   1     -25.164   3.495  27.769  0.00  0.00    +0.003 C 
ATOM     22  C   UNL A   1     -25.281   2.264  26.908  0.00  0.00    -0.000 C 
BRANCH  22  23
ATOM     23  C   UNL A   1     -24.516   1.922  25.784  0.00  0.00    -0.005 C 
ATOM     24  C   UNL A   1     -24.786   0.614  25.292  0.00  0.00    -0.026 C 
ATOM     25  C   UNL A   1     -25.399  -0.369  26.133  0.00  0.00    +0.031 C 
ENDBRANCH  22  23
ENDBRANCH  20  21
ENDBRANCH  18  19
ENDBRANCH  16  18
ENDBRANCH   5  16
TORSDOF 7
ENDMDL
ENDMDL
