MODEL 1933
MODEL 1
REMARK VINA RESULT:    -7.427      0.000      0.000
REMARK INTER + INTRA:          -9.150
REMARK INTER:                  -8.729
REMARK INTRA:                  -0.421
REMARK UNBOUND:                -0.421
REMARK  Name = No_1933-gen_results/8p0m/2024-11-27-11-27-31/
REMARK  3 active torsions:
REMARK  status: ('A' for Active; 'I' for Inactive)
REMARK    1  A    between atoms: C_2  and  C_7
REMARK    2  A    between atoms: C_6  and  C_13
REMARK    3  A    between atoms: C_11  and  C_16
REMARK                            x       y       z     vdW  Elec       q    Type
REMARK                         _______ _______ _______ _____ _____    ______ ____
ROOT
ATOM      1  C   UNL A   1     -25.674  -2.537  29.462  0.00  0.00    +0.007 A 
ATOM      2  C   UNL A   1     -24.540  -2.574  29.043  0.00  0.00    +0.000 A 
ATOM      3  C   UNL A   1     -23.925  -3.784  28.741  0.00  0.00    +0.000 A 
ATOM      4  C   UNL A   1     -24.604  -5.035  28.962  0.00  0.00    +0.000 A 
ATOM      5  C   UNL A   1     -25.902  -4.901  29.471  0.00  0.00    +0.007 A 
ATOM      6  C   UNL A   1     -26.432  -3.733  29.755  0.00  0.00    +0.080 A 
ENDROOT
BRANCH   2   7
ATOM      7  C   UNL A   1     -23.683  -1.387  28.782  0.00  0.00    +0.000 A 
ATOM      8  C   UNL A   1     -22.581  -1.101  29.225  0.00  0.00    +0.000 A 
ATOM      9  C   UNL A   1     -24.273  -0.456  27.806  0.00  0.00    -0.000 A 
ATOM     10  C   UNL A   1     -21.720  -0.080  28.943  0.00  0.00    -0.000 A 
ATOM     11  C   UNL A   1     -23.528   0.698  27.460  0.00  0.00    -0.000 A 
ATOM     12  C   UNL A   1     -22.231   0.894  28.048  0.00  0.00    -0.000 A 
BRANCH  11  13
ATOM     13  C   UNL A   1     -24.051   1.650  26.526  0.00  0.00    -0.005 C 
ATOM     14  C   UNL A   1     -24.745   2.593  26.928  0.00  0.00    -0.026 C 
ATOM     15  C   UNL A   1     -25.075   2.636  28.333  0.00  0.00    +0.031 C 
ENDBRANCH  11  13
ENDBRANCH   2   7
BRANCH   6  16
ATOM     16  C   UNL A   1     -27.783  -3.757  30.362  0.00  0.00    +0.388 C 
ATOM     17  O   UNL A   1     -28.290  -4.757  30.892  0.00  0.00    -0.241 OA
ATOM     18  O   UNL A   1     -28.502  -2.698  30.280  0.00  0.00    -0.241 OA
ENDBRANCH   6  16
TORSDOF 3
ENDMDL
ENDMDL
