REMARK  Name = outputs/IAG933/test6/raw/output_1933_IAG933_linker_design_.xyz
REMARK  15 active torsions:
REMARK  status: ('A' for Active; 'I' for Inactive)
REMARK    1  A    between atoms: C_1  and  C_2
REMARK    2  A    between atoms: C_1  and  C_8
REMARK    3  A    between atoms: C_1  and  C_34
REMARK    4  A    between atoms: C_13  and  C_37
REMARK    5  A    between atoms: C_14  and  C_15
REMARK    6  A    between atoms: C_21  and  O_22
REMARK    7  A    between atoms: O_22  and  C_23
REMARK    8  A    between atoms: C_23  and  C_24
REMARK    9  A    between atoms: C_31  and  C_34
REMARK   10  A    between atoms: C_31  and  C_42
REMARK   11  A    between atoms: C_32  and  C_33
REMARK   12  A    between atoms: C_34  and  C_35
REMARK   13  A    between atoms: C_38  and  C_41
REMARK   14  A    between atoms: C_38  and  O_44
REMARK   15  A    between atoms: C_41  and  C_42
REMARK                            x       y       z     vdW  Elec       q    Type
REMARK                         _______ _______ _______ _____ _____    ______ ____
ROOT
ATOM      1  C   UNL A   1     -22.162   1.717  27.615  0.00  0.00    +0.224 C 
ATOM      2  N   UNL A   1     -22.306   1.479  28.811  0.00  0.00    -0.217 NA
ATOM      3  C   UNL A   1     -23.174   1.606  26.688  0.00  0.00    +0.089 C 
ATOM      4  C   UNL A   1     -24.391   0.528  28.386  0.00  0.00    -0.003 C 
ATOM      5  C   UNL A   1     -24.430   1.321  27.185  0.00  0.00    +0.005 C 
ATOM      6  F   UNL A   1     -20.839   1.949  27.417  0.00  0.00    -0.183 F 
ATOM      7  C   UNL A   1     -23.226   0.539  29.107  0.00  0.00    +0.097 C 
ENDROOT
BRANCH   5   8
ATOM      8  C   UNL A   1     -25.688   1.614  26.461  0.00  0.00    +0.038 C 
ATOM      9  C   UNL A   1     -26.250   2.920  26.395  0.00  0.00    +0.076 C 
ATOM     10  C   UNL A   1     -27.438   3.091  25.645  0.00  0.00    +0.107 C 
ATOM     11  N   UNL A   1     -28.075   2.089  25.003  0.00  0.00    -0.208 NA
ATOM     12  C   UNL A   1     -27.543   0.849  25.079  0.00  0.00    +0.253 C 
ATOM     13  C   UNL A   1     -26.354   0.576  25.777  0.00  0.00    +0.193 C 
ATOM     14  F   UNL A   1     -25.860  -0.681  25.795  0.00  0.00    -0.199 F 
BRANCH   9  15
ATOM     15  C   UNL A   1     -25.642   4.093  27.123  0.00  0.00    +0.266 C 
ATOM     16  N   UNL A   1     -25.614   5.252  26.449  0.00  0.00    -0.200 NA
ATOM     17  C   UNL A   1     -25.026   6.479  26.963  0.00  0.00    +0.139 C 
ATOM     18  O   UNL A   1     -25.143   3.966  28.243  0.00  0.00    -0.268 OA
ENDBRANCH   9  15
BRANCH  12  19
ATOM     19  O   UNL A   1     -28.193  -0.208  24.477  0.00  0.00    -0.456 OA
BRANCH  19  20
ATOM     20  C   UNL A   1     -29.460   0.005  23.866  0.00  0.00    +0.243 C 
BRANCH  20  21
ATOM     21  C   UNL A   1     -30.065  -1.377  23.573  0.00  0.00    +0.229 C 
ATOM     22  O   UNL A   1     -30.729  -1.878  24.721  0.00  0.00    -0.216 OA
ENDBRANCH  20  21
ENDBRANCH  19  20
ENDBRANCH  12  19
ENDBRANCH   5   8
BRANCH   3  23
ATOM     23  C   UNL A   1     -22.995   1.622  25.235  0.00  0.00    +0.345 C 
ATOM     24  F   UNL A   1     -21.584   1.837  25.272  0.00  0.00    -0.193 F 
ATOM     25  F   UNL A   1     -23.696   0.583  24.582  0.00  0.00    -0.193 F 
ENDBRANCH   3  23
BRANCH   4  26
ATOM     26  C   UNL A   1     -25.301  -0.307  29.008  0.00  0.00    +0.029 C 
BRANCH  26  27
ATOM     27  C   UNL A   1     -24.855  -1.012  30.143  0.00  0.00    +0.042 C 
BRANCH  27  28
ATOM     28  C   UNL A   1     -24.973  -2.505  29.788  0.00  0.00    -0.021 C 
ATOM     29  C   UNL A   1     -23.906  -3.173  29.146  0.00  0.00    -0.004 C 
ATOM     30  C   UNL A   1     -23.989  -4.549  28.853  0.00  0.00    -0.000 C 
ATOM     31  C   UNL A   1     -25.137  -5.280  29.205  0.00  0.00    -0.000 C 
ATOM     32  C   UNL A   1     -26.232  -4.611  29.784  0.00  0.00    -0.000 C 
ATOM     33  C   UNL A   1     -26.155  -3.232  30.065  0.00  0.00    -0.004 C 
ENDBRANCH  27  28
BRANCH  27  34
ATOM     34  C   UNL A   1     -25.387  -0.679  31.571  0.00  0.00    +0.077 C 
ATOM     35  C   UNL A   1     -25.189   0.773  32.028  0.00  0.00    +0.019 C 
ATOM     36  C   UNL A   1     -25.336   0.684  33.544  0.00  0.00    +0.020 C 
ATOM     37  C   UNL A   1     -24.829  -0.715  33.905  0.00  0.00    +0.089 C 
ATOM     38  N   UNL A   1     -24.758  -1.481  32.646  0.00  0.00    -0.219 NA
ENDBRANCH  27  34
ENDBRANCH  26  27
BRANCH  26  39
ATOM     39  C   UNL A   1     -26.672  -0.538  28.537  0.00  0.00    +0.005 C 
BRANCH  39  40
ATOM     40  C   UNL A   1     -27.430   0.552  28.297  0.00  0.00    +0.003 C 
BRANCH  40  41
ATOM     41  C   UNL A   1     -28.151   0.938  29.514  0.00  0.00    +0.032 C 
BRANCH  41  42
ATOM     42  C   UNL A   1     -28.471   2.390  29.515  0.00  0.00    +0.142 C 
BRANCH  42  44
ATOM     43  C   UNL A   1     -27.190   4.253  30.524  0.00  0.00    +0.174 C 
ATOM     44  O   UNL A   1     -27.358   3.165  29.799  0.00  0.00    -0.351 OA
ENDBRANCH  42  44
ENDBRANCH  41  42
ENDBRANCH  40  41
ENDBRANCH  39  40
ENDBRANCH  26  39
ENDBRANCH   4  26
TORSDOF 15
