MODEL 1934
MODEL 1
REMARK VINA RESULT:    -6.225      0.000      0.000
REMARK INTER + INTRA:          -7.155
REMARK INTER:                  -6.953
REMARK INTRA:                  -0.203
REMARK UNBOUND:                -0.203
REMARK  Name = No_1934-gen_results/8p0m/2024-11-27-11-27-31/
REMARK  2 active torsions:
REMARK  status: ('A' for Active; 'I' for Inactive)
REMARK    1  A    between atoms: C_5  and  O_14
REMARK    2  A    between atoms: C_8  and  C_11
REMARK                            x       y       z     vdW  Elec       q    Type
REMARK                         _______ _______ _______ _____ _____    ______ ____
ROOT
ATOM      1  C   UNL A   1     -10.008   2.190  11.154  0.00  0.00    +0.003 A 
ATOM      2  C   UNL A   1      -8.999   1.703  10.699  0.00  0.00    -0.000 A 
ATOM      3  C   UNL A   1      -8.508   1.932   9.426  0.00  0.00    -0.001 A 
ATOM      4  C   UNL A   1      -9.238   2.838   8.602  0.00  0.00    +0.012 A 
ATOM      5  C   UNL A   1     -10.261   3.485   9.183  0.00  0.00    +0.135 A 
ATOM      6  C   UNL A   1     -10.627   3.237  10.407  0.00  0.00    +0.037 A 
ATOM      7  C   UNL A   1      -7.324   1.192   8.857  0.00  0.00    +0.007 A 
ATOM      8  C   UNL A   1      -7.062   0.038   9.493  0.00  0.00    +0.088 A 
ATOM      9  C   UNL A   1      -7.535  -0.268  10.803  0.00  0.00    +0.008 A 
ATOM     10  C   UNL A   1      -8.457   0.448  11.366  0.00  0.00    +0.000 A 
ATOM     11  C   UNL A   1      -8.746   3.348   7.327  0.00  0.00    +0.034 C 
ENDROOT
BRANCH   8  12
ATOM     12  C   UNL A   1      -5.804  -0.744   9.032  0.00  0.00    +0.371 C 
ATOM     13  N   UNL A   1      -4.825  -1.036   9.837  0.00  0.00    -0.031 NA
ATOM     14  N   UNL A   1      -5.801  -1.447   7.872  0.00  0.00    -0.051 NA
ATOM     15  C   UNL A   1      -4.437  -1.750   7.554  0.00  0.00    +0.340 C 
ATOM     16  C   UNL A   1      -3.798  -1.331   8.972  0.00  0.00    +0.267 C 
ENDBRANCH   8  12
BRANCH   5  17
ATOM     17  O   UNL A   1     -10.861   4.470   8.432  0.00  0.00    -0.472 OA
ATOM     18  C   UNL A   1     -11.179   5.462   8.822  0.00  0.00    +0.253 C 
ENDBRANCH   5  17
TORSDOF 2
ENDMDL
ENDMDL
