MODEL 1935
MODEL 1
REMARK VINA RESULT:    -7.833      0.000      0.000
REMARK INTER + INTRA:         -11.451
REMARK INTER:                 -11.038
REMARK INTRA:                  -0.412
REMARK UNBOUND:                -0.412
REMARK  Name = No_1935-gen_results/8p0m/2024-11-27-11-27-31/
REMARK  7 active torsions:
REMARK  status: ('A' for Active; 'I' for Inactive)
REMARK    1  A    between atoms: C_4  and  C_7
REMARK    2  A    between atoms: C_6  and  O_18
REMARK    3  A    between atoms: C_7  and  C_8
REMARK    4  A    between atoms: O_18  and  C_19
REMARK    5  A    between atoms: C_19  and  C_20
REMARK    6  A    between atoms: C_20  and  O_22
REMARK    7  A    between atoms: O_22  and  C_23
REMARK                            x       y       z     vdW  Elec       q    Type
REMARK                         _______ _______ _______ _____ _____    ______ ____
ROOT
ATOM      1  C   UNL A   1     -22.469   1.440  27.332  0.00  0.00    +0.044 A 
ATOM      2  C   UNL A   1     -23.264   1.598  26.659  0.00  0.00    +0.094 A 
ATOM      3  C   UNL A   1     -22.761   0.614  28.514  0.00  0.00    +0.144 A 
ATOM      4  C   UNL A   1     -24.019  -0.043  28.646  0.00  0.00    +0.069 A 
ATOM      5  C   UNL A   1     -24.937   0.211  27.658  0.00  0.00    +0.043 A 
ATOM      6  C   UNL A   1     -24.624   0.998  26.607  0.00  0.00    +0.150 A 
ATOM      7  F   UNL A   1     -21.891   0.371  29.500  0.00  0.00    -0.204 F 
ATOM      8 CL   UNL A   1     -22.905   2.632  25.199  0.00  0.00    -0.079 Cl
ENDROOT
BRANCH   4   9
ATOM      9  C   UNL A   1     -24.308  -0.873  29.801  0.00  0.00    +0.198 C 
ATOM     10  O   UNL A   1     -24.142  -0.381  30.928  0.00  0.00    -0.286 OA
BRANCH   9  11
ATOM     11  C   UNL A   1     -24.753  -2.187  29.535  0.00  0.00    +0.042 A 
ATOM     12  C   UNL A   1     -23.956  -3.121  28.859  0.00  0.00    +0.045 A 
ATOM     13  C   UNL A   1     -24.311  -4.435  28.752  0.00  0.00    +0.196 A 
ATOM     14  C   UNL A   1     -26.073  -2.628  29.867  0.00  0.00    +0.003 A 
ATOM     15  C   UNL A   1     -26.440  -3.966  29.906  0.00  0.00    +0.003 A 
ATOM     16  C   UNL A   1     -25.548  -4.919  29.284  0.00  0.00    +0.042 A 
ATOM     17  O   UNL A   1     -23.485  -5.380  28.212  0.00  0.00    -0.287 OA
ENDBRANCH   9  11
ENDBRANCH   4   9
BRANCH   6  18
ATOM     18  O   UNL A   1     -25.497   1.251  25.576  0.00  0.00    -0.463 OA
BRANCH  18  19
ATOM     19  C   UNL A   1     -26.437   0.400  25.293  0.00  0.00    +0.315 C 
BRANCH  19  20
ATOM     20  C   UNL A   1     -27.410   0.793  24.326  0.00  0.00    +0.366 C 
ATOM     21  O   UNL A   1     -27.625   1.802  24.367  0.00  0.00    -0.245 OA
BRANCH  20  22
ATOM     22  O   UNL A   1     -28.034  -0.120  23.680  0.00  0.00    -0.421 OA
BRANCH  22  23
ATOM     23  C   UNL A   1     -29.434  -0.182  23.640  0.00  0.00    +0.152 A 
ATOM     24  C   UNL A   1     -29.985  -1.439  23.775  0.00  0.00    +0.058 A 
ATOM     25  C   UNL A   1     -31.462  -1.464  23.446  0.00  0.00    +0.102 A 
ATOM     26  N   UNL A   1     -32.066  -0.363  23.326  0.00  0.00    -0.242 NA
ATOM     27  C   UNL A   1     -31.471   0.855  23.181  0.00  0.00    +0.102 A 
ATOM     28  C   UNL A   1     -30.080   0.939  23.348  0.00  0.00    +0.058 A 
ENDBRANCH  22  23
ENDBRANCH  20  22
ENDBRANCH  19  20
ENDBRANCH  18  19
ENDBRANCH   6  18
TORSDOF 7
ENDMDL
ENDMDL
