REMARK  Name = outputs/IAG933/test6/raw/output_1935_IAG933_linker_design_.xyz
REMARK  10 active torsions:
REMARK  status: ('A' for Active; 'I' for Inactive)
REMARK    1  A    between atoms: C_1  and  C_2
REMARK    2  A    between atoms: C_1  and  C_8
REMARK    3  A    between atoms: C_1  and  N_41
REMARK    4  A    between atoms: C_13  and  C_40
REMARK    5  A    between atoms: C_14  and  C_15
REMARK    6  A    between atoms: C_21  and  O_22
REMARK    7  A    between atoms: O_22  and  C_23
REMARK    8  A    between atoms: C_23  and  C_24
REMARK    9  A    between atoms: C_28  and  C_43
REMARK   10  A    between atoms: C_38  and  C_43
REMARK                            x       y       z     vdW  Elec       q    Type
REMARK                         _______ _______ _______ _____ _____    ______ ____
ROOT
ATOM      1  C   UNL A   1     -24.834   1.043  28.594  0.00  0.00    +0.069 C 
ATOM      2  C   UNL A   1     -21.515   1.648  27.161  0.00  0.00    +0.160 C 
ATOM      3  O   UNL A   1     -21.410   1.981  25.812  0.00  0.00    -0.352 OA
ATOM      4  N   UNL A   1     -22.690   1.815  29.431  0.00  0.00    -0.199 NA
ATOM      5  C   UNL A   1     -22.593   2.185  25.193  0.00  0.00    +0.143 C 
ATOM      6  C   UNL A   1     -23.023   0.536  30.154  0.00  0.00    +0.164 C 
ATOM      7  C   UNL A   1     -23.807   1.803  25.762  0.00  0.00    +0.039 C 
ATOM      8  C   UNL A   1     -22.744   1.654  27.977  0.00  0.00    +0.109 C 
ATOM      9  C   UNL A   1     -24.210   1.493  27.246  0.00  0.00    +0.055 C 
ATOM     10  N   UNL A   1     -24.280   0.088  29.389  0.00  0.00    -0.255 NA
ENDROOT
BRANCH   9  11
ATOM     11  C   UNL A   1     -25.688   1.614  26.461  0.00  0.00    +0.018 C 
ATOM     12  C   UNL A   1     -26.250   2.920  26.395  0.00  0.00    +0.073 C 
ATOM     13  C   UNL A   1     -27.438   3.091  25.645  0.00  0.00    +0.106 C 
ATOM     14  N   UNL A   1     -28.075   2.089  25.003  0.00  0.00    -0.208 NA
ATOM     15  C   UNL A   1     -27.543   0.849  25.079  0.00  0.00    +0.253 C 
ATOM     16  C   UNL A   1     -26.354   0.576  25.777  0.00  0.00    +0.189 C 
ATOM     17  F   UNL A   1     -25.860  -0.681  25.795  0.00  0.00    -0.200 F 
BRANCH  12  18
ATOM     18  C   UNL A   1     -25.642   4.093  27.123  0.00  0.00    +0.266 C 
ATOM     19  N   UNL A   1     -25.614   5.252  26.449  0.00  0.00    -0.200 NA
ATOM     20  C   UNL A   1     -25.026   6.479  26.963  0.00  0.00    +0.139 C 
ATOM     21  O   UNL A   1     -25.143   3.966  28.243  0.00  0.00    -0.268 OA
ENDBRANCH  12  18
BRANCH  15  22
ATOM     22  O   UNL A   1     -28.193  -0.208  24.477  0.00  0.00    -0.456 OA
BRANCH  22  23
ATOM     23  C   UNL A   1     -29.460   0.005  23.866  0.00  0.00    +0.243 C 
BRANCH  23  24
ATOM     24  C   UNL A   1     -30.065  -1.377  23.573  0.00  0.00    +0.229 C 
ATOM     25  O   UNL A   1     -30.729  -1.878  24.721  0.00  0.00    -0.216 OA
ENDBRANCH  23  24
ENDBRANCH  22  23
ENDBRANCH  15  22
ENDBRANCH   9  11
BRANCH  10  26
ATOM     26  C   UNL A   1     -24.855  -1.012  30.143  0.00  0.00    +0.097 C 
BRANCH  26  27
ATOM     27  C   UNL A   1     -24.973  -2.505  29.788  0.00  0.00    -0.006 C 
ATOM     28  C   UNL A   1     -23.906  -3.173  29.146  0.00  0.00    -0.003 C 
ATOM     29  C   UNL A   1     -23.989  -4.549  28.853  0.00  0.00    -0.000 C 
ATOM     30  C   UNL A   1     -25.137  -5.280  29.205  0.00  0.00    -0.000 C 
ATOM     31  C   UNL A   1     -26.232  -4.611  29.784  0.00  0.00    -0.000 C 
ATOM     32  C   UNL A   1     -26.155  -3.232  30.065  0.00  0.00    -0.003 C 
ENDBRANCH  26  27
BRANCH  26  33
ATOM     33  C   UNL A   1     -25.387  -0.679  31.571  0.00  0.00    +0.092 C 
ATOM     34  C   UNL A   1     -25.189   0.773  32.028  0.00  0.00    +0.021 C 
ATOM     35  C   UNL A   1     -25.336   0.684  33.544  0.00  0.00    +0.020 C 
ATOM     36  C   UNL A   1     -24.829  -0.715  33.905  0.00  0.00    +0.089 C 
ATOM     37  N   UNL A   1     -24.758  -1.481  32.646  0.00  0.00    -0.218 NA
ENDBRANCH  26  33
ENDBRANCH  10  26
BRANCH   1  38
ATOM     38  C   UNL A   1     -26.151   1.832  29.120  0.00  0.00    +0.078 C 
BRANCH  38  41
ATOM     39  C   UNL A   1     -29.413   1.030  27.992  0.00  0.00    +0.177 C 
ATOM     40  O   UNL A   1     -28.472   1.945  28.631  0.00  0.00    -0.328 OA
ATOM     41  C   UNL A   1     -27.454   0.915  28.499  0.00  0.00    +0.237 C 
ATOM     42  O   UNL A   1     -27.789  -0.479  28.128  0.00  0.00    -0.328 OA
ATOM     43  C   UNL A   1     -29.134  -0.376  27.981  0.00  0.00    +0.177 C 
ENDBRANCH  38  41
ENDBRANCH   1  38
TORSDOF 10
