MODEL 1936
MODEL 1
REMARK VINA RESULT:    -7.611      0.000      0.000
REMARK INTER + INTRA:          -9.450
REMARK INTER:                  -8.946
REMARK INTRA:                  -0.505
REMARK UNBOUND:                -0.505
REMARK  Name = No_1936-gen_results/8p0m/2024-11-27-11-27-31/
REMARK  3 active torsions:
REMARK  status: ('A' for Active; 'I' for Inactive)
REMARK    1  A    between atoms: C_2  and  C_5
REMARK    2  A    between atoms: C_3  and  C_4
REMARK    3  A    between atoms: C_4  and  C_6
REMARK                            x       y       z     vdW  Elec       q    Type
REMARK                         _______ _______ _______ _____ _____    ______ ____
ROOT
ATOM      1  C   UNL A   1     -23.843   0.462  27.631  0.00  0.00    -0.003 A 
ATOM      2  C   UNL A   1     -23.099   1.067  27.195  0.00  0.00    +0.043 A 
ATOM      3  C   UNL A   1     -23.337  -0.429  28.674  0.00  0.00    -0.018 A 
ATOM      4  C   UNL A   1     -21.633   1.148  27.606  0.00  0.00    +0.001 A 
ATOM      5  C   UNL A   1     -21.163   0.367  28.522  0.00  0.00    -0.001 A 
ATOM      6  C   UNL A   1     -22.020  -0.453  29.171  0.00  0.00    -0.004 A 
ENDROOT
BRANCH   2   7
ATOM      7  C   UNL A   1     -23.486   2.126  26.117  0.00  0.00    +0.341 C 
ATOM      8  F   UNL A   1     -23.869   3.226  26.495  0.00  0.00    -0.193 F 
ATOM      9  F   UNL A   1     -22.425   2.438  25.233  0.00  0.00    -0.193 F 
ENDBRANCH   2   7
BRANCH   3  10
ATOM     10  C   UNL A   1     -24.202  -1.298  29.504  0.00  0.00    +0.053 C 
BRANCH  10  11
ATOM     11  C   UNL A   1     -24.486  -2.609  29.165  0.00  0.00    -0.018 A 
ATOM     12  C   UNL A   1     -23.823  -3.285  28.831  0.00  0.00    -0.004 A 
ATOM     13  C   UNL A   1     -24.078  -4.767  28.545  0.00  0.00    -0.000 A 
ATOM     14  C   UNL A   1     -25.299  -5.186  29.117  0.00  0.00    -0.000 A 
ATOM     15  C   UNL A   1     -26.167  -4.314  29.670  0.00  0.00    -0.000 A 
ATOM     16  C   UNL A   1     -25.786  -2.972  29.817  0.00  0.00    -0.004 A 
ENDBRANCH  10  11
ENDBRANCH   3  10
TORSDOF 3
ENDMDL
ENDMDL
