REMARK  Name = No_1937-gen_results/8p0m/2024-11-27-11-27-31/
REMARK  2 active torsions:
REMARK  status: ('A' for Active; 'I' for Inactive)
REMARK    1  A    between atoms: C_3  and  C_7
REMARK    2  A    between atoms: C_6  and  C_13
REMARK                            x       y       z     vdW  Elec       q    Type
REMARK                         _______ _______ _______ _____ _____    ______ ____
ROOT
ATOM      1  C   UNL A   1     -28.016  -0.814  28.878  0.00  0.00    +0.004 A 
ATOM      2  C   UNL A   1     -27.064  -0.119  28.608  0.00  0.00    +0.000 A 
ATOM      3  C   UNL A   1     -25.765  -0.390  29.036  0.00  0.00    +0.000 A 
ATOM      4  C   UNL A   1     -25.530  -1.530  29.901  0.00  0.00    +0.000 A 
ATOM      5  C   UNL A   1     -26.658  -2.292  30.203  0.00  0.00    +0.004 A 
ATOM      6  C   UNL A   1     -27.855  -1.956  29.763  0.00  0.00    +0.054 A 
ENDROOT
BRANCH   6   7
ATOM      7  C   UNL A   1     -29.025  -2.782  30.164  0.00  0.00    +0.249 C 
ATOM      8  N   UNL A   1     -29.362  -2.728  31.338  0.00  0.00    -0.276 N 
ATOM      9  C   UNL A   1     -29.893  -3.747  31.988  0.00  0.00    +0.094 C 
ATOM     10  C   UNL A   1     -29.263  -1.558  32.057  0.00  0.00    +0.094 C 
ATOM     11  C   UNL A   1     -29.695  -1.498  33.408  0.00  0.00    +0.022 C 
ATOM     12  C   UNL A   1     -30.319  -3.773  33.399  0.00  0.00    +0.022 C 
ATOM     13  C   UNL A   1     -30.190  -2.585  34.069  0.00  0.00    +0.004 C 
ATOM     14  O   UNL A   1     -29.528  -3.523  29.366  0.00  0.00    -0.270 OA
ENDBRANCH   6   7
BRANCH   3  15
ATOM     15  C   UNL A   1     -24.544   0.413  28.738  0.00  0.00    +0.000 A 
ATOM     16  C   UNL A   1     -24.473   1.206  27.711  0.00  0.00    +0.000 A 
ATOM     17  C   UNL A   1     -23.278   1.842  27.366  0.00  0.00    +0.000 A 
ATOM     18  C   UNL A   1     -22.182   1.554  28.042  0.00  0.00    +0.000 A 
ATOM     19  C   UNL A   1     -23.382   0.353  29.639  0.00  0.00    +0.000 A 
ATOM     20  C   UNL A   1     -22.168   0.873  29.209  0.00  0.00    +0.000 A 
ENDBRANCH   3  15
TORSDOF 2
