MODEL 1938
MODEL 1
REMARK VINA RESULT:    -6.729      0.000      0.000
REMARK INTER + INTRA:          -7.962
REMARK INTER:                  -7.515
REMARK INTRA:                  -0.447
REMARK UNBOUND:                -0.447
REMARK  Name = No_1938-gen_results/8p0m/2024-11-27-11-27-31/
REMARK  2 active torsions:
REMARK  status: ('A' for Active; 'I' for Inactive)
REMARK    1  A    between atoms: C_2  and  C_8
REMARK    2  A    between atoms: C_8  and  C_9
REMARK                            x       y       z     vdW  Elec       q    Type
REMARK                         _______ _______ _______ _____ _____    ______ ____
ROOT
ATOM      1  C   UNL A   1     -25.661  -2.603  29.781  0.00  0.00    +0.007 A 
ATOM      2  C   UNL A   1     -24.538  -2.405  29.379  0.00  0.00    -0.017 A 
ATOM      3  C   UNL A   1     -23.793  -3.424  28.797  0.00  0.00    -0.004 A 
ATOM      4  C   UNL A   1     -24.319  -4.762  28.696  0.00  0.00    +0.001 A 
ATOM      5  C   UNL A   1     -25.615  -4.908  29.207  0.00  0.00    +0.011 A 
ATOM      6  C   UNL A   1     -26.271  -3.915  29.763  0.00  0.00    +0.057 A 
ATOM      7 CL   UNL A   1     -27.848  -4.323  30.337  0.00  0.00    -0.082 Cl
ENDROOT
BRANCH   2   8
ATOM      8  C   UNL A   1     -23.833  -1.094  29.440  0.00  0.00    +0.053 C 
BRANCH   8   9
ATOM      9  C   UNL A   1     -23.533  -0.309  28.596  0.00  0.00    -0.018 A 
ATOM     10  C   UNL A   1     -22.394   0.595  28.598  0.00  0.00    -0.004 A 
ATOM     11  C   UNL A   1     -22.122   1.601  27.569  0.00  0.00    -0.000 A 
ATOM     12  C   UNL A   1     -23.103   1.719  26.599  0.00  0.00    -0.000 A 
ATOM     13  C   UNL A   1     -24.229   0.923  26.599  0.00  0.00    -0.000 A 
ATOM     14  C   UNL A   1     -24.481   0.013  27.511  0.00  0.00    -0.004 A 
ENDBRANCH   8   9
ENDBRANCH   2   8
TORSDOF 2
ENDMDL
ENDMDL
