REMARK  Name = No_1938-gen_results/8p0m/2024-11-27-11-27-31/
REMARK  2 active torsions:
REMARK  status: ('A' for Active; 'I' for Inactive)
REMARK    1  A    between atoms: C_2  and  C_8
REMARK    2  A    between atoms: C_8  and  C_9
REMARK                            x       y       z     vdW  Elec       q    Type
REMARK                         _______ _______ _______ _____ _____    ______ ____
ROOT
ATOM      1  C   UNL A   1     -28.016  -0.814  28.878  0.00  0.00    +0.007 A 
ATOM      2  C   UNL A   1     -27.064  -0.119  28.608  0.00  0.00    -0.017 A 
ATOM      3  C   UNL A   1     -25.792  -0.430  29.076  0.00  0.00    -0.004 A 
ATOM      4  C   UNL A   1     -25.576  -1.565  29.936  0.00  0.00    +0.001 A 
ATOM      5  C   UNL A   1     -26.735  -2.300  30.217  0.00  0.00    +0.011 A 
ATOM      6  C   UNL A   1     -27.918  -1.954  29.763  0.00  0.00    +0.057 A 
ATOM      7 CL   UNL A   1     -29.209  -2.996  30.244  0.00  0.00    -0.082 Cl
ENDROOT
BRANCH   2   8
ATOM      8  C   UNL A   1     -27.119   1.107  27.764  0.00  0.00    +0.053 C 
BRANCH   8   9
ATOM      9  C   UNL A   1     -26.621   2.182  27.885  0.00  0.00    -0.018 A 
ATOM     10  C   UNL A   1     -26.657   3.281  26.933  0.00  0.00    -0.004 A 
ATOM     11  C   UNL A   1     -25.953   4.555  27.098  0.00  0.00    -0.000 A 
ATOM     12  C   UNL A   1     -25.135   4.625  28.214  0.00  0.00    -0.000 A 
ATOM     13  C   UNL A   1     -25.025   3.579  29.106  0.00  0.00    -0.000 A 
ATOM     14  C   UNL A   1     -25.656   2.436  28.972  0.00  0.00    -0.004 A 
ENDBRANCH   8   9
ENDBRANCH   2   8
TORSDOF 2
