MODEL 1939
MODEL 1
REMARK VINA RESULT:    -7.875      0.000      0.000
REMARK INTER + INTRA:         -10.234
REMARK INTER:                  -9.716
REMARK INTRA:                  -0.518
REMARK UNBOUND:                -0.518
REMARK  Name = No_1939-gen_results/8p0m/2024-11-27-11-27-31/
REMARK  4 active torsions:
REMARK  status: ('A' for Active; 'I' for Inactive)
REMARK    1  A    between atoms: C_2  and  C_14
REMARK    2  A    between atoms: C_9  and  C_11
REMARK    3  A    between atoms: C_19  and  C_20
REMARK    4  A    between atoms: N_22  and  C_23
REMARK                            x       y       z     vdW  Elec       q    Type
REMARK                         _______ _______ _______ _____ _____    ______ ____
ROOT
ATOM      1  C   UNL A   1     -30.833  -6.912   9.702  0.00  0.00    +0.081 A 
ATOM      2  N   UNL A   1     -30.125  -7.874   9.450  0.00  0.00    -0.244 NA
ATOM      3  C   UNL A   1     -31.952  -7.350  10.617  0.00  0.00    +0.019 A 
ATOM      4  C   UNL A   1     -32.094  -8.673  10.828  0.00  0.00    +0.008 A 
ATOM      5  C   UNL A   1     -30.104  -9.154   9.569  0.00  0.00    +0.103 A 
ATOM      6  C   UNL A   1     -31.160  -9.589  10.362  0.00  0.00    +0.074 A 
ENDROOT
BRANCH   1   8
ATOM      7  C   UNL A   1     -30.134  -5.058   8.637  0.00  0.00    +0.002 A 
ATOM      8  C   UNL A   1     -30.785  -5.339   9.417  0.00  0.00    +0.018 A 
ATOM      9  C   UNL A   1     -30.156  -3.711   8.214  0.00  0.00    +0.000 A 
ATOM     10  C   UNL A   1     -30.758  -2.890   8.748  0.00  0.00    +0.000 A 
ATOM     11  C   UNL A   1     -31.661  -4.497  10.232  0.00  0.00    +0.002 A 
ATOM     12  C   UNL A   1     -31.635  -3.197   9.850  0.00  0.00    +0.000 A 
ATOM     13  C   UNL A   1     -29.196  -3.290   7.068  0.00  0.00    +0.000 A 
ATOM     14  C   UNL A   1     -28.432  -2.110   7.269  0.00  0.00    +0.007 A 
ATOM     15  C   UNL A   1     -29.010  -1.091   8.068  0.00  0.00    +0.080 A 
ATOM     16  C   UNL A   1     -30.140  -1.460   8.956  0.00  0.00    +0.007 A 
BRANCH  15  17
ATOM     17  C   UNL A   1     -28.535   0.267   7.979  0.00  0.00    +0.388 C 
ATOM     18  O   UNL A   1     -29.032   1.022   7.144  0.00  0.00    -0.241 OA
ATOM     19  O   UNL A   1     -27.824   0.725   9.053  0.00  0.00    -0.241 OA
ENDBRANCH  15  17
ENDBRANCH   1   8
BRANCH   6  20
ATOM     20  C   UNL A   1     -31.309 -11.030  10.668  0.00  0.00    +0.271 C 
ATOM     21  O   UNL A   1     -32.135 -11.688  10.512  0.00  0.00    -0.268 OA
ATOM     22  N   UNL A   1     -30.037 -11.652  10.913  0.00  0.00    -0.175 NA
BRANCH  22  23
ATOM     23  C   UNL A   1     -29.990 -13.044  11.163  0.00  0.00    +0.074 A 
ATOM     24  C   UNL A   1     -30.005 -13.401  12.423  0.00  0.00    +0.017 A 
ATOM     25  C   UNL A   1     -29.912 -14.679  12.799  0.00  0.00    +0.001 A 
ATOM     26  C   UNL A   1     -29.848 -15.663  11.750  0.00  0.00    +0.000 A 
ATOM     27  C   UNL A   1     -29.809 -15.254  10.450  0.00  0.00    +0.001 A 
ATOM     28  C   UNL A   1     -29.910 -13.875  10.104  0.00  0.00    +0.017 A 
ENDBRANCH  22  23
ENDBRANCH   6  20
TORSDOF 4
ENDMDL
ENDMDL
