MODEL 193
MODEL 1
REMARK VINA RESULT:    -7.986      0.000      0.000
REMARK INTER + INTRA:          -8.632
REMARK INTER:                  -8.920
REMARK INTRA:                   0.288
REMARK UNBOUND:                 0.288
REMARK  Name = No_193-gen_results/8p0m/2024-11-27-11-27-31/
REMARK  2 active torsions:
REMARK  status: ('A' for Active; 'I' for Inactive)
REMARK    1  A    between atoms: C_6  and  C_15
REMARK    2  A    between atoms: C_8  and  C_18
REMARK                            x       y       z     vdW  Elec       q    Type
REMARK                         _______ _______ _______ _____ _____    ______ ____
ROOT
ATOM      1  C   UNL A   1     -11.328   1.407  38.225  0.00  0.00    +0.004 A 
ATOM      2  C   UNL A   1     -11.886   1.779  37.218  0.00  0.00    +0.000 A 
ATOM      3  C   UNL A   1     -13.038   2.545  37.182  0.00  0.00    +0.000 A 
ATOM      4  C   UNL A   1     -13.769   2.934  36.000  0.00  0.00    +0.000 A 
ATOM      5  C   UNL A   1     -13.286   2.513  34.737  0.00  0.00    +0.007 A 
ATOM      6  C   UNL A   1     -12.110   1.689  34.746  0.00  0.00    +0.080 A 
ATOM      7  C   UNL A   1     -11.447   1.310  35.880  0.00  0.00    +0.006 A 
ATOM      8  C   UNL A   1     -10.037   0.671  38.128  0.00  0.00    +0.054 A 
ATOM      9  C   UNL A   1      -9.654   0.101  36.882  0.00  0.00    +0.004 A 
ATOM     10  C   UNL A   1     -10.331   0.455  35.737  0.00  0.00    +0.000 A 
ATOM     11  C   UNL A   1     -13.700   3.046  38.418  0.00  0.00    +0.000 A 
ATOM     12  C   UNL A   1     -14.966   3.155  38.604  0.00  0.00    +0.000 A 
ATOM     13  C   UNL A   1     -15.723   3.494  37.324  0.00  0.00    +0.000 A 
ATOM     14  C   UNL A   1     -15.109   3.428  36.036  0.00  0.00    +0.000 A 
ENDROOT
BRANCH   8  15
ATOM     15  C   UNL A   1      -9.354   0.244  39.371  0.00  0.00    +0.249 C 
ATOM     16  O   UNL A   1      -8.292   0.731  39.697  0.00  0.00    -0.270 OA
ATOM     17  N   UNL A   1      -9.935  -0.669  40.132  0.00  0.00    -0.276 N 
ATOM     18  C   UNL A   1      -9.324  -1.143  41.375  0.00  0.00    +0.094 C 
ATOM     19  C   UNL A   1      -9.914  -2.074  41.934  0.00  0.00    +0.022 C 
ATOM     20  C   UNL A   1     -11.108  -2.677  41.423  0.00  0.00    +0.004 C 
ATOM     21  C   UNL A   1     -11.668  -2.248  40.208  0.00  0.00    +0.022 C 
ATOM     22  C   UNL A   1     -11.103  -1.289  39.594  0.00  0.00    +0.094 C 
ENDBRANCH   8  15
BRANCH   6  23
ATOM     23  C   UNL A   1     -11.603   1.328  33.348  0.00  0.00    +0.388 C 
ATOM     24  O   UNL A   1     -12.375   1.053  32.468  0.00  0.00    -0.241 OA
ATOM     25  O   UNL A   1     -10.341   1.773  32.998  0.00  0.00    -0.241 OA
ENDBRANCH   6  23
TORSDOF 2
ENDMDL
ENDMDL
