REMARK  Name = No_194-gen_results/8p0m/2024-11-27-11-27-31/
REMARK  4 active torsions:
REMARK  status: ('A' for Active; 'I' for Inactive)
REMARK    1  A    between atoms: C_2  and  C_7
REMARK    2  A    between atoms: N_9  and  C_11
REMARK    3  A    between atoms: C_12  and  C_13
REMARK    4  A    between atoms: C_14  and  C_15
REMARK                            x       y       z     vdW  Elec       q    Type
REMARK                         _______ _______ _______ _____ _____    ______ ____
ROOT
ATOM      1  C   UNL A   1     -30.061  -0.737  29.902  0.00  0.00    +0.253 C 
ATOM      2  O   UNL A   1     -30.725  -1.554  30.270  0.00  0.00    -0.270 OA
ATOM      3  N   UNL A   1     -30.524   0.566  29.697  0.00  0.00    -0.252 N 
ATOM      4  C   UNL A   1     -31.930   0.764  29.624  0.00  0.00    +0.120 C 
ENDROOT
BRANCH   1   6
ATOM      5  C   UNL A   1     -28.016  -0.814  28.878  0.00  0.00    +0.004 A 
ATOM      6  C   UNL A   1     -28.469  -0.785  29.829  0.00  0.00    +0.054 A 
ATOM      7  C   UNL A   1     -26.546  -0.876  28.850  0.00  0.00    +0.000 A 
ATOM      8  C   UNL A   1     -25.804  -1.032  30.057  0.00  0.00    +0.000 A 
ATOM      9  C   UNL A   1     -27.944  -0.987  31.207  0.00  0.00    +0.004 A 
ATOM     10  C   UNL A   1     -26.582  -1.039  31.223  0.00  0.00    +0.000 A 
ENDBRANCH   1   6
BRANCH   3  11
ATOM     11  C   UNL A   1     -29.684   1.691  29.339  0.00  0.00    +0.068 C 
ATOM     12  C   UNL A   1     -29.535   2.211  28.274  0.00  0.00    +0.016 C 
BRANCH  12  13
ATOM     13  C   UNL A   1     -28.588   3.263  28.015  0.00  0.00    +0.001 C 
ATOM     14  C   UNL A   1     -28.289   3.789  26.763  0.00  0.00    +0.000 C 
BRANCH  14  15
ATOM     15  C   UNL A   1     -29.064   3.284  25.633  0.00  0.00    +0.000 C 
ATOM     16  C   UNL A   1     -29.982   2.306  25.858  0.00  0.00    +0.000 C 
ENDBRANCH  14  15
ENDBRANCH  12  13
ENDBRANCH   3  11
TORSDOF 4
