MODEL 1940
MODEL 1
REMARK VINA RESULT:    -5.487      0.000      0.000
REMARK INTER + INTRA:          -7.216
REMARK INTER:                  -6.770
REMARK INTRA:                  -0.446
REMARK UNBOUND:                -0.446
REMARK  Name = No_1940-gen_results/8p0m/2024-11-27-11-27-31/
REMARK  4 active torsions:
REMARK  status: ('A' for Active; 'I' for Inactive)
REMARK    1  A    between atoms: C_1  and  C_2
REMARK    2  A    between atoms: C_1  and  N_8
REMARK    3  A    between atoms: C_5  and  C_9
REMARK    4  A    between atoms: C_11  and  C_12
REMARK                            x       y       z     vdW  Elec       q    Type
REMARK                         _______ _______ _______ _____ _____    ______ ____
ROOT
ATOM      1  C   UNL A   1     -29.442 -10.614  32.172  0.00  0.00    +0.142 C 
ENDROOT
BRANCH   1   2
ATOM      2  C   UNL A   1     -29.521 -10.741  30.973  0.00  0.00    -0.001 A 
ATOM      3  C   UNL A   1     -28.818 -11.705  30.251  0.00  0.00    -0.003 A 
ATOM      4  C   UNL A   1     -28.845 -11.923  28.792  0.00  0.00    -0.004 A 
ATOM      5  C   UNL A   1     -29.847 -11.201  28.074  0.00  0.00    -0.022 A 
ATOM      6  C   UNL A   1     -30.608 -10.255  28.769  0.00  0.00    -0.004 A 
ATOM      7  C   UNL A   1     -30.485 -10.036  30.097  0.00  0.00    -0.003 A 
BRANCH   5   8
ATOM      8  C   UNL A   1     -29.925 -11.477  26.665  0.00  0.00    +0.026 C 
ATOM      9  C   UNL A   1     -29.567 -12.972  26.371  0.00  0.00    +0.005 C 
ENDBRANCH   5   8
ENDBRANCH   1   2
BRANCH   1  10
ATOM     10  N   UNL A   1     -28.647 -11.527  32.839  0.00  0.00    -0.190 NA
ATOM     11  C   UNL A   1     -27.799 -11.248  33.880  0.00  0.00    +0.305 C 
ATOM     12  O   UNL A   1     -27.193 -12.240  34.506  0.00  0.00    -0.259 OA
BRANCH  11  13
ATOM     13  C   UNL A   1     -27.567 -10.032  34.221  0.00  0.00    +0.009 C 
ATOM     14  P   UNL A   1     -27.660  -9.007  35.334  0.00  0.00    +0.321 P 
ATOM     15  O   UNL A   1     -27.776  -7.916  35.139  0.00  0.00    -0.161 OA
ATOM     16  O   UNL A   1     -28.867  -9.593  36.208  0.00  0.00    -0.161 OA
ENDBRANCH  11  13
ENDBRANCH   1  10
TORSDOF 4
ENDMDL
ENDMDL
