REMARK  Name = No_1941-gen_results/8p0m/2024-11-27-11-27-31/
REMARK  10 active torsions:
REMARK  status: ('A' for Active; 'I' for Inactive)
REMARK    1  A    between atoms: C_2  and  C_3
REMARK    2  A    between atoms: C_5  and  C_6
REMARK    3  A    between atoms: C_6  and  O_15
REMARK    4  A    between atoms: O_15  and  C_18
REMARK    5  A    between atoms: C_18  and  C_19
REMARK    6  A    between atoms: C_19  and  O_20
REMARK    7  A    between atoms: C_19  and  C_21
REMARK    8  A    between atoms: C_21  and  C_22
REMARK    9  A    between atoms: C_21  and  N_26
REMARK   10  A    between atoms: C_31  and  C_32
REMARK                            x       y       z     vdW  Elec       q    Type
REMARK                         _______ _______ _______ _____ _____    ______ ____
ROOT
ATOM      1  C   UNL A   1     -31.417  -2.062  31.000  0.00  0.00    +0.240 C 
ENDROOT
BRANCH   1   2
ATOM      2  O   UNL A   1     -30.367  -1.779  30.340  0.00  0.00    -0.443 OA
BRANCH   2   3
ATOM      3  C   UNL A   1     -29.172  -2.239  30.653  0.00  0.00    +0.341 C 
ATOM      4  O   UNL A   1     -29.056  -3.438  30.817  0.00  0.00    -0.245 OA
BRANCH   3   7
ATOM      5  C   UNL A   1     -28.016  -0.814  28.878  0.00  0.00    +0.009 A 
ATOM      6  C   UNL A   1     -27.064  -0.119  28.608  0.00  0.00    +0.030 A 
ATOM      7  C   UNL A   1     -28.059  -1.396  30.214  0.00  0.00    +0.078 A 
ATOM      8  C   UNL A   1     -26.883  -1.339  31.081  0.00  0.00    +0.038 A 
ATOM      9  C   UNL A   1     -25.780  -0.670  30.662  0.00  0.00    +0.168 A 
ATOM     10  C   UNL A   1     -25.789   0.026  29.463  0.00  0.00    +0.167 A 
ATOM     11  F   UNL A   1     -24.835   0.720  29.103  0.00  0.00    -0.202 F 
ATOM     12  F   UNL A   1     -24.750  -0.591  31.383  0.00  0.00    -0.202 F 
BRANCH   6  13
ATOM     13  C   UNL A   1     -27.001   0.691  27.491  0.00  0.00    +0.002 A 
ATOM     14  C   UNL A   1     -27.178   1.904  27.563  0.00  0.00    +0.000 A 
ATOM     15  C   UNL A   1     -26.702   0.045  26.185  0.00  0.00    +0.000 A 
ATOM     16  C   UNL A   1     -27.190   2.786  26.363  0.00  0.00    +0.000 A 
ATOM     17  C   UNL A   1     -26.729   0.772  24.974  0.00  0.00    +0.000 A 
ATOM     18  C   UNL A   1     -26.927   2.181  25.042  0.00  0.00    +0.000 A 
ENDBRANCH   6  13
ENDBRANCH   3   7
ENDBRANCH   2   3
ENDBRANCH   1   2
BRANCH   1  19
ATOM     19  C   UNL A   1     -32.392  -2.164  30.312  0.00  0.00    +0.182 C 
BRANCH  19  20
ATOM     20  O   UNL A   1     -32.605  -1.459  29.330  0.00  0.00    -0.348 OA
ATOM     21  C   UNL A   1     -33.234  -0.257  29.532  0.00  0.00    +0.174 C 
ENDBRANCH  19  20
BRANCH  19  22
ATOM     22  C   UNL A   1     -32.691  -3.679  29.753  0.00  0.00    +0.185 C 
BRANCH  22  23
ATOM     23  N   UNL A   1     -33.052  -4.512  30.895  0.00  0.00    -0.265 NA
ATOM     24  C   UNL A   1     -33.598  -4.271  31.953  0.00  0.00    +0.073 C 
ATOM     25  C   UNL A   1     -33.791  -5.341  32.852  0.00  0.00    +0.029 C 
ATOM     26  C   UNL A   1     -32.452  -5.899  30.803  0.00  0.00    +0.073 C 
ATOM     27  C   UNL A   1     -32.636  -6.860  31.659  0.00  0.00    +0.029 C 
ATOM     28  C   UNL A   1     -33.325  -6.540  32.786  0.00  0.00    +0.106 C 
BRANCH  28  29
ATOM     29  C   UNL A   1     -33.561  -7.582  33.789  0.00  0.00    +0.364 C 
ATOM     30  O   UNL A   1     -33.664  -7.377  34.907  0.00  0.00    -0.246 OA
ATOM     31  O   UNL A   1     -33.896  -8.745  33.236  0.00  0.00    -0.246 OA
ENDBRANCH  28  29
ENDBRANCH  22  23
BRANCH  22  32
ATOM     32  C   UNL A   1     -33.562  -3.736  28.860  0.00  0.00    +0.413 C 
ATOM     33  F   UNL A   1     -33.991  -4.773  28.441  0.00  0.00    -0.168 F 
ATOM     34  F   UNL A   1     -32.965  -3.143  27.610  0.00  0.00    -0.168 F 
ATOM     35  F   UNL A   1     -34.737  -2.955  28.852  0.00  0.00    -0.168 F 
ENDBRANCH  22  32
ENDBRANCH  19  22
ENDBRANCH   1  19
TORSDOF 10
