MODEL 1944
MODEL 1
REMARK VINA RESULT:    -5.977      0.000      0.000
REMARK INTER + INTRA:          -6.465
REMARK INTER:                  -6.327
REMARK INTRA:                  -0.138
REMARK UNBOUND:                -0.138
REMARK  Name = No_1944-gen_results/8p0m/2024-11-27-11-27-31/
REMARK  1 active torsions:
REMARK  status: ('A' for Active; 'I' for Inactive)
REMARK    1  A    between atoms: C_3  and  C_7
REMARK                            x       y       z     vdW  Elec       q    Type
REMARK                         _______ _______ _______ _____ _____    ______ ____
ROOT
ATOM      1  C   UNL A   1     -24.029  -4.083  28.716  0.00  0.00    +0.003 A 
ATOM      2  C   UNL A   1     -24.719  -4.844  28.951  0.00  0.00    +0.000 A 
ATOM      3  C   UNL A   1     -24.378  -2.754  29.039  0.00  0.00    +0.036 A 
ATOM      4  C   UNL A   1     -25.585  -2.439  29.631  0.00  0.00    +0.003 A 
ATOM      5  C   UNL A   1     -26.054  -4.781  29.577  0.00  0.00    +0.000 A 
ATOM      6  C   UNL A   1     -26.428  -3.524  29.902  0.00  0.00    +0.000 A 
ENDROOT
BRANCH   3   7
ATOM      7  C   UNL A   1     -23.471  -1.583  28.790  0.00  0.00    +0.166 A 
ATOM      8  N   UNL A   1     -22.338  -1.468  29.193  0.00  0.00    -0.205 NA
ATOM      9  N   UNL A   1     -24.004  -0.490  28.075  0.00  0.00    -0.205 NA
ATOM     10  C   UNL A   1     -21.975  -0.143  28.821  0.00  0.00    +0.202 A 
ATOM     11  C   UNL A   1     -23.705   0.459  27.689  0.00  0.00    +0.202 A 
ATOM     12  N   UNL A   1     -22.379   0.697  28.096  0.00  0.00    -0.202 NA
ENDBRANCH   3   7
TORSDOF 1
ENDMDL
ENDMDL
