REMARK  Name = No_1945-gen_results/8p0m/2024-11-27-11-27-31/
REMARK  2 active torsions:
REMARK  status: ('A' for Active; 'I' for Inactive)
REMARK    1  A    between atoms: C_2  and  C_3
REMARK    2  A    between atoms: N_4  and  C_10
REMARK                            x       y       z     vdW  Elec       q    Type
REMARK                         _______ _______ _______ _____ _____    ______ ____
ROOT
ATOM      1  O   UNL A   1     -28.123  -1.335  28.487  0.00  0.00    -0.268 OA
ATOM      2  C   UNL A   1     -28.521  -0.436  29.078  0.00  0.00    +0.269 C 
ATOM      3  N   UNL A   1     -29.125  -0.940  30.427  0.00  0.00    -0.175 NA
ENDROOT
BRANCH   2   4
ATOM      4  C   UNL A   1     -28.589   0.592  28.946  0.00  0.00    +0.055 A 
ATOM      5  C   UNL A   1     -27.620   1.274  28.139  0.00  0.00    +0.005 A 
ATOM      6  C   UNL A   1     -27.130   2.501  28.139  0.00  0.00    +0.000 A 
ATOM      7  C   UNL A   1     -27.352   3.271  29.297  0.00  0.00    +0.000 A 
ATOM      8  C   UNL A   1     -28.358   2.803  30.125  0.00  0.00    +0.000 A 
ATOM      9  C   UNL A   1     -28.758   1.519  30.062  0.00  0.00    +0.005 A 
ENDBRANCH   2   4
BRANCH   3  10
ATOM     10  C   UNL A   1     -29.293  -1.976  30.864  0.00  0.00    +0.074 A 
ATOM     11  C   UNL A   1     -28.877  -3.157  30.191  0.00  0.00    +0.017 A 
ATOM     12  C   UNL A   1     -29.499  -4.478  30.566  0.00  0.00    +0.001 A 
ATOM     13  C   UNL A   1     -29.595  -4.770  31.769  0.00  0.00    +0.000 A 
ATOM     14  C   UNL A   1     -29.831  -3.653  32.727  0.00  0.00    +0.001 A 
ATOM     15  C   UNL A   1     -29.764  -2.344  32.250  0.00  0.00    +0.017 A 
ENDBRANCH   3  10
TORSDOF 2
