REMARK  Name = outputs/IAG933/test6/raw/output_1946_IAG933_linker_design_.xyz
REMARK  11 active torsions:
REMARK  status: ('A' for Active; 'I' for Inactive)
REMARK    1  A    between atoms: C_1  and  C_2
REMARK    2  A    between atoms: C_1  and  C_8
REMARK    3  A    between atoms: C_1  and  C_33
REMARK    4  A    between atoms: C_13  and  C_42
REMARK    5  A    between atoms: C_14  and  C_15
REMARK    6  A    between atoms: C_21  and  O_22
REMARK    7  A    between atoms: O_22  and  C_23
REMARK    8  A    between atoms: C_23  and  C_24
REMARK    9  A    between atoms: C_29  and  N_36
REMARK   10  A    between atoms: C_31  and  C_41
REMARK   11  A    between atoms: N_34  and  C_41
REMARK                            x       y       z     vdW  Elec       q    Type
REMARK                         _______ _______ _______ _____ _____    ______ ____
ROOT
ATOM      1  C   UNL A   1     -25.535   0.364  28.361  0.00  0.00    +0.085 A 
ATOM      2  C   UNL A   1     -24.460  -0.154  29.237  0.00  0.00    +0.080 A 
ATOM      3 CL   UNL A   1     -22.972   2.098  25.605  0.00  0.00    -0.080 Cl
ATOM      4  C   UNL A   1     -23.512   1.348  27.030  0.00  0.00    +0.084 A 
ATOM      5 CL   UNL A   1     -20.974   1.486  27.807  0.00  0.00    -0.060 Cl
ATOM      6  C   UNL A   1     -22.608   0.967  27.983  0.00  0.00    +0.148 A 
ATOM      7  C   UNL A   1     -24.879   1.145  27.275  0.00  0.00    +0.014 A 
ATOM      8  N   UNL A   1     -23.099   0.172  29.070  0.00  0.00    -0.236 NA
ENDROOT
BRANCH   7   9
ATOM      9  C   UNL A   1     -25.688   1.614  26.461  0.00  0.00    +0.095 C 
ATOM     10  C   UNL A   1     -26.250   2.920  26.395  0.00  0.00    +0.059 C 
ATOM     11  C   UNL A   1     -27.438   3.091  25.645  0.00  0.00    +0.102 C 
ATOM     12  N   UNL A   1     -28.075   2.089  25.003  0.00  0.00    -0.212 NA
ATOM     13  C   UNL A   1     -27.543   0.849  25.079  0.00  0.00    +0.234 C 
ATOM     14  C   UNL A   1     -26.354   0.576  25.777  0.00  0.00    +0.244 C 
ATOM     15  F   UNL A   1     -25.860  -0.681  25.795  0.00  0.00    -0.227 F 
BRANCH  10  16
ATOM     16  C   UNL A   1     -25.642   4.093  27.123  0.00  0.00    +0.263 C 
ATOM     17  N   UNL A   1     -25.614   5.252  26.449  0.00  0.00    -0.200 NA
ATOM     18  C   UNL A   1     -25.026   6.479  26.963  0.00  0.00    +0.139 C 
ATOM     19  O   UNL A   1     -25.143   3.966  28.243  0.00  0.00    -0.269 OA
ENDBRANCH  10  16
BRANCH  13  20
ATOM     20  O   UNL A   1     -28.193  -0.208  24.477  0.00  0.00    -0.459 OA
BRANCH  20  21
ATOM     21  C   UNL A   1     -29.460   0.005  23.866  0.00  0.00    +0.242 C 
BRANCH  21  22
ATOM     22  C   UNL A   1     -30.065  -1.377  23.573  0.00  0.00    +0.229 C 
ATOM     23  O   UNL A   1     -30.729  -1.878  24.721  0.00  0.00    -0.216 OA
ENDBRANCH  21  22
ENDBRANCH  20  21
ENDBRANCH  13  20
ENDBRANCH   7   9
BRANCH   1  26
ATOM     24  C   UNL A   1     -28.082   0.728  28.694  0.00  0.00    +0.266 C 
ATOM     25  O   UNL A   1     -29.098   0.143  28.972  0.00  0.00    -0.271 OA
ATOM     26  N   UNL A   1     -26.894  -0.008  28.533  0.00  0.00    -0.177 NA
BRANCH  24  27
ATOM     27  C   UNL A   1     -28.086   2.162  28.575  0.00  0.00    +0.181 C 
BRANCH  27  31
ATOM     28  O   UNL A   1     -30.776   4.283  27.829  0.00  0.00    -0.275 OA
ATOM     29  C   UNL A   1     -31.067   2.150  27.092  0.00  0.00    +0.095 C 
ATOM     30  C   UNL A   1     -29.511   2.731  30.521  0.00  0.00    +0.115 C 
ATOM     31  N   UNL A   1     -29.397   2.748  28.996  0.00  0.00    -0.270 N 
ATOM     32  C   UNL A   1     -30.387   3.147  28.004  0.00  0.00    +0.227 C 
ENDBRANCH  27  31
ENDBRANCH  24  27
ENDBRANCH   1  26
BRANCH   2  33
ATOM     33  C   UNL A   1     -24.855  -1.012  30.143  0.00  0.00    +0.080 C 
BRANCH  33  34
ATOM     34  C   UNL A   1     -24.973  -2.505  29.788  0.00  0.00    -0.015 C 
ATOM     35  C   UNL A   1     -23.906  -3.173  29.146  0.00  0.00    -0.004 C 
ATOM     36  C   UNL A   1     -23.989  -4.549  28.853  0.00  0.00    -0.000 C 
ATOM     37  C   UNL A   1     -25.137  -5.280  29.205  0.00  0.00    -0.000 C 
ATOM     38  C   UNL A   1     -26.232  -4.611  29.784  0.00  0.00    -0.000 C 
ATOM     39  C   UNL A   1     -26.155  -3.232  30.065  0.00  0.00    -0.004 C 
ENDBRANCH  33  34
BRANCH  33  40
ATOM     40  C   UNL A   1     -25.387  -0.679  31.571  0.00  0.00    +0.082 C 
ATOM     41  C   UNL A   1     -25.189   0.773  32.028  0.00  0.00    +0.020 C 
ATOM     42  C   UNL A   1     -25.336   0.684  33.544  0.00  0.00    +0.020 C 
ATOM     43  C   UNL A   1     -24.829  -0.715  33.905  0.00  0.00    +0.089 C 
ATOM     44  N   UNL A   1     -24.758  -1.481  32.646  0.00  0.00    -0.219 NA
ENDBRANCH  33  40
ENDBRANCH   2  33
TORSDOF 11
