MODEL 1947
MODEL 1
REMARK VINA RESULT:    -5.223      0.000      0.000
REMARK INTER + INTRA:          -5.223
REMARK INTER:                  -5.223
REMARK INTRA:                   0.000
REMARK UNBOUND:                 0.000
REMARK  Name = No_1947-gen_results/8p0m/2024-11-27-11-27-31/
REMARK  0 active torsions:
REMARK  status: ('A' for Active; 'I' for Inactive)
REMARK                            x       y       z     vdW  Elec       q    Type
REMARK                         _______ _______ _______ _____ _____    ______ ____
ROOT
ATOM      1  C   UNL A   1     -23.091   2.391  25.949  0.00  0.00    +0.000 A 
ATOM      2  C   UNL A   1     -24.039   1.934  25.894  0.00  0.00    +0.000 A 
ATOM      3  C   UNL A   1     -22.183   1.870  27.041  0.00  0.00    +0.000 A 
ATOM      4  C   UNL A   1     -22.583   0.748  27.797  0.00  0.00    +0.000 A 
ATOM      5  C   UNL A   1     -24.678   0.755  26.520  0.00  0.00    +0.000 A 
ATOM      6  C   UNL A   1     -23.869   0.245  27.526  0.00  0.00    +0.000 A 
ATOM      7  C   UNL A   1     -21.778   0.227  28.848  0.00  0.00    +0.000 A 
ATOM      8  C   UNL A   1     -21.971  -0.698  29.425  0.00  0.00    +0.000 A 
ATOM      9  C   UNL A   1     -23.296  -1.374  29.203  0.00  0.00    +0.000 A 
ATOM     10  C   UNL A   1     -24.216  -0.876  28.339  0.00  0.00    +0.000 A 
ENDROOT
TORSDOF 0
ENDMDL
ENDMDL
