REMARK  Name = outputs/IAG933/test6/raw/output_1948_IAG933_linker_design_.xyz
REMARK  13 active torsions:
REMARK  status: ('A' for Active; 'I' for Inactive)
REMARK    1  A    between atoms: C_1  and  C_2
REMARK    2  A    between atoms: C_1  and  C_8
REMARK    3  A    between atoms: C_1  and  N_34
REMARK    4  A    between atoms: C_13  and  C_38
REMARK    5  A    between atoms: C_14  and  C_15
REMARK    6  A    between atoms: C_21  and  O_22
REMARK    7  A    between atoms: O_22  and  C_23
REMARK    8  A    between atoms: C_23  and  C_24
REMARK    9  A    between atoms: C_29  and  O_31
REMARK   10  A    between atoms: O_31  and  C_36
REMARK   11  A    between atoms: C_32  and  C_38
REMARK   12  A    between atoms: C_33  and  C_36
REMARK   13  A    between atoms: C_33  and  C_38
REMARK                            x       y       z     vdW  Elec       q    Type
REMARK                         _______ _______ _______ _____ _____    ______ ____
ROOT
ATOM      1  C   UNL A   1     -24.770   1.259  27.351  0.00  0.00    +0.132 C 
ENDROOT
BRANCH   1   2
ATOM      2  C   UNL A   1     -25.688   1.614  26.461  0.00  0.00    +0.012 C 
ATOM      3  C   UNL A   1     -26.250   2.920  26.395  0.00  0.00    +0.053 C 
ATOM      4  C   UNL A   1     -27.438   3.091  25.645  0.00  0.00    +0.159 C 
ATOM      5  N   UNL A   1     -28.075   2.089  25.003  0.00  0.00    -0.234 NA
ATOM      6  C   UNL A   1     -27.543   0.849  25.079  0.00  0.00    +0.234 C 
ATOM      7  C   UNL A   1     -26.354   0.576  25.777  0.00  0.00    +0.255 C 
ATOM      8  F   UNL A   1     -25.860  -0.681  25.795  0.00  0.00    -0.223 F 
BRANCH   3   9
ATOM      9  C   UNL A   1     -25.642   4.093  27.123  0.00  0.00    +0.262 C 
ATOM     10  N   UNL A   1     -25.614   5.252  26.449  0.00  0.00    -0.200 NA
ATOM     11  C   UNL A   1     -25.026   6.479  26.963  0.00  0.00    +0.139 C 
ATOM     12  O   UNL A   1     -25.143   3.966  28.243  0.00  0.00    -0.269 OA
ENDBRANCH   3   9
BRANCH   6  13
ATOM     13  O   UNL A   1     -28.193  -0.208  24.477  0.00  0.00    -0.459 OA
BRANCH  13  14
ATOM     14  C   UNL A   1     -29.460   0.005  23.866  0.00  0.00    +0.242 C 
BRANCH  14  15
ATOM     15  C   UNL A   1     -30.065  -1.377  23.573  0.00  0.00    +0.229 C 
ATOM     16  O   UNL A   1     -30.729  -1.878  24.721  0.00  0.00    -0.216 OA
ENDBRANCH  14  15
ENDBRANCH  13  14
ENDBRANCH   6  13
ENDBRANCH   1   2
BRANCH   1  18
ATOM     17  O   UNL A   1     -26.654  -0.638  28.203  0.00  0.00    -0.273 OA
ATOM     18  C   UNL A   1     -25.507   0.215  28.297  0.00  0.00    +0.250 C 
ATOM     19  N   UNL A   1     -25.137  -0.149  29.103  0.00  0.00    -0.201 NA
BRANCH  19  20
ATOM     20  C   UNL A   1     -24.855  -1.012  30.143  0.00  0.00    +0.133 C 
BRANCH  20  21
ATOM     21  C   UNL A   1     -24.973  -2.505  29.788  0.00  0.00    -0.001 C 
ATOM     22  C   UNL A   1     -23.906  -3.173  29.146  0.00  0.00    -0.003 C 
ATOM     23  C   UNL A   1     -23.989  -4.549  28.853  0.00  0.00    -0.000 C 
ATOM     24  C   UNL A   1     -25.137  -5.280  29.205  0.00  0.00    -0.000 C 
ATOM     25  C   UNL A   1     -26.232  -4.611  29.784  0.00  0.00    -0.000 C 
ATOM     26  C   UNL A   1     -26.155  -3.232  30.065  0.00  0.00    -0.003 C 
ENDBRANCH  20  21
BRANCH  20  27
ATOM     27  C   UNL A   1     -25.387  -0.679  31.571  0.00  0.00    +0.097 C 
ATOM     28  C   UNL A   1     -25.189   0.773  32.028  0.00  0.00    +0.021 C 
ATOM     29  C   UNL A   1     -25.336   0.684  33.544  0.00  0.00    +0.020 C 
ATOM     30  C   UNL A   1     -24.829  -0.715  33.905  0.00  0.00    +0.089 C 
ATOM     31  N   UNL A   1     -24.758  -1.481  32.646  0.00  0.00    -0.217 NA
ENDBRANCH  20  27
ENDBRANCH  19  20
ENDBRANCH   1  18
BRANCH   1  33
ATOM     32  O   UNL A   1     -22.440   0.233  29.982  0.00  0.00    -0.232 OA
ATOM     33  C   UNL A   1     -23.317   1.196  27.696  0.00  0.00    +0.088 C 
ATOM     34  C   UNL A   1     -23.102   0.580  28.910  0.00  0.00    +0.129 C 
BRANCH  33  35
ATOM     35  C   UNL A   1     -22.155   1.445  27.027  0.00  0.00    +0.239 C 
ATOM     36  N   UNL A   1     -20.915   1.198  27.596  0.00  0.00    -0.095 NA
BRANCH  35  37
ATOM     37  O   UNL A   1     -21.949   1.845  25.693  0.00  0.00    -0.302 OA
BRANCH  37  38
ATOM     38  C   UNL A   1     -23.112   1.762  24.859  0.00  0.00    +0.342 C 
ATOM     39  F   UNL A   1     -23.567   0.781  24.773  0.00  0.00    -0.198 F 
ENDBRANCH  37  38
ENDBRANCH  35  37
ENDBRANCH  33  35
ENDBRANCH   1  33
TORSDOF 13
