MODEL 1948
MODEL 1
REMARK VINA RESULT:    -6.827      0.000      0.000
REMARK INTER + INTRA:          -7.580
REMARK INTER:                  -7.226
REMARK INTRA:                  -0.354
REMARK UNBOUND:                -0.354
REMARK  Name = No_1948-gen_results/8p0m/2024-11-27-11-27-31/
REMARK  1 active torsions:
REMARK  status: ('A' for Active; 'I' for Inactive)
REMARK    1  A    between atoms: C_7  and  C_8
REMARK                            x       y       z     vdW  Elec       q    Type
REMARK                         _______ _______ _______ _____ _____    ______ ____
ROOT
ATOM      1  C   UNL A   1     -21.981   0.247  28.628  0.00  0.00    +0.030 A 
ATOM      2  C   UNL A   1     -22.593   1.007  27.914  0.00  0.00    +0.140 A 
ATOM      3  F   UNL A   1     -22.091   2.099  27.535  0.00  0.00    -0.204 F 
ATOM      4  C   UNL A   1     -23.862   0.729  27.243  0.00  0.00    +0.030 A 
ATOM      5  C   UNL A   1     -22.708  -0.917  29.151  0.00  0.00    +0.002 A 
ATOM      6  C   UNL A   1     -24.498  -0.450  27.636  0.00  0.00    +0.002 A 
ATOM      7  C   UNL A   1     -23.891  -1.257  28.565  0.00  0.00    +0.000 A 
ENDROOT
BRANCH   7   8
ATOM      8  C   UNL A   1     -24.575  -2.496  28.966  0.00  0.00    +0.000 A 
ATOM      9  C   UNL A   1     -25.641  -2.563  29.463  0.00  0.00    +0.000 A 
ATOM     10  C   UNL A   1     -26.355  -3.746  29.831  0.00  0.00    +0.000 A 
ATOM     11  C   UNL A   1     -25.735  -4.946  29.472  0.00  0.00    +0.000 A 
ATOM     12  C   UNL A   1     -23.948  -3.769  28.598  0.00  0.00    +0.000 A 
ATOM     13  C   UNL A   1     -24.535  -4.917  28.876  0.00  0.00    +0.000 A 
ENDBRANCH   7   8
TORSDOF 1
ENDMDL
ENDMDL
