MODEL 1949
MODEL 1
REMARK VINA RESULT:    -8.058      0.000      0.000
REMARK INTER + INTRA:         -12.634
REMARK INTER:                 -11.355
REMARK INTRA:                  -1.279
REMARK UNBOUND:                -1.279
REMARK  Name = No_1949-gen_results/8p0m/2024-11-27-11-27-31/
REMARK  7 active torsions:
REMARK  status: ('A' for Active; 'I' for Inactive)
REMARK    1  A    between atoms: C_2  and  N_15
REMARK    2  A    between atoms: C_3  and  C_4
REMARK    3  A    between atoms: C_4  and  C_8
REMARK    4  A    between atoms: C_23  and  C_26
REMARK    5  A    between atoms: C_26  and  N_27
REMARK    6  A    between atoms: N_27  and  C_28
REMARK    7  A    between atoms: C_29  and  C_30
REMARK                            x       y       z     vdW  Elec       q    Type
REMARK                         _______ _______ _______ _____ _____    ______ ____
ROOT
ATOM      1  N   UNL A   1     -25.252   1.877  26.915  0.00  0.00    -0.260 N 
ATOM      2  C   UNL A   1     -26.040   1.208  26.036  0.00  0.00    +0.265 C 
ATOM      3  C   UNL A   1     -27.094   1.846  25.490  0.00  0.00    +0.062 A 
ATOM      4  C   UNL A   1     -25.570   3.186  27.108  0.00  0.00    +0.210 C 
ATOM      5  N   UNL A   1     -26.556   3.846  26.612  0.00  0.00    -0.198 NA
ATOM      6  C   UNL A   1     -27.353   3.165  25.753  0.00  0.00    +0.149 A 
ATOM      7  N   UNL A   1     -28.393   3.851  25.190  0.00  0.00    -0.228 NA
ATOM      8  C   UNL A   1     -29.301   3.270  24.453  0.00  0.00    +0.098 A 
ATOM      9  C   UNL A   1     -29.087   1.902  24.129  0.00  0.00    +0.019 A 
ATOM     10  C   UNL A   1     -28.019   1.138  24.595  0.00  0.00    +0.002 A 
ATOM     11  F   UNL A   1     -25.714  -0.042  25.844  0.00  0.00    -0.210 F 
ENDROOT
BRANCH   1  13
ATOM     12  C   UNL A   1     -24.436   0.553  28.442  0.00  0.00    +0.018 A 
ATOM     13  C   UNL A   1     -24.150   1.192  27.654  0.00  0.00    +0.051 A 
ATOM     14  C   UNL A   1     -23.307  -0.200  29.110  0.00  0.00    +0.040 A 
ATOM     15  C   UNL A   1     -22.835   1.671  27.209  0.00  0.00    +0.015 A 
ATOM     16  C   UNL A   1     -21.752   1.049  27.794  0.00  0.00    +0.001 A 
ATOM     17  C   UNL A   1     -21.940   0.118  28.783  0.00  0.00    +0.003 A 
BRANCH  14  18
ATOM     18  C   UNL A   1     -23.443  -1.236  30.103  0.00  0.00    +0.196 C 
ATOM     19  O   UNL A   1     -22.832  -1.063  31.219  0.00  0.00    -0.287 OA
BRANCH  18  20
ATOM     20  C   UNL A   1     -24.165  -2.382  29.826  0.00  0.00    +0.039 A 
ATOM     21  C   UNL A   1     -23.780  -3.289  29.089  0.00  0.00    +0.003 A 
ATOM     22  C   UNL A   1     -24.598  -4.466  28.862  0.00  0.00    +0.000 A 
ATOM     23  C   UNL A   1     -25.883  -4.432  29.332  0.00  0.00    +0.000 A 
ATOM     24  C   UNL A   1     -25.549  -2.525  30.226  0.00  0.00    +0.003 A 
ATOM     25  C   UNL A   1     -26.316  -3.489  30.018  0.00  0.00    +0.000 A 
ENDBRANCH  18  20
ENDBRANCH  14  18
ENDBRANCH   1  13
BRANCH   9  26
ATOM     26  C   UNL A   1     -30.028   1.192  23.185  0.00  0.00    +0.150 C 
BRANCH  26  27
ATOM     27  N   UNL A   1     -31.120   1.601  22.957  0.00  0.00    -0.184 NA
BRANCH  27  28
ATOM     28  C   UNL A   1     -31.912   1.397  22.132  0.00  0.00    +0.023 C 
ATOM     29  C   UNL A   1     -32.491   1.424  21.285  0.00  0.00    -0.043 C 
BRANCH  29  30
ATOM     30  C   UNL A   1     -32.610   2.523  20.304  0.00  0.00    +0.046 C 
ATOM     31  C   UNL A   1     -33.617   2.616  19.356  0.00  0.00    -0.017 C 
ATOM     32  C   UNL A   1     -33.702   3.665  18.427  0.00  0.00    +0.031 C 
ENDBRANCH  29  30
ENDBRANCH  27  28
ENDBRANCH  26  27
ENDBRANCH   9  26
TORSDOF 7
ENDMDL
ENDMDL
