MODEL 194
MODEL 1
REMARK VINA RESULT:    -5.576      0.000      0.000
REMARK INTER + INTRA:          -7.112
REMARK INTER:                  -6.880
REMARK INTRA:                  -0.232
REMARK UNBOUND:                -0.232
REMARK  Name = No_194-gen_results/8p0m/2024-11-27-11-27-31/
REMARK  4 active torsions:
REMARK  status: ('A' for Active; 'I' for Inactive)
REMARK    1  A    between atoms: C_2  and  C_7
REMARK    2  A    between atoms: N_9  and  C_11
REMARK    3  A    between atoms: C_12  and  C_13
REMARK    4  A    between atoms: C_14  and  C_15
REMARK                            x       y       z     vdW  Elec       q    Type
REMARK                         _______ _______ _______ _____ _____    ______ ____
ROOT
ATOM      1  C   UNL A   1     -23.246   1.264  26.778  0.00  0.00    +0.253 C 
ATOM      2  O   UNL A   1     -22.406   1.932  26.474  0.00  0.00    -0.270 OA
ATOM      3  N   UNL A   1     -23.267   0.604  28.010  0.00  0.00    -0.252 N 
ATOM      4  C   UNL A   1     -22.045   0.509  28.730  0.00  0.00    +0.120 C 
ENDROOT
BRANCH   1   6
ATOM      5  C   UNL A   1     -24.836   0.355  25.406  0.00  0.00    +0.004 A 
ATOM      6  C   UNL A   1     -24.667   1.162  26.062  0.00  0.00    +0.054 A 
ATOM      7  C   UNL A   1     -26.152   0.303  24.750  0.00  0.00    +0.000 A 
ATOM      8  C   UNL A   1     -27.079   1.376  24.899  0.00  0.00    +0.000 A 
ATOM      9  C   UNL A   1     -25.424   2.413  26.344  0.00  0.00    +0.004 A 
ATOM     10  C   UNL A   1     -26.655   2.397  25.761  0.00  0.00    +0.000 A 
ENDBRANCH   1   6
BRANCH   3  11
ATOM     11  C   UNL A   1     -24.383  -0.174  28.508  0.00  0.00    +0.068 C 
ATOM     12  C   UNL A   1     -24.402  -1.307  28.885  0.00  0.00    +0.016 C 
BRANCH  12  13
ATOM     13  C   UNL A   1     -25.599  -2.013  29.262  0.00  0.00    +0.001 C 
ATOM     14  C   UNL A   1     -25.736  -3.395  29.320  0.00  0.00    +0.000 C 
BRANCH  14  15
ATOM     15  C   UNL A   1     -24.539  -4.188  29.055  0.00  0.00    +0.000 C 
ATOM     16  C   UNL A   1     -24.662  -5.539  28.949  0.00  0.00    +0.000 C 
ENDBRANCH  14  15
ENDBRANCH  12  13
ENDBRANCH   3  11
TORSDOF 4
ENDMDL
ENDMDL
