REMARK  Name = No_1950-gen_results/8p0m/2024-11-27-11-27-31/
REMARK  1 active torsions:
REMARK  status: ('A' for Active; 'I' for Inactive)
REMARK    1  A    between atoms: C_5  and  C_11
REMARK                            x       y       z     vdW  Elec       q    Type
REMARK                         _______ _______ _______ _____ _____    ______ ____
ROOT
ATOM      1  C   UNL A   1     -28.016  -0.814  28.878  0.00  0.00    +0.003 A 
ATOM      2  C   UNL A   1     -27.064  -0.119  28.608  0.00  0.00    +0.031 A 
ATOM      3  C   UNL A   1     -26.972   0.714  27.506  0.00  0.00    +0.173 C 
ATOM      4  C   UNL A   1     -25.820   1.491  27.116  0.00  0.00    +0.081 C 
ATOM      5  C   UNL A   1     -24.656   1.424  27.918  0.00  0.00    +0.115 C 
ATOM      6  C   UNL A   1     -24.685   0.590  29.066  0.00  0.00    +0.038 C 
ATOM      7  C   UNL A   1     -25.810  -0.127  29.334  0.00  0.00    -0.019 A 
ATOM      8  C   UNL A   1     -28.044  -1.573  30.169  0.00  0.00    +0.000 A 
ATOM      9  C   UNL A   1     -26.817  -1.760  30.870  0.00  0.00    -0.000 A 
ATOM     10  C   UNL A   1     -25.748  -0.992  30.538  0.00  0.00    -0.004 A 
ATOM     11  O   UNL A   1     -27.988   0.783  26.659  0.00  0.00    -0.291 OA
ENDROOT
BRANCH   5  12
ATOM     12  C   UNL A   1     -23.459   2.228  27.584  0.00  0.00    +0.365 C 
ATOM     13  O   UNL A   1     -22.340   1.985  28.143  0.00  0.00    -0.246 OA
ATOM     14  O   UNL A   1     -23.540   3.100  26.657  0.00  0.00    -0.246 OA
ENDBRANCH   5  12
TORSDOF 1
