MODEL 1951
MODEL 1
REMARK VINA RESULT:    -7.297      0.000      0.000
REMARK INTER + INTRA:         -10.661
REMARK INTER:                  -9.430
REMARK INTRA:                  -1.231
REMARK UNBOUND:                -1.231
REMARK  Name = No_1951-gen_results/8p0m/2024-11-27-11-27-31/
REMARK  5 active torsions:
REMARK  status: ('A' for Active; 'I' for Inactive)
REMARK    1  A    between atoms: C_4  and  C_9
REMARK    2  A    between atoms: N_10  and  C_11
REMARK    3  A    between atoms: N_10  and  C_21
REMARK    4  A    between atoms: C_11  and  C_13
REMARK    5  A    between atoms: C_25  and  C_26
REMARK                            x       y       z     vdW  Elec       q    Type
REMARK                         _______ _______ _______ _____ _____    ______ ____
ROOT
ATOM      1  C   UNL A   1     -25.685  -0.092  29.623  0.00  0.00    +0.257 C 
ATOM      2  N   UNL A   1     -24.933   0.693  30.272  0.00  0.00    -0.234 N 
ATOM      3  O   UNL A   1     -26.861   0.386  29.073  0.00  0.00    -0.269 OA
ENDROOT
BRANCH   1   7
ATOM      4  C   UNL A   1     -25.971  -3.890  29.895  0.00  0.00    +0.041 A 
ATOM      5  C   UNL A   1     -25.283  -4.164  29.146  0.00  0.00    +0.141 A 
ATOM      6  C   UNL A   1     -26.181  -2.512  30.124  0.00  0.00    +0.064 A 
ATOM      7  C   UNL A   1     -25.507  -1.542  29.409  0.00  0.00    +0.065 A 
ATOM      8  C   UNL A   1     -24.447  -3.342  28.249  0.00  0.00    +0.030 A 
ATOM      9  C   UNL A   1     -24.616  -2.015  28.436  0.00  0.00    +0.008 A 
ATOM     10 CL   UNL A   1     -27.316  -1.934  31.291  0.00  0.00    -0.082 Cl
ATOM     11  F   UNL A   1     -25.086  -5.562  28.856  0.00  0.00    -0.204 F 
ENDBRANCH   1   7
BRANCH   2  12
ATOM     12  C   UNL A   1     -23.468   0.480  29.580  0.00  0.00    +0.065 A 
ATOM     13  C   UNL A   1     -22.581  -0.277  30.117  0.00  0.00    +0.015 A 
ATOM     14  C   UNL A   1     -21.392  -0.486  29.470  0.00  0.00    +0.001 A 
ATOM     15  C   UNL A   1     -21.116   0.222  28.287  0.00  0.00    +0.000 A 
ATOM     16  C   UNL A   1     -23.215   1.209  28.340  0.00  0.00    +0.094 A 
ATOM     17  C   UNL A   1     -22.050   1.114  27.697  0.00  0.00    +0.008 A 
BRANCH  16  18
ATOM     18  C   UNL A   1     -24.298   2.179  27.762  0.00  0.00    +0.389 C 
ATOM     19  O   UNL A   1     -24.419   3.275  28.214  0.00  0.00    -0.240 OA
ATOM     20  O   UNL A   1     -25.006   1.625  26.779  0.00  0.00    -0.240 OA
ENDBRANCH  16  18
ENDBRANCH   2  12
BRANCH   2  21
ATOM     21  C   UNL A   1     -24.932   1.245  31.183  0.00  0.00    +0.058 C 
ATOM     22  C   UNL A   1     -25.025   2.725  31.387  0.00  0.00    +0.017 C 
BRANCH  21  23
ATOM     23  C   UNL A   1     -25.061   0.553  32.548  0.00  0.00    +0.015 A 
ATOM     24  C   UNL A   1     -24.195  -0.526  33.005  0.00  0.00    +0.001 A 
ATOM     25  C   UNL A   1     -24.592  -1.054  34.202  0.00  0.00    +0.001 A 
ATOM     26  C   UNL A   1     -25.644  -0.447  34.949  0.00  0.00    +0.011 A 
ATOM     27  C   UNL A   1     -26.318   0.700  34.562  0.00  0.00    +0.058 A 
ATOM     28  C   UNL A   1     -25.986   1.159  33.367  0.00  0.00    +0.013 A 
ATOM     29 CL   UNL A   1     -27.548   1.293  35.551  0.00  0.00    -0.082 Cl
ENDBRANCH  21  23
ENDBRANCH   2  21
TORSDOF 5
ENDMDL
ENDMDL
