MODEL 1952
MODEL 1
REMARK VINA RESULT:    -8.413      0.000      0.000
REMARK INTER + INTRA:         -13.077
REMARK INTER:                 -11.364
REMARK INTRA:                  -1.712
REMARK UNBOUND:                -1.712
REMARK  Name = No_1952-gen_results/8p0m/2024-11-27-11-27-31/
REMARK  6 active torsions:
REMARK  status: ('A' for Active; 'I' for Inactive)
REMARK    1  A    between atoms: C_2  and  C_14
REMARK    2  A    between atoms: C_9  and  C_11
REMARK    3  A    between atoms: N_12  and  C_18
REMARK    4  A    between atoms: C_18  and  C_19
REMARK    5  A    between atoms: C_19  and  C_20
REMARK    6  A    between atoms: C_20  and  C_21
REMARK                            x       y       z     vdW  Elec       q    Type
REMARK                         _______ _______ _______ _____ _____    ______ ____
ROOT
ATOM      1  C   UNL A   1     -28.347   0.869  24.066  0.00  0.00    +0.004 A 
ATOM      2  C   UNL A   1     -28.923   1.749  24.005  0.00  0.00    +0.071 A 
ATOM      3  C   UNL A   1     -27.043   0.997  24.821  0.00  0.00    -0.000 A 
ATOM      4  C   UNL A   1     -26.014  -0.008  24.924  0.00  0.00    +0.000 A 
ATOM      5  C   UNL A   1     -28.818   3.039  24.699  0.00  0.00    +0.004 A 
ATOM      6  C   UNL A   1     -27.665   3.222  25.432  0.00  0.00    -0.000 A 
ATOM      7  C   UNL A   1     -26.752   2.206  25.550  0.00  0.00    +0.000 A 
ATOM      8  C   UNL A   1     -24.727   0.329  25.352  0.00  0.00    +0.005 A 
ATOM      9  C   UNL A   1     -24.524   1.523  26.078  0.00  0.00    +0.055 A 
ATOM     10  C   UNL A   1     -25.457   2.462  26.111  0.00  0.00    +0.005 A 
ENDROOT
BRANCH   2  11
ATOM     11  C   UNL A   1     -30.340   1.640  23.267  0.00  0.00    +0.419 C 
ATOM     12  F   UNL A   1     -31.347   1.898  24.097  0.00  0.00    -0.166 F 
ATOM     13  F   UNL A   1     -30.519   0.445  22.703  0.00  0.00    -0.166 F 
ATOM     14  F   UNL A   1     -30.352   2.530  22.315  0.00  0.00    -0.166 F 
ENDBRANCH   2  11
BRANCH   9  15
ATOM     15  C   UNL A   1     -23.168   1.735  26.657  0.00  0.00    +0.265 C 
ATOM     16  N   UNL A   1     -22.412   1.406  27.609  0.00  0.00    -0.202 NA
ATOM     17  O   UNL A   1     -22.391   2.295  25.709  0.00  0.00    -0.268 OA
BRANCH  16  18
ATOM     18  C   UNL A   1     -23.026   0.767  28.789  0.00  0.00    +0.116 C 
BRANCH  18  19
ATOM     19  C   UNL A   1     -23.180  -0.684  28.666  0.00  0.00    +0.028 C 
BRANCH  19  20
ATOM     20  C   UNL A   1     -24.474  -1.213  28.988  0.00  0.00    +0.024 C 
ATOM     21  C   UNL A   1     -25.622  -0.367  29.082  0.00  0.00    +0.005 C 
BRANCH  20  22
ATOM     22  C   UNL A   1     -24.670  -2.625  29.067  0.00  0.00    -0.022 A 
ATOM     23  C   UNL A   1     -23.948  -3.318  28.626  0.00  0.00    -0.004 A 
ATOM     24  C   UNL A   1     -24.152  -4.834  28.704  0.00  0.00    -0.000 A 
ATOM     25  C   UNL A   1     -25.304  -5.242  29.232  0.00  0.00    -0.000 A 
ATOM     26  C   UNL A   1     -26.256  -4.374  29.731  0.00  0.00    -0.000 A 
ATOM     27  C   UNL A   1     -25.997  -3.025  29.680  0.00  0.00    -0.004 A 
ENDBRANCH  20  22
ENDBRANCH  19  20
ENDBRANCH  18  19
ENDBRANCH  16  18
ENDBRANCH   9  15
TORSDOF 6
ENDMDL
ENDMDL
