MODEL 1953
MODEL 1
REMARK VINA RESULT:    -6.095      0.000      0.000
REMARK INTER + INTRA:          -8.523
REMARK INTER:                  -7.876
REMARK INTRA:                  -0.647
REMARK UNBOUND:                -0.647
REMARK  Name = No_1953-gen_results/8p0m/2024-11-27-11-27-31/
REMARK  5 active torsions:
REMARK  status: ('A' for Active; 'I' for Inactive)
REMARK    1  A    between atoms: C_2  and  O_7
REMARK    2  A    between atoms: C_4  and  C_14
REMARK    3  A    between atoms: O_7  and  C_8
REMARK    4  A    between atoms: C_11  and  O_18
REMARK    5  A    between atoms: O_18  and  C_19
REMARK                            x       y       z     vdW  Elec       q    Type
REMARK                         _______ _______ _______ _____ _____    ______ ____
ROOT
ATOM      1  O   UNL A   1     -23.579  -1.737  30.116  0.00  0.00    -0.454 OA
ENDROOT
BRANCH   1   3
ATOM      2  C   UNL A   1     -24.373  -0.891  28.297  0.00  0.00    +0.037 A 
ATOM      3  C   UNL A   1     -23.617  -0.772  29.021  0.00  0.00    +0.145 A 
ATOM      4  C   UNL A   1     -24.394   0.089  27.199  0.00  0.00    +0.005 A 
ATOM      5  C   UNL A   1     -23.351   1.052  27.067  0.00  0.00    +0.053 A 
ATOM      6  C   UNL A   1     -22.405   0.088  29.087  0.00  0.00    +0.037 A 
ATOM      7  C   UNL A   1     -22.394   1.018  28.090  0.00  0.00    +0.005 A 
BRANCH   5   8
ATOM      8  C   UNL A   1     -23.299   1.966  25.973  0.00  0.00    +0.350 C 
ATOM      9  F   UNL A   1     -22.101   2.231  25.656  0.00  0.00    -0.182 F 
ATOM     10  F   UNL A   1     -23.943   1.493  24.879  0.00  0.00    -0.182 F 
ATOM     11 CL   UNL A   1     -24.067   3.506  26.357  0.00  0.00    -0.042 Cl
ENDBRANCH   5   8
ENDBRANCH   1   3
BRANCH   1  12
ATOM     12  C   UNL A   1     -23.990  -1.358  31.340  0.00  0.00    +0.145 A 
ATOM     13  C   UNL A   1     -23.282  -1.515  32.193  0.00  0.00    +0.041 A 
ATOM     14  C   UNL A   1     -23.704  -1.181  33.597  0.00  0.00    +0.041 A 
ATOM     15  C   UNL A   1     -24.995  -0.659  33.765  0.00  0.00    +0.146 A 
ATOM     16  C   UNL A   1     -25.788  -0.513  32.643  0.00  0.00    +0.041 A 
ATOM     17  C   UNL A   1     -25.370  -0.847  31.412  0.00  0.00    +0.041 A 
BRANCH  15  18
ATOM     18  O   UNL A   1     -25.380  -0.290  35.012  0.00  0.00    -0.451 OA
BRANCH  18  19
ATOM     19  C   UNL A   1     -25.102  -1.088  35.999  0.00  0.00    +0.175 C 
ATOM     20  C   UNL A   1     -25.269  -0.613  37.257  0.00  0.00    +0.015 C 
ATOM     21  C   UNL A   1     -25.014  -1.445  38.429  0.00  0.00    +0.034 C 
ENDBRANCH  18  19
ENDBRANCH  15  18
ENDBRANCH   1  12
TORSDOF 5
ENDMDL
ENDMDL
