MODEL 1954
MODEL 1
REMARK VINA RESULT:    -5.879      0.000      0.000
REMARK INTER + INTRA:          -6.841
REMARK INTER:                  -6.567
REMARK INTRA:                  -0.274
REMARK UNBOUND:                -0.274
REMARK  Name = No_1954-gen_results/8p0m/2024-11-27-11-27-31/
REMARK  2 active torsions:
REMARK  status: ('A' for Active; 'I' for Inactive)
REMARK    1  A    between atoms: C_2  and  C_11
REMARK    2  A    between atoms: C_3  and  C_7
REMARK                            x       y       z     vdW  Elec       q    Type
REMARK                         _______ _______ _______ _____ _____    ______ ____
ROOT
ATOM      1  C   UNL A   1     -28.366 -11.899  31.029  0.00  0.00    +0.010 A 
ATOM      2  C   UNL A   1     -28.255 -11.583  32.028  0.00  0.00    +0.080 A 
ATOM      3  C   UNL A   1     -29.271 -11.189  30.210  0.00  0.00    +0.072 A 
ATOM      4  C   UNL A   1     -30.004 -10.121  30.687  0.00  0.00    +0.004 A 
ATOM      5  C   UNL A   1     -28.904 -10.488  32.776  0.00  0.00    +0.007 A 
ATOM      6  C   UNL A   1     -29.780  -9.782  32.027  0.00  0.00    +0.000 A 
ENDROOT
BRANCH   3   7
ATOM      7  C   UNL A   1     -29.495 -11.515  28.761  0.00  0.00    +0.419 C 
ATOM      8  F   UNL A   1     -28.533 -11.851  28.259  0.00  0.00    -0.166 F 
ATOM      9  F   UNL A   1     -30.014 -10.445  28.041  0.00  0.00    -0.166 F 
ATOM     10  F   UNL A   1     -30.535 -12.448  28.644  0.00  0.00    -0.166 F 
ENDBRANCH   3   7
BRANCH   2  11
ATOM     11  C   UNL A   1     -27.163 -12.276  32.988  0.00  0.00    +0.388 C 
ATOM     12  O   UNL A   1     -26.335 -13.041  32.563  0.00  0.00    -0.241 OA
ATOM     13  O   UNL A   1     -27.326 -12.305  34.284  0.00  0.00    -0.241 OA
ENDBRANCH   2  11
TORSDOF 2
ENDMDL
ENDMDL
