MODEL 1956
MODEL 1
REMARK VINA RESULT:    -5.135      0.000      0.000
REMARK INTER + INTRA:          -5.472
REMARK INTER:                  -5.436
REMARK INTRA:                  -0.037
REMARK UNBOUND:                -0.037
REMARK  Name = No_1956-gen_results/8p0m/2024-11-27-11-27-31/
REMARK  1 active torsions:
REMARK  status: ('A' for Active; 'I' for Inactive)
REMARK    1  A    between atoms: C_2  and  C_7
REMARK                            x       y       z     vdW  Elec       q    Type
REMARK                         _______ _______ _______ _____ _____    ______ ____
ROOT
ATOM      1  C   UNL A   1     -27.875 -12.094  31.515  0.00  0.00    +0.007 A 
ATOM      2  C   UNL A   1     -28.087 -11.528  32.379  0.00  0.00    +0.080 A 
ATOM      3  C   UNL A   1     -28.628 -11.747  30.299  0.00  0.00    +0.000 A 
ATOM      4  C   UNL A   1     -29.500 -10.886  30.327  0.00  0.00    +0.000 A 
ATOM      5  C   UNL A   1     -28.988 -10.386  32.619  0.00  0.00    +0.007 A 
ATOM      6  C   UNL A   1     -29.734 -10.100  31.517  0.00  0.00    +0.000 A 
ENDROOT
BRANCH   2   7
ATOM      7  C   UNL A   1     -27.252 -11.795  33.719  0.00  0.00    +0.388 C 
ATOM      8  O   UNL A   1     -26.776 -12.785  33.786  0.00  0.00    -0.241 OA
ATOM      9  O   UNL A   1     -27.126 -10.844  34.655  0.00  0.00    -0.241 OA
ENDBRANCH   2   7
TORSDOF 1
ENDMDL
ENDMDL
