REMARK  Name = outputs/IAG933/test6/raw/output_1957_IAG933_linker_design_.xyz
REMARK  11 active torsions:
REMARK  status: ('A' for Active; 'I' for Inactive)
REMARK    1  A    between atoms: C_1  and  C_2
REMARK    2  A    between atoms: C_1  and  C_8
REMARK    3  A    between atoms: C_1  and  N_31
REMARK    4  A    between atoms: C_13  and  C_37
REMARK    5  A    between atoms: C_14  and  C_15
REMARK    6  A    between atoms: C_21  and  O_22
REMARK    7  A    between atoms: O_22  and  C_23
REMARK    8  A    between atoms: C_23  and  C_24
REMARK    9  A    between atoms: O_29  and  C_38
REMARK   10  A    between atoms: C_33  and  O_35
REMARK   11  A    between atoms: C_36  and  C_42
REMARK                            x       y       z     vdW  Elec       q    Type
REMARK                         _______ _______ _______ _____ _____    ______ ____
ROOT
ATOM      1  N   UNL A   1     -24.174  -0.128  29.215  0.00  0.00    -0.266 NA
ATOM      2  C   UNL A   1     -25.078   0.789  28.618  0.00  0.00    +0.090 C 
ATOM      3  C   UNL A   1     -24.692   1.086  27.344  0.00  0.00    +0.071 C 
ATOM      4  C   UNL A   1     -23.292   1.087  27.109  0.00  0.00    +0.122 C 
ATOM      5  C   UNL A   1     -22.842   0.500  29.238  0.00  0.00    +0.075 C 
ATOM      6  C   UNL A   1     -22.383   1.303  28.099  0.00  0.00    +0.047 C 
ENDROOT
BRANCH   2  12
ATOM      7  C   UNL A   1     -27.977  -1.034  29.206  0.00  0.00    +0.052 C 
ATOM      8  C   UNL A   1     -27.000  -0.194  29.231  0.00  0.00    -0.110 C 
ATOM      9  C   UNL A   1     -29.426   0.817  28.665  0.00  0.00    +0.193 C 
ATOM     10  F   UNL A   1     -30.429  -1.214  29.274  0.00  0.00    -0.229 F 
ATOM     11  C   UNL A   1     -27.243   1.968  29.258  0.00  0.00    +0.034 C 
ATOM     12  C   UNL A   1     -26.403   0.856  29.136  0.00  0.00    +0.005 C 
ATOM     13  C   UNL A   1     -28.611   1.919  28.895  0.00  0.00    +0.041 C 
ATOM     14  C   UNL A   1     -29.208  -0.511  29.081  0.00  0.00    +0.221 C 
BRANCH   9  16
ATOM     15  O   UNL A   1     -30.902  -0.034  27.105  0.00  0.00    -0.035 OA
ATOM     16  O   UNL A   1     -30.606   0.951  27.996  0.00  0.00    -0.189 OA
ENDBRANCH   9  16
ENDBRANCH   2  12
BRANCH   3  17
ATOM     17  C   UNL A   1     -25.688   1.614  26.461  0.00  0.00    +0.020 C 
ATOM     18  C   UNL A   1     -26.250   2.920  26.395  0.00  0.00    +0.073 C 
ATOM     19  C   UNL A   1     -27.438   3.091  25.645  0.00  0.00    +0.106 C 
ATOM     20  N   UNL A   1     -28.075   2.089  25.003  0.00  0.00    -0.208 NA
ATOM     21  C   UNL A   1     -27.543   0.849  25.079  0.00  0.00    +0.253 C 
ATOM     22  C   UNL A   1     -26.354   0.576  25.777  0.00  0.00    +0.189 C 
ATOM     23  F   UNL A   1     -25.860  -0.681  25.795  0.00  0.00    -0.200 F 
BRANCH  18  24
ATOM     24  C   UNL A   1     -25.642   4.093  27.123  0.00  0.00    +0.266 C 
ATOM     25  N   UNL A   1     -25.614   5.252  26.449  0.00  0.00    -0.200 NA
ATOM     26  C   UNL A   1     -25.026   6.479  26.963  0.00  0.00    +0.139 C 
ATOM     27  O   UNL A   1     -25.143   3.966  28.243  0.00  0.00    -0.268 OA
ENDBRANCH  18  24
BRANCH  21  28
ATOM     28  O   UNL A   1     -28.193  -0.208  24.477  0.00  0.00    -0.456 OA
BRANCH  28  29
ATOM     29  C   UNL A   1     -29.460   0.005  23.866  0.00  0.00    +0.243 C 
BRANCH  29  30
ATOM     30  C   UNL A   1     -30.065  -1.377  23.573  0.00  0.00    +0.229 C 
ATOM     31  O   UNL A   1     -30.729  -1.878  24.721  0.00  0.00    -0.216 OA
ENDBRANCH  29  30
ENDBRANCH  28  29
ENDBRANCH  21  28
ENDBRANCH   3  17
BRANCH   4  32
ATOM     32  O   UNL A   1     -23.063   0.950  25.673  0.00  0.00    -0.353 OA
ATOM     33  C   UNL A   1     -21.758   1.547  25.453  0.00  0.00    +0.174 C 
ENDBRANCH   4  32
BRANCH   1  34
ATOM     34  C   UNL A   1     -24.855  -1.012  30.143  0.00  0.00    +0.097 C 
BRANCH  34  35
ATOM     35  C   UNL A   1     -24.973  -2.505  29.788  0.00  0.00    -0.006 C 
ATOM     36  C   UNL A   1     -23.906  -3.173  29.146  0.00  0.00    -0.003 C 
ATOM     37  C   UNL A   1     -23.989  -4.549  28.853  0.00  0.00    -0.000 C 
ATOM     38  C   UNL A   1     -25.137  -5.280  29.205  0.00  0.00    -0.000 C 
ATOM     39  C   UNL A   1     -26.232  -4.611  29.784  0.00  0.00    -0.000 C 
ATOM     40  C   UNL A   1     -26.155  -3.232  30.065  0.00  0.00    -0.003 C 
ENDBRANCH  34  35
BRANCH  34  41
ATOM     41  C   UNL A   1     -25.387  -0.679  31.571  0.00  0.00    +0.092 C 
ATOM     42  C   UNL A   1     -25.189   0.773  32.028  0.00  0.00    +0.021 C 
ATOM     43  C   UNL A   1     -25.336   0.684  33.544  0.00  0.00    +0.020 C 
ATOM     44  C   UNL A   1     -24.829  -0.715  33.905  0.00  0.00    +0.089 C 
ATOM     45  N   UNL A   1     -24.758  -1.481  32.646  0.00  0.00    -0.218 NA
ENDBRANCH  34  41
ENDBRANCH   1  34
TORSDOF 11
