MODEL 1957
MODEL 1
REMARK VINA RESULT:    -7.259      0.000      0.000
REMARK INTER + INTRA:         -10.843
REMARK INTER:                  -9.381
REMARK INTRA:                  -1.462
REMARK UNBOUND:                -1.462
REMARK  Name = No_1957-gen_results/8p0m/2024-11-27-11-27-31/
REMARK  5 active torsions:
REMARK  status: ('A' for Active; 'I' for Inactive)
REMARK    1  A    between atoms: C_4  and  C_7
REMARK    2  A    between atoms: C_8  and  C_14
REMARK    3  A    between atoms: C_14  and  N_15
REMARK    4  A    between atoms: N_15  and  C_16
REMARK    5  A    between atoms: C_16  and  C_18
REMARK                            x       y       z     vdW  Elec       q    Type
REMARK                         _______ _______ _______ _____ _____    ______ ____
ROOT
ATOM      1  C   UNL A   1     -24.723  -1.328  30.118  0.00  0.00    +0.039 C 
ATOM      2  C   UNL A   1     -24.748  -0.402  29.055  0.00  0.00    +0.056 C 
ATOM      3  C   UNL A   1     -24.036   0.823  29.141  0.00  0.00    +0.023 C 
ATOM      4  C   UNL A   1     -23.470   1.120  30.426  0.00  0.00    +0.089 C 
ATOM      5  C   UNL A   1     -23.430  -1.063  30.899  0.00  0.00    +0.093 C 
ATOM      6  N   UNL A   1     -23.175   0.227  31.201  0.00  0.00    -0.218 NA
ATOM      7  C   UNL A   1     -25.933  -0.857  31.134  0.00  0.00    +0.006 C 
ENDROOT
BRANCH   1  11
ATOM      8  C   UNL A   1     -24.170  -4.847  28.670  0.00  0.00    -0.000 A 
ATOM      9  C   UNL A   1     -25.126  -5.238  28.878  0.00  0.00    -0.000 A 
ATOM     10  C   UNL A   1     -23.944  -3.437  29.027  0.00  0.00    -0.004 A 
ATOM     11  C   UNL A   1     -24.934  -2.703  29.744  0.00  0.00    -0.021 A 
ATOM     12  C   UNL A   1     -26.108  -3.366  29.998  0.00  0.00    -0.004 A 
ATOM     13  C   UNL A   1     -26.272  -4.653  29.624  0.00  0.00    -0.000 A 
ENDBRANCH   1  11
BRANCH   2  14
ATOM     14  C   UNL A   1     -25.628  -0.605  27.855  0.00  0.00    +0.235 C 
ATOM     15  F   UNL A   1     -26.974  -0.185  28.241  0.00  0.00    -0.218 F 
BRANCH  14  16
ATOM     16  N   UNL A   1     -25.616  -0.902  26.684  0.00  0.00    -0.182 NA
BRANCH  16  17
ATOM     17  C   UNL A   1     -25.533  -0.139  25.674  0.00  0.00    +0.118 C 
BRANCH  17  18
ATOM     18  C   UNL A   1     -25.199   1.117  25.684  0.00  0.00    -0.005 A 
ATOM     19  C   UNL A   1     -26.036   2.128  25.876  0.00  0.00    -0.003 A 
ATOM     20  C   UNL A   1     -25.681   3.502  26.009  0.00  0.00    -0.000 A 
ATOM     21  C   UNL A   1     -24.333   3.818  25.816  0.00  0.00    -0.000 A 
ATOM     22  C   UNL A   1     -23.350   2.864  25.605  0.00  0.00    -0.000 A 
ATOM     23  C   UNL A   1     -23.739   1.556  25.528  0.00  0.00    -0.003 A 
ENDBRANCH  17  18
ENDBRANCH  16  17
ENDBRANCH  14  16
ENDBRANCH   2  14
TORSDOF 5
ENDMDL
ENDMDL
