REMARK  Name = outputs/IAG933/test6/raw/output_1958_IAG933_linker_design_.xyz
REMARK  10 active torsions:
REMARK  status: ('A' for Active; 'I' for Inactive)
REMARK    1  A    between atoms: C_1  and  C_2
REMARK    2  A    between atoms: C_1  and  C_8
REMARK    3  A    between atoms: C_1  and  N_35
REMARK    4  A    between atoms: C_13  and  C_37
REMARK    5  A    between atoms: C_14  and  C_15
REMARK    6  A    between atoms: C_21  and  O_22
REMARK    7  A    between atoms: O_22  and  C_23
REMARK    8  A    between atoms: C_23  and  C_24
REMARK    9  A    between atoms: C_31  and  N_35
REMARK   10  A    between atoms: N_35  and  C_40
REMARK                            x       y       z     vdW  Elec       q    Type
REMARK                         _______ _______ _______ _____ _____    ______ ____
ROOT
ATOM      1  F   UNL A   1     -20.876   1.611  28.377  0.00  0.00    -0.198 F 
ATOM      2  C   UNL A   1     -24.421   0.621  28.405  0.00  0.00    +0.093 A 
ATOM      3  C   UNL A   1     -22.393   1.824  26.654  0.00  0.00    +0.198 A 
ATOM      4  C   UNL A   1     -23.455   1.611  26.381  0.00  0.00    +0.171 A 
ATOM      5  C   UNL A   1     -24.521   1.217  27.186  0.00  0.00    +0.049 A 
ATOM      6  O   UNL A   1     -22.588  -0.744  28.755  0.00  0.00    -0.283 OA
ATOM      7  F   UNL A   1     -23.532   1.829  25.017  0.00  0.00    -0.202 F 
ATOM      8  C   UNL A   1     -23.075   0.428  28.430  0.00  0.00    +0.238 A 
ATOM      9  F   UNL A   1     -21.441   2.361  25.917  0.00  0.00    -0.199 F 
ATOM     10  C   UNL A   1     -22.072   1.380  27.903  0.00  0.00    +0.209 A 
ENDROOT
BRANCH   5  11
ATOM     11  C   UNL A   1     -25.688   1.614  26.461  0.00  0.00    +0.042 C 
ATOM     12  C   UNL A   1     -26.250   2.920  26.395  0.00  0.00    +0.077 C 
ATOM     13  C   UNL A   1     -27.438   3.091  25.645  0.00  0.00    +0.107 C 
ATOM     14  N   UNL A   1     -28.075   2.089  25.003  0.00  0.00    -0.208 NA
ATOM     15  C   UNL A   1     -27.543   0.849  25.079  0.00  0.00    +0.253 C 
ATOM     16  C   UNL A   1     -26.354   0.576  25.777  0.00  0.00    +0.193 C 
ATOM     17  F   UNL A   1     -25.860  -0.681  25.795  0.00  0.00    -0.199 F 
BRANCH  12  18
ATOM     18  C   UNL A   1     -25.642   4.093  27.123  0.00  0.00    +0.266 C 
ATOM     19  N   UNL A   1     -25.614   5.252  26.449  0.00  0.00    -0.200 NA
ATOM     20  C   UNL A   1     -25.026   6.479  26.963  0.00  0.00    +0.139 C 
ATOM     21  O   UNL A   1     -25.143   3.966  28.243  0.00  0.00    -0.268 OA
ENDBRANCH  12  18
BRANCH  15  22
ATOM     22  O   UNL A   1     -28.193  -0.208  24.477  0.00  0.00    -0.456 OA
BRANCH  22  23
ATOM     23  C   UNL A   1     -29.460   0.005  23.866  0.00  0.00    +0.243 C 
BRANCH  23  24
ATOM     24  C   UNL A   1     -30.065  -1.377  23.573  0.00  0.00    +0.229 C 
ATOM     25  O   UNL A   1     -30.729  -1.878  24.721  0.00  0.00    -0.216 OA
ENDBRANCH  23  24
ENDBRANCH  22  23
ENDBRANCH  15  22
ENDBRANCH   5  11
BRANCH   2  26
ATOM     26  N   UNL A   1     -25.469   0.049  29.263  0.00  0.00    -0.294 N 
BRANCH  26  32
ATOM     27  S   UNL A   1     -27.826   2.240  29.455  0.00  0.00    -0.114 S 
ATOM     28  C   UNL A   1     -29.113   0.360  28.366  0.00  0.00    +0.163 C 
ATOM     29  O   UNL A   1     -29.968  -0.224  27.610  0.00  0.00    -0.295 OA
ATOM     30  C   UNL A   1     -29.226   1.712  28.585  0.00  0.00    +0.106 C 
ATOM     31  C   UNL A   1     -30.333   2.505  27.942  0.00  0.00    +0.020 C 
ATOM     32  C   UNL A   1     -26.959   0.598  29.203  0.00  0.00    +0.129 C 
ATOM     33  C   UNL A   1     -27.990  -0.252  28.883  0.00  0.00    +0.096 C 
ENDBRANCH  26  32
BRANCH  26  34
ATOM     34  C   UNL A   1     -24.855  -1.012  30.143  0.00  0.00    +0.112 C 
BRANCH  34  35
ATOM     35  C   UNL A   1     -24.973  -2.505  29.788  0.00  0.00    -0.003 C 
ATOM     36  C   UNL A   1     -23.906  -3.173  29.146  0.00  0.00    -0.003 C 
ATOM     37  C   UNL A   1     -23.989  -4.549  28.853  0.00  0.00    -0.000 C 
ATOM     38  C   UNL A   1     -25.137  -5.280  29.205  0.00  0.00    -0.000 C 
ATOM     39  C   UNL A   1     -26.232  -4.611  29.784  0.00  0.00    -0.000 C 
ATOM     40  C   UNL A   1     -26.155  -3.232  30.065  0.00  0.00    -0.003 C 
ENDBRANCH  34  35
BRANCH  34  41
ATOM     41  C   UNL A   1     -25.387  -0.679  31.571  0.00  0.00    +0.095 C 
ATOM     42  C   UNL A   1     -25.189   0.773  32.028  0.00  0.00    +0.021 C 
ATOM     43  C   UNL A   1     -25.336   0.684  33.544  0.00  0.00    +0.020 C 
ATOM     44  C   UNL A   1     -24.829  -0.715  33.905  0.00  0.00    +0.089 C 
ATOM     45  N   UNL A   1     -24.758  -1.481  32.646  0.00  0.00    -0.217 NA
ENDBRANCH  34  41
ENDBRANCH  26  34
ENDBRANCH   2  26
TORSDOF 10
