MODEL 1958
MODEL 1
REMARK VINA RESULT:    -6.160      0.000      0.000
REMARK INTER + INTRA:         -12.636
REMARK INTER:                  -8.321
REMARK INTRA:                  -4.315
REMARK UNBOUND:                -4.315
REMARK  Name = No_1958-gen_results/8p0m/2024-11-27-11-27-31/
REMARK  6 active torsions:
REMARK  status: ('A' for Active; 'I' for Inactive)
REMARK    1  A    between atoms: C_4  and  C_5
REMARK    2  A    between atoms: C_5  and  C_8
REMARK    3  A    between atoms: C_9  and  C_12
REMARK    4  A    between atoms: C_12  and  C_16
REMARK    5  A    between atoms: C_16  and  C_17
REMARK    6  A    between atoms: C_18  and  C_19
REMARK                            x       y       z     vdW  Elec       q    Type
REMARK                         _______ _______ _______ _____ _____    ______ ____
ROOT
ATOM      1  C   UNL A   1     -12.278   4.229  36.617  0.00  0.00    -0.022 A 
ATOM      2  C   UNL A   1     -12.828   3.169  36.090  0.00  0.00    -0.025 A 
ATOM      3  C   UNL A   1     -12.886   4.753  37.842  0.00  0.00    -0.004 A 
ATOM      4  C   UNL A   1     -14.210   4.631  38.193  0.00  0.00    -0.000 A 
ATOM      5  C   UNL A   1     -15.052   3.915  37.171  0.00  0.00    -0.000 A 
ATOM      6  C   UNL A   1     -14.321   2.923  36.308  0.00  0.00    -0.005 A 
ENDROOT
BRANCH   1   7
ATOM      7  C   UNL A   1     -11.148   4.911  36.077  0.00  0.00    +0.054 C 
BRANCH   7  11
ATOM      8  C   UNL A   1      -7.382   4.174  36.354  0.00  0.00    +0.018 A 
ATOM      9  C   UNL A   1      -7.419   3.608  37.242  0.00  0.00    +0.001 A 
ATOM     10  C   UNL A   1      -8.669   4.648  35.821  0.00  0.00    +0.085 A 
ATOM     11  C   UNL A   1      -9.873   4.461  36.561  0.00  0.00    -0.001 A 
ATOM     12  C   UNL A   1      -8.466   3.327  38.246  0.00  0.00    -0.000 A 
ATOM     13  C   UNL A   1      -9.748   3.815  37.825  0.00  0.00    -0.003 A 
ATOM     14  N   UNL A   1      -8.806   5.237  34.556  0.00  0.00    -0.128 NA
ENDBRANCH   7  11
ENDBRANCH   1   7
BRANCH   2  15
ATOM     15  C   UNL A   1     -12.315   2.565  34.845  0.00  0.00    +0.031 C 
BRANCH  15  16
ATOM     16  C   UNL A   1     -11.808   1.113  35.093  0.00  0.00    +0.031 C 
BRANCH  16  17
ATOM     17  C   UNL A   1     -10.416   1.059  35.535  0.00  0.00    -0.022 A 
ATOM     18  C   UNL A   1     -10.206   0.317  36.350  0.00  0.00    -0.004 A 
ATOM     19  C   UNL A   1      -8.821  -0.346  36.342  0.00  0.00    -0.000 A 
ATOM     20  C   UNL A   1      -7.836  -0.014  35.350  0.00  0.00    -0.000 A 
ATOM     21  C   UNL A   1      -7.997   0.923  34.703  0.00  0.00    -0.000 A 
ATOM     22  C   UNL A   1      -9.443   1.461  34.435  0.00  0.00    -0.004 A 
BRANCH  18  23
ATOM     23  C   UNL A   1     -10.908  -0.069  37.319  0.00  0.00    -0.000 A 
ATOM     24  C   UNL A   1     -11.314   0.734  38.375  0.00  0.00    -0.000 A 
ATOM     25  C   UNL A   1     -11.952   0.164  39.493  0.00  0.00    -0.000 A 
ATOM     26  C   UNL A   1     -12.062  -1.179  39.588  0.00  0.00    -0.000 A 
ATOM     27  C   UNL A   1     -11.645  -2.031  38.600  0.00  0.00    -0.000 A 
ATOM     28  C   UNL A   1     -11.077  -1.491  37.541  0.00  0.00    -0.000 A 
ENDBRANCH  18  23
ENDBRANCH  16  17
ENDBRANCH  15  16
ENDBRANCH   2  15
TORSDOF 6
ENDMDL
ENDMDL
