REMARK  Name = No_1959-gen_results/8p0m/2024-11-27-11-27-31/
REMARK  1 active torsions:
REMARK  status: ('A' for Active; 'I' for Inactive)
REMARK    1  A    between atoms: C_4  and  C_7
REMARK                            x       y       z     vdW  Elec       q    Type
REMARK                         _______ _______ _______ _____ _____    ______ ____
ROOT
ATOM      1  C   UNL A   1     -28.016  -0.814  28.878  0.00  0.00    +0.062 A 
ATOM      2  C   UNL A   1     -28.469  -0.785  29.829  0.00  0.00    +0.170 A 
ATOM      3  C   UNL A   1     -26.546  -0.876  28.850  0.00  0.00    +0.142 A 
ATOM      4  C   UNL A   1     -25.804  -1.032  30.057  0.00  0.00    +0.030 A 
ATOM      5  C   UNL A   1     -26.537  -1.039  31.217  0.00  0.00    +0.034 A 
ATOM      6  C   UNL A   1     -27.884  -0.953  31.186  0.00  0.00    +0.168 A 
ATOM      7  F   UNL A   1     -29.905  -0.680  29.898  0.00  0.00    -0.202 F 
ATOM      8  F   UNL A   1     -25.880  -0.852  27.706  0.00  0.00    -0.204 F 
ATOM      9  F   UNL A   1     -28.610  -0.958  32.304  0.00  0.00    -0.202 F 
ENDROOT
BRANCH   4  10
ATOM     10  C   UNL A   1     -24.366  -1.113  30.048  0.00  0.00    +0.002 A 
ATOM     11  C   UNL A   1     -23.745  -1.369  30.812  0.00  0.00    +0.000 A 
ATOM     12  C   UNL A   1     -22.207  -1.250  30.858  0.00  0.00    +0.000 A 
ATOM     13  C   UNL A   1     -21.686  -0.819  29.653  0.00  0.00    +0.000 A 
ATOM     14  C   UNL A   1     -23.735  -0.611  28.780  0.00  0.00    +0.000 A 
ATOM     15  C   UNL A   1     -22.434  -0.461  28.655  0.00  0.00    +0.000 A 
ENDBRANCH   4  10
TORSDOF 1
