MODEL 1959
MODEL 1
REMARK VINA RESULT:    -6.937      0.000      0.000
REMARK INTER + INTRA:          -7.742
REMARK INTER:                  -7.343
REMARK INTRA:                  -0.399
REMARK UNBOUND:                -0.399
REMARK  Name = No_1959-gen_results/8p0m/2024-11-27-11-27-31/
REMARK  1 active torsions:
REMARK  status: ('A' for Active; 'I' for Inactive)
REMARK    1  A    between atoms: C_4  and  C_7
REMARK                            x       y       z     vdW  Elec       q    Type
REMARK                         _______ _______ _______ _____ _____    ______ ____
ROOT
ATOM      1  C   UNL A   1     -22.414   0.447  28.923  0.00  0.00    +0.062 A 
ATOM      2  C   UNL A   1     -22.800   0.997  28.112  0.00  0.00    +0.170 A 
ATOM      3  C   UNL A   1     -23.138  -0.781  29.291  0.00  0.00    +0.142 A 
ATOM      4  C   UNL A   1     -24.216  -1.255  28.488  0.00  0.00    +0.030 A 
ATOM      5  C   UNL A   1     -24.568  -0.462  27.425  0.00  0.00    +0.034 A 
ATOM      6  C   UNL A   1     -23.885   0.669  27.148  0.00  0.00    +0.168 A 
ATOM      7  F   UNL A   1     -22.145   2.228  27.748  0.00  0.00    -0.202 F 
ATOM      8  F   UNL A   1     -22.770  -1.507  30.335  0.00  0.00    -0.204 F 
ATOM      9  F   UNL A   1     -24.215   1.450  26.119  0.00  0.00    -0.202 F 
ENDROOT
BRANCH   4  10
ATOM     10  C   UNL A   1     -24.924  -2.464  28.822  0.00  0.00    +0.002 A 
ATOM     11  C   UNL A   1     -25.820  -2.559  29.293  0.00  0.00    +0.000 A 
ATOM     12  C   UNL A   1     -26.470  -3.850  29.834  0.00  0.00    +0.000 A 
ATOM     13  C   UNL A   1     -25.724  -4.972  29.525  0.00  0.00    +0.000 A 
ATOM     14  C   UNL A   1     -24.144  -3.721  28.556  0.00  0.00    +0.000 A 
ATOM     15  C   UNL A   1     -24.566  -4.904  28.945  0.00  0.00    +0.000 A 
ENDBRANCH   4  10
TORSDOF 1
ENDMDL
ENDMDL
