MODEL 195
MODEL 1
REMARK VINA RESULT:    -8.129      0.000      0.000
REMARK INTER + INTRA:         -10.306
REMARK INTER:                  -9.555
REMARK INTRA:                  -0.751
REMARK UNBOUND:                -0.751
REMARK  Name = No_195-gen_results/8p0m/2024-11-27-11-27-31/
REMARK  3 active torsions:
REMARK  status: ('A' for Active; 'I' for Inactive)
REMARK    1  A    between atoms: C_6  and  C_8
REMARK    2  A    between atoms: C_25  and  C_30
REMARK    3  A    between atoms: N_32  and  C_33
REMARK                            x       y       z     vdW  Elec       q    Type
REMARK                         _______ _______ _______ _____ _____    ______ ____
ROOT
ATOM      1  C   UNL A   1     -31.658  -4.723   9.660  0.00  0.00    +0.014 A 
ATOM      2  C   UNL A   1     -31.250  -5.719   9.596  0.00  0.00    -0.015 A 
ATOM      3  C   UNL A   1     -30.050  -6.138   8.815  0.00  0.00    +0.050 A 
ATOM      4  C   UNL A   1     -29.375  -5.113   8.127  0.00  0.00    +0.006 A 
ATOM      5  C   UNL A   1     -29.869  -3.848   8.202  0.00  0.00    +0.019 A 
ATOM      6  C   UNL A   1     -30.997  -3.535   8.931  0.00  0.00    +0.081 A 
ATOM      7  C   UNL A   1     -29.208  -2.721   7.487  0.00  0.00    +0.019 A 
ATOM      8  C   UNL A   1     -28.502  -2.560   6.765  0.00  0.00    +0.002 A 
ATOM      9  C   UNL A   1     -27.965  -1.322   6.178  0.00  0.00    +0.000 A 
ATOM     10  C   UNL A   1     -28.510  -0.146   6.648  0.00  0.00    +0.002 A 
ATOM     11  C   UNL A   1     -29.518  -0.193   7.601  0.00  0.00    +0.019 A 
ATOM     12  C   UNL A   1     -29.961  -1.424   8.092  0.00  0.00    +0.081 A 
ATOM     13  N   UNL A   1     -31.334  -2.231   8.994  0.00  0.00    -0.245 NA
ATOM     14  C   UNL A   1     -29.589  -7.488   8.717  0.00  0.00    +0.249 C 
ATOM     15  N   UNL A   1     -30.021  -8.368   9.266  0.00  0.00    -0.277 N 
ATOM     16  C   UNL A   1     -29.666  -9.624   9.270  0.00  0.00    +0.103 C 
ATOM     17  O   UNL A   1     -28.873  -7.696   7.700  0.00  0.00    -0.270 OA
ATOM     18  C   UNL A   1     -30.298 -10.492   9.935  0.00  0.00    +0.098 C 
ATOM     19  C   UNL A   1     -31.282 -10.158  10.822  0.00  0.00    +0.013 C 
ATOM     20  C   UNL A   1     -31.708  -8.823  10.943  0.00  0.00    +0.021 C 
ATOM     21  C   UNL A   1     -31.125  -7.989  10.225  0.00  0.00    +0.080 C 
ATOM     22  C   UNL A   1     -31.579  -6.661  10.219  0.00  0.00    +0.046 C 
ENDROOT
BRANCH   1  28
ATOM     23  C   UNL A   1     -35.204  -3.816  10.639  0.00  0.00    +0.007 A 
ATOM     24  C   UNL A   1     -34.993  -3.412  11.759  0.00  0.00    +0.035 A 
ATOM     25  C   UNL A   1     -33.856  -3.373  12.394  0.00  0.00    +0.007 A 
ATOM     26  C   UNL A   1     -32.696  -3.869  11.725  0.00  0.00    +0.001 A 
ATOM     27  C   UNL A   1     -34.056  -4.229   9.855  0.00  0.00    +0.001 A 
ATOM     28  C   UNL A   1     -32.856  -4.237  10.436  0.00  0.00    +0.001 A 
ATOM     29 BR   UNL A   1     -36.481  -2.718  12.807  0.00  0.00    -0.049 Br
ENDBRANCH   1  28
BRANCH  18  30
ATOM     30  C   UNL A   1     -29.921 -11.983   9.985  0.00  0.00    +0.247 C 
ATOM     31  O   UNL A   1     -29.374 -12.638   9.263  0.00  0.00    -0.273 OA
ATOM     32  N   UNL A   1     -30.318 -12.565  11.257  0.00  0.00    -0.178 NA
BRANCH  32  33
ATOM     33  C   UNL A   1     -30.034 -13.918  11.542  0.00  0.00    +0.084 C 
ATOM     34  C   UNL A   1     -29.859 -14.346  12.578  0.00  0.00    -0.008 C 
ATOM     35  C   UNL A   1     -29.546 -15.713  12.906  0.00  0.00    +0.032 C 
ENDBRANCH  32  33
ENDBRANCH  18  30
TORSDOF 3
ENDMDL
ENDMDL
