MODEL 1961
MODEL 1
REMARK VINA RESULT:    -7.360      0.000      0.000
REMARK INTER + INTRA:          -9.305
REMARK INTER:                  -8.651
REMARK INTRA:                  -0.655
REMARK UNBOUND:                -0.655
REMARK  Name = No_1961-gen_results/8p0m/2024-11-27-11-27-31/
REMARK  3 active torsions:
REMARK  status: ('A' for Active; 'I' for Inactive)
REMARK    1  A    between atoms: C_5  and  C_8
REMARK    2  A    between atoms: C_12  and  C_14
REMARK    3  A    between atoms: C_14  and  C_16
REMARK                            x       y       z     vdW  Elec       q    Type
REMARK                         _______ _______ _______ _____ _____    ______ ____
ROOT
ATOM      1  C   UNL A   1     -23.440  -1.116  28.830  0.00  0.00    -0.000 A 
ATOM      2  C   UNL A   1     -22.325  -1.115  29.160  0.00  0.00    -0.000 A 
ATOM      3  C   UNL A   1     -21.401  -0.056  28.887  0.00  0.00    -0.000 A 
ATOM      4  C   UNL A   1     -21.866   1.040  28.157  0.00  0.00    -0.003 A 
ATOM      5  C   UNL A   1     -23.144   1.058  27.765  0.00  0.00    -0.002 A 
ATOM      6  C   UNL A   1     -24.002   0.018  28.040  0.00  0.00    -0.003 A 
ENDROOT
BRANCH   1  11
ATOM      7  C   UNL A   1     -26.605  -2.437  29.953  0.00  0.00    +0.011 A 
ATOM      8  C   UNL A   1     -25.772  -1.827  29.745  0.00  0.00    +0.001 A 
ATOM      9  C   UNL A   1     -26.407  -3.851  29.809  0.00  0.00    +0.058 A 
ATOM     10  C   UNL A   1     -25.297  -4.382  29.287  0.00  0.00    +0.011 A 
ATOM     11  C   UNL A   1     -24.489  -2.180  29.154  0.00  0.00    +0.000 A 
ATOM     12  C   UNL A   1     -24.298  -3.483  28.994  0.00  0.00    +0.001 A 
ATOM     13 CL   UNL A   1     -27.802  -4.721  30.355  0.00  0.00    -0.082 Cl
ENDBRANCH   1  11
BRANCH   5  14
ATOM     14  C   UNL A   1     -23.687   2.201  26.984  0.00  0.00    +0.169 C 
ATOM     15 CL   UNL A   1     -24.608   3.257  27.547  0.00  0.00    -0.104 Cl
BRANCH  14  16
ATOM     16  C   UNL A   1     -23.325   2.238  25.568  0.00  0.00    +0.337 C 
ATOM     17  F   UNL A   1     -22.269   2.276  25.413  0.00  0.00    -0.197 F 
ATOM     18  F   UNL A   1     -23.890   1.044  25.041  0.00  0.00    -0.197 F 
ENDBRANCH  14  16
ENDBRANCH   5  14
TORSDOF 3
ENDMDL
ENDMDL
