REMARK  Name = No_1961-gen_results/8p0m/2024-11-27-11-27-31/
REMARK  3 active torsions:
REMARK  status: ('A' for Active; 'I' for Inactive)
REMARK    1  A    between atoms: C_5  and  C_8
REMARK    2  A    between atoms: C_12  and  C_14
REMARK    3  A    between atoms: C_14  and  C_16
REMARK                            x       y       z     vdW  Elec       q    Type
REMARK                         _______ _______ _______ _____ _____    ______ ____
ROOT
ATOM      1  C   UNL A   1     -30.044  -0.019  31.755  0.00  0.00    -0.000 A 
ATOM      2  C   UNL A   1     -30.171  -1.026  32.323  0.00  0.00    -0.000 A 
ATOM      3  C   UNL A   1     -30.835  -1.166  33.584  0.00  0.00    -0.000 A 
ATOM      4  C   UNL A   1     -31.345  -0.011  34.181  0.00  0.00    -0.003 A 
ATOM      5  C   UNL A   1     -31.207   1.158  33.547  0.00  0.00    -0.002 A 
ATOM      6  C   UNL A   1     -30.556   1.255  32.338  0.00  0.00    -0.003 A 
ENDROOT
BRANCH   1  11
ATOM      7  C   UNL A   1     -28.016  -0.814  28.878  0.00  0.00    +0.011 A 
ATOM      8  C   UNL A   1     -28.469  -0.785  29.829  0.00  0.00    +0.001 A 
ATOM      9  C   UNL A   1     -28.196   0.348  28.055  0.00  0.00    +0.058 A 
ATOM     10  C   UNL A   1     -29.019   1.350  28.378  0.00  0.00    +0.011 A 
ATOM     11  C   UNL A   1     -29.411   0.180  30.378  0.00  0.00    +0.000 A 
ATOM     12  C   UNL A   1     -29.606   1.250  29.619  0.00  0.00    +0.001 A 
ATOM     13 CL   UNL A   1     -27.250   0.223  26.609  0.00  0.00    -0.082 Cl
ENDBRANCH   1  11
BRANCH   5  14
ATOM     14  C   UNL A   1     -31.731   2.416  34.141  0.00  0.00    +0.169 C 
ATOM     15 CL   UNL A   1     -32.112   2.579  35.593  0.00  0.00    -0.104 Cl
BRANCH  14  16
ATOM     16  C   UNL A   1     -31.925   3.529  33.213  0.00  0.00    +0.337 C 
ATOM     17  F   UNL A   1     -32.743   4.158  33.488  0.00  0.00    -0.197 F 
ATOM     18  F   UNL A   1     -30.687   4.228  33.257  0.00  0.00    -0.197 F 
ENDBRANCH  14  16
ENDBRANCH   5  14
TORSDOF 3
