MODEL 1963
MODEL 1
REMARK VINA RESULT:    -7.197      0.000      0.000
REMARK INTER + INTRA:          -9.198
REMARK INTER:                  -8.460
REMARK INTRA:                  -0.739
REMARK UNBOUND:                -0.739
REMARK  Name = No_1963-gen_results/8p0m/2024-11-27-11-27-31/
REMARK  3 active torsions:
REMARK  status: ('A' for Active; 'I' for Inactive)
REMARK    1  A    between atoms: C_5  and  C_22
REMARK    2  A    between atoms: C_9  and  C_11
REMARK    3  A    between atoms: N_12  and  C_15
REMARK                            x       y       z     vdW  Elec       q    Type
REMARK                         _______ _______ _______ _____ _____    ______ ____
ROOT
ATOM      1  C   UNL A   1     -27.308   2.947  25.199  0.00  0.00    +0.012 A 
ATOM      2  C   UNL A   1     -27.961   2.158  24.951  0.00  0.00    +0.064 A 
ATOM      3  C   UNL A   1     -25.957   2.569  25.644  0.00  0.00    +0.001 A 
ATOM      4  C   UNL A   1     -24.928   3.449  26.177  0.00  0.00    +0.000 A 
ATOM      5  C   UNL A   1     -27.724   0.707  24.763  0.00  0.00    +0.090 A 
ATOM      6  C   UNL A   1     -26.464   0.270  25.156  0.00  0.00    +0.007 A 
ATOM      7  C   UNL A   1     -25.514   1.171  25.589  0.00  0.00    +0.000 A 
ATOM      8  C   UNL A   1     -23.963   2.964  27.101  0.00  0.00    +0.005 A 
ATOM      9  C   UNL A   1     -23.568   1.604  26.969  0.00  0.00    +0.055 A 
ATOM     10  C   UNL A   1     -24.353   0.722  26.303  0.00  0.00    +0.005 A 
ATOM     11 CL   UNL A   1     -29.591   2.589  24.253  0.00  0.00    -0.082 Cl
ENDROOT
BRANCH   9  12
ATOM     12  C   UNL A   1     -22.374   1.154  27.734  0.00  0.00    +0.269 C 
ATOM     13  N   UNL A   1     -22.207   0.654  28.744  0.00  0.00    -0.175 NA
ATOM     14  O   UNL A   1     -21.273   1.852  27.258  0.00  0.00    -0.268 OA
BRANCH  13  15
ATOM     15  C   UNL A   1     -23.192  -0.360  29.183  0.00  0.00    +0.076 A 
ATOM     16  C   UNL A   1     -23.038  -1.620  28.846  0.00  0.00    +0.046 A 
ATOM     17  C   UNL A   1     -23.986  -2.646  29.063  0.00  0.00    +0.141 A 
ATOM     18  C   UNL A   1     -25.326  -2.115  29.444  0.00  0.00    +0.030 A 
ATOM     19  C   UNL A   1     -25.422  -0.848  29.793  0.00  0.00    +0.004 A 
ATOM     20  C   UNL A   1     -24.370  -0.017  29.739  0.00  0.00    +0.017 A 
ATOM     21  F   UNL A   1     -23.873  -3.899  28.638  0.00  0.00    -0.204 F 
ENDBRANCH  13  15
ENDBRANCH   9  12
BRANCH   5  22
ATOM     22  C   UNL A   1     -28.708  -0.297  24.167  0.00  0.00    +0.389 C 
ATOM     23  O   UNL A   1     -28.812  -0.380  22.944  0.00  0.00    -0.240 OA
ATOM     24  O   UNL A   1     -29.598  -0.714  24.959  0.00  0.00    -0.240 OA
ENDBRANCH   5  22
TORSDOF 3
ENDMDL
ENDMDL
