REMARK  Name = No_1963-gen_results/8p0m/2024-11-27-11-27-31/
REMARK  3 active torsions:
REMARK  status: ('A' for Active; 'I' for Inactive)
REMARK    1  A    between atoms: C_5  and  C_22
REMARK    2  A    between atoms: C_9  and  C_11
REMARK    3  A    between atoms: N_12  and  C_15
REMARK                            x       y       z     vdW  Elec       q    Type
REMARK                         _______ _______ _______ _____ _____    ______ ____
ROOT
ATOM      1  C   UNL A   1     -28.016  -0.814  28.878  0.00  0.00    +0.012 A 
ATOM      2  C   UNL A   1     -28.469  -0.785  29.829  0.00  0.00    +0.064 A 
ATOM      3  C   UNL A   1     -26.546  -0.876  28.850  0.00  0.00    +0.001 A 
ATOM      4  C   UNL A   1     -25.683  -0.777  27.683  0.00  0.00    +0.000 A 
ATOM      5  C   UNL A   1     -27.918  -1.003  31.188  0.00  0.00    +0.090 A 
ATOM      6  C   UNL A   1     -26.531  -1.079  31.246  0.00  0.00    +0.007 A 
ATOM      7  C   UNL A   1     -25.780  -1.046  30.090  0.00  0.00    +0.000 A 
ATOM      8  C   UNL A   1     -24.368  -0.250  27.792  0.00  0.00    +0.005 A 
ATOM      9  C   UNL A   1     -23.681  -0.476  29.017  0.00  0.00    +0.055 A 
ATOM     10  C   UNL A   1     -24.369  -0.787  30.144  0.00  0.00    +0.005 A 
ATOM     11 CL   UNL A   1     -30.291  -0.859  29.907  0.00  0.00    -0.082 Cl
ENDROOT
BRANCH   9  12
ATOM     12  C   UNL A   1     -22.223  -0.181  29.057  0.00  0.00    +0.269 C 
ATOM     13  N   UNL A   1     -21.466   0.233  28.314  0.00  0.00    -0.175 NA
ATOM     14  O   UNL A   1     -21.663  -0.935  30.078  0.00  0.00    -0.268 OA
BRANCH  13  15
ATOM     15  C   UNL A   1     -21.918   1.294  27.386  0.00  0.00    +0.076 A 
ATOM     16  C   UNL A   1     -22.746   2.226  27.800  0.00  0.00    +0.046 A 
ATOM     17  C   UNL A   1     -23.373   3.188  26.976  0.00  0.00    +0.141 A 
ATOM     18  C   UNL A   1     -23.247   2.867  25.525  0.00  0.00    +0.030 A 
ATOM     19  C   UNL A   1     -22.387   1.937  25.162  0.00  0.00    +0.004 A 
ATOM     20  C   UNL A   1     -21.687   1.229  26.061  0.00  0.00    +0.017 A 
ATOM     21  F   UNL A   1     -24.283   4.068  27.377  0.00  0.00    -0.204 F 
ENDBRANCH  13  15
ENDBRANCH   9  12
BRANCH   5  22
ATOM     22  C   UNL A   1     -28.728  -1.173  32.471  0.00  0.00    +0.389 C 
ATOM     23  O   UNL A   1     -28.817  -2.290  32.980  0.00  0.00    -0.240 OA
ATOM     24  O   UNL A   1     -29.539  -0.239  32.724  0.00  0.00    -0.240 OA
ENDBRANCH   5  22
TORSDOF 3
