MODEL 1964
MODEL 1
REMARK VINA RESULT:    -6.567      0.000      0.000
REMARK INTER + INTRA:          -7.264
REMARK INTER:                  -6.951
REMARK INTRA:                  -0.313
REMARK UNBOUND:                -0.313
REMARK  Name = No_1964-gen_results/8p0m/2024-11-27-11-27-31/
REMARK  1 active torsions:
REMARK  status: ('A' for Active; 'I' for Inactive)
REMARK    1  A    between atoms: C_3  and  C_7
REMARK                            x       y       z     vdW  Elec       q    Type
REMARK                         _______ _______ _______ _____ _____    ______ ____
ROOT
ATOM      1  C   UNL A   1     -21.742  -0.050  28.901  0.00  0.00    +0.000 A 
ATOM      2  C   UNL A   1     -22.354  -1.059  29.165  0.00  0.00    +0.000 A 
ATOM      3  C   UNL A   1     -23.640  -1.326  28.697  0.00  0.00    +0.000 A 
ATOM      4  C   UNL A   1     -24.321  -0.327  27.897  0.00  0.00    +0.000 A 
ATOM      5  C   UNL A   1     -23.587   0.829  27.634  0.00  0.00    +0.000 A 
ATOM      6  C   UNL A   1     -22.376   1.004  28.127  0.00  0.00    +0.000 A 
ENDROOT
BRANCH   3   7
ATOM      7  C   UNL A   1     -24.452  -2.546  28.972  0.00  0.00    +0.000 A 
ATOM      8  C   UNL A   1     -25.678  -2.482  29.544  0.00  0.00    +0.000 A 
ATOM      9  C   UNL A   1     -26.399  -3.646  29.829  0.00  0.00    +0.000 A 
ATOM     10  C   UNL A   1     -25.886  -4.942  29.494  0.00  0.00    +0.000 A 
ATOM     11  C   UNL A   1     -24.008  -3.866  28.721  0.00  0.00    +0.000 A 
ATOM     12  C   UNL A   1     -24.694  -4.992  28.983  0.00  0.00    +0.000 A 
ENDBRANCH   3   7
TORSDOF 1
ENDMDL
ENDMDL
