MODEL 1966
MODEL 1
REMARK VINA RESULT:    -5.149      0.000      0.000
REMARK INTER + INTRA:          -5.491
REMARK INTER:                  -5.450
REMARK INTRA:                  -0.041
REMARK UNBOUND:                -0.041
REMARK  Name = No_1966-gen_results/8p0m/2024-11-27-11-27-31/
REMARK  1 active torsions:
REMARK  status: ('A' for Active; 'I' for Inactive)
REMARK    1  A    between atoms: C_5  and  C_7
REMARK                            x       y       z     vdW  Elec       q    Type
REMARK                         _______ _______ _______ _____ _____    ______ ____
ROOT
ATOM      1  C   UNL A   1     -29.716 -10.002  31.513  0.00  0.00    +0.030 A 
ATOM      2  C   UNL A   1     -29.569 -10.650  30.503  0.00  0.00    +0.140 A 
ATOM      3  C   UNL A   1     -28.681 -11.702  30.353  0.00  0.00    +0.030 A 
ATOM      4  C   UNL A   1     -27.904 -12.062  31.493  0.00  0.00    +0.009 A 
ATOM      5  C   UNL A   1     -28.201 -11.419  32.641  0.00  0.00    +0.080 A 
ATOM      6  C   UNL A   1     -29.142 -10.475  32.695  0.00  0.00    +0.009 A 
ATOM      7  F   UNL A   1     -30.087 -10.424  29.183  0.00  0.00    -0.204 F 
ENDROOT
BRANCH   5   8
ATOM      8  C   UNL A   1     -27.411 -11.850  33.811  0.00  0.00    +0.388 C 
ATOM      9  O   UNL A   1     -26.714 -12.818  33.864  0.00  0.00    -0.241 OA
ATOM     10  O   UNL A   1     -27.054 -10.785  34.637  0.00  0.00    -0.241 OA
ENDBRANCH   5   8
TORSDOF 1
ENDMDL
ENDMDL
