REMARK  Name = outputs/IAG933/test6/raw/output_1966_IAG933_linker_design_.xyz
REMARK  10 active torsions:
REMARK  status: ('A' for Active; 'I' for Inactive)
REMARK    1  A    between atoms: C_1  and  C_2
REMARK    2  A    between atoms: C_1  and  C_8
REMARK    3  A    between atoms: C_1  and  C_29
REMARK    4  A    between atoms: C_13  and  C_28
REMARK    5  A    between atoms: C_14  and  C_15
REMARK    6  A    between atoms: C_21  and  O_22
REMARK    7  A    between atoms: O_22  and  C_23
REMARK    8  A    between atoms: C_23  and  C_24
REMARK    9  A    between atoms: C_30  and  C_36
REMARK   10  A    between atoms: C_35  and  C_41
REMARK                            x       y       z     vdW  Elec       q    Type
REMARK                         _______ _______ _______ _____ _____    ______ ____
ROOT
ATOM      1  C   UNL A   1     -24.708   1.296  27.412  0.00  0.00    -0.013 C 
ATOM      2  C   UNL A   1     -24.290   0.070  29.314  0.00  0.00    -0.016 C 
ATOM      3  C   UNL A   1     -23.379   1.462  27.102  0.00  0.00    +0.067 C 
ATOM      4  C   UNL A   1     -22.378   0.955  27.999  0.00  0.00    +0.141 C 
ATOM      5  F   UNL A   1     -21.163   1.073  27.757  0.00  0.00    -0.204 F 
ATOM      6  C   UNL A   1     -25.194   0.971  28.678  0.00  0.00    +0.008 C 
ATOM      7  C   UNL A   1     -22.899   0.189  29.117  0.00  0.00    +0.025 C 
ENDROOT
BRANCH   1   8
ATOM      8  C   UNL A   1     -25.688   1.614  26.461  0.00  0.00    +0.092 C 
ATOM      9  C   UNL A   1     -26.250   2.920  26.395  0.00  0.00    +0.059 C 
ATOM     10  C   UNL A   1     -27.438   3.091  25.645  0.00  0.00    +0.102 C 
ATOM     11  N   UNL A   1     -28.075   2.089  25.003  0.00  0.00    -0.212 NA
ATOM     12  C   UNL A   1     -27.543   0.849  25.079  0.00  0.00    +0.234 C 
ATOM     13  C   UNL A   1     -26.354   0.576  25.777  0.00  0.00    +0.244 C 
ATOM     14  F   UNL A   1     -25.860  -0.681  25.795  0.00  0.00    -0.227 F 
BRANCH   9  15
ATOM     15  C   UNL A   1     -25.642   4.093  27.123  0.00  0.00    +0.263 C 
ATOM     16  N   UNL A   1     -25.614   5.252  26.449  0.00  0.00    -0.200 NA
ATOM     17  C   UNL A   1     -25.026   6.479  26.963  0.00  0.00    +0.139 C 
ATOM     18  O   UNL A   1     -25.143   3.966  28.243  0.00  0.00    -0.269 OA
ENDBRANCH   9  15
BRANCH  12  19
ATOM     19  O   UNL A   1     -28.193  -0.208  24.477  0.00  0.00    -0.459 OA
BRANCH  19  20
ATOM     20  C   UNL A   1     -29.460   0.005  23.866  0.00  0.00    +0.242 C 
BRANCH  20  21
ATOM     21  C   UNL A   1     -30.065  -1.377  23.573  0.00  0.00    +0.229 C 
ATOM     22  O   UNL A   1     -30.729  -1.878  24.721  0.00  0.00    -0.216 OA
ENDBRANCH  20  21
ENDBRANCH  19  20
ENDBRANCH  12  19
ENDBRANCH   1   8
BRANCH   6  25
ATOM     23  O   UNL A   1     -28.595   1.870  30.048  0.00  0.00    -0.211 OA
ATOM     24  O   UNL A   1     -27.258  -0.872  28.427  0.00  0.00    -0.290 OA
ATOM     25  C   UNL A   1     -26.557   1.147  29.200  0.00  0.00    +0.233 C 
ATOM     26  C   UNL A   1     -27.519   0.119  29.095  0.00  0.00    +0.218 C 
ATOM     27  C   UNL A   1     -28.745   0.577  29.664  0.00  0.00    +0.249 C 
ATOM     28  O   UNL A   1     -27.226   2.377  29.737  0.00  0.00    -0.210 OA
ENDBRANCH   6  25
BRANCH   3  30
ATOM     29  F   UNL A   1     -21.733   1.792  25.279  0.00  0.00    -0.193 F 
ATOM     30  C   UNL A   1     -22.794   2.107  25.992  0.00  0.00    +0.343 C 
ATOM     31  F   UNL A   1     -23.314   3.290  25.633  0.00  0.00    -0.193 F 
ENDBRANCH   3  30
BRANCH   2  32
ATOM     32  C   UNL A   1     -24.855  -1.012  30.143  0.00  0.00    +0.060 C 
BRANCH  32  33
ATOM     33  C   UNL A   1     -24.973  -2.505  29.788  0.00  0.00    -0.017 C 
ATOM     34  C   UNL A   1     -23.906  -3.173  29.146  0.00  0.00    -0.004 C 
ATOM     35  C   UNL A   1     -23.989  -4.549  28.853  0.00  0.00    -0.000 C 
ATOM     36  C   UNL A   1     -25.137  -5.280  29.205  0.00  0.00    -0.000 C 
ATOM     37  C   UNL A   1     -26.232  -4.611  29.784  0.00  0.00    -0.000 C 
ATOM     38  C   UNL A   1     -26.155  -3.232  30.065  0.00  0.00    -0.004 C 
ENDBRANCH  32  33
BRANCH  32  39
ATOM     39  C   UNL A   1     -25.387  -0.679  31.571  0.00  0.00    +0.081 C 
ATOM     40  C   UNL A   1     -25.189   0.773  32.028  0.00  0.00    +0.019 C 
ATOM     41  C   UNL A   1     -25.336   0.684  33.544  0.00  0.00    +0.020 C 
ATOM     42  C   UNL A   1     -24.829  -0.715  33.905  0.00  0.00    +0.089 C 
ATOM     43  N   UNL A   1     -24.758  -1.481  32.646  0.00  0.00    -0.219 NA
ENDBRANCH  32  39
ENDBRANCH   2  32
TORSDOF 10
