MODEL 1967
MODEL 1
REMARK VINA RESULT:    -6.176      0.000      0.000
REMARK INTER + INTRA:          -6.599
REMARK INTER:                  -6.537
REMARK INTRA:                  -0.062
REMARK UNBOUND:                -0.062
REMARK  Name = No_1967-gen_results/8p0m/2024-11-27-11-27-31/
REMARK  1 active torsions:
REMARK  status: ('A' for Active; 'I' for Inactive)
REMARK    1  A    between atoms: C_9  and  C_11
REMARK                            x       y       z     vdW  Elec       q    Type
REMARK                         _______ _______ _______ _____ _____    ______ ____
ROOT
ATOM      1  C   UNL A   1     -30.726  -9.862  29.434  0.00  0.00    +0.000 A 
ATOM      2  C   UNL A   1     -30.667 -10.439  28.554  0.00  0.00    +0.000 A 
ATOM      3  C   UNL A   1     -29.880 -10.289  30.560  0.00  0.00    +0.000 A 
ATOM      4  C   UNL A   1     -29.886  -9.760  31.915  0.00  0.00    +0.000 A 
ATOM      5  C   UNL A   1     -29.727 -11.508  28.140  0.00  0.00    +0.000 A 
ATOM      6  C   UNL A   1     -28.886 -11.964  29.149  0.00  0.00    +0.000 A 
ATOM      7  C   UNL A   1     -28.899 -11.368  30.393  0.00  0.00    +0.000 A 
ATOM      8  C   UNL A   1     -29.525 -10.580  33.018  0.00  0.00    +0.007 A 
ATOM      9  C   UNL A   1     -28.551 -11.589  32.782  0.00  0.00    +0.080 A 
ATOM     10  C   UNL A   1     -28.069 -11.921  31.370  0.00  0.00    +0.007 A 
ENDROOT
BRANCH   9  11
ATOM     11  C   UNL A   1     -27.883 -12.257  33.948  0.00  0.00    +0.388 C 
ATOM     12  O   UNL A   1     -28.446 -12.635  34.926  0.00  0.00    -0.241 OA
ATOM     13  O   UNL A   1     -26.569 -12.669  33.652  0.00  0.00    -0.241 OA
ENDBRANCH   9  11
TORSDOF 1
ENDMDL
ENDMDL
