REMARK  Name = No_1968-gen_results/8p0m/2024-11-27-11-27-31/
REMARK  3 active torsions:
REMARK  status: ('A' for Active; 'I' for Inactive)
REMARK    1  A    between atoms: C_8  and  C_9
REMARK    2  A    between atoms: C_9  and  C_10
REMARK    3  A    between atoms: C_10  and  C_11
REMARK                            x       y       z     vdW  Elec       q    Type
REMARK                         _______ _______ _______ _____ _____    ______ ____
ROOT
ATOM      1  C   UNL A   1     -28.016  -0.814  28.878  0.00  0.00    -0.002 A 
ATOM      2  C   UNL A   1     -28.469  -0.785  29.829  0.00  0.00    -0.001 A 
ATOM      3  C   UNL A   1     -27.087   0.290  28.638  0.00  0.00    +0.004 A 
ATOM      4  C   UNL A   1     -26.252   0.411  27.422  0.00  0.00    +0.137 C 
ATOM      5  C   UNL A   1     -28.391   0.104  30.980  0.00  0.00    -0.004 A 
ATOM      6  C   UNL A   1     -27.533   1.167  30.787  0.00  0.00    -0.021 A 
ATOM      7  C   UNL A   1     -26.828   1.256  29.645  0.00  0.00    -0.006 A 
ATOM      8  C   UNL A   1     -25.644   1.665  27.222  0.00  0.00    +0.032 C 
ATOM      9  C   UNL A   1     -26.673   2.764  27.191  0.00  0.00    +0.005 C 
ATOM     10  O   UNL A   1     -27.088   0.190  26.306  0.00  0.00    -0.354 OA
ATOM     11  C   UNL A   1     -28.014   1.051  26.043  0.00  0.00    +0.116 C 
ATOM     12  C   UNL A   1     -27.560   2.447  26.027  0.00  0.00    +0.030 C 
ATOM     13  C   UNL A   1     -28.859   0.693  24.851  0.00  0.00    +0.032 C 
ATOM     14  C   UNL A   1     -26.676   3.928  27.903  0.00  0.00    +0.005 C 
ATOM     15  C   UNL A   1     -27.303   2.127  31.927  0.00  0.00    +0.050 C 
ATOM     16  C   UNL A   1     -27.291   3.243  31.974  0.00  0.00    +0.117 C 
ATOM     17  N   UNL A   1     -27.721   4.097  31.104  0.00  0.00    -0.236 NA
ATOM     18  C   UNL A   1     -27.285   5.306  30.836  0.00  0.00    +0.075 C 
ATOM     19  C   UNL A   1     -27.719   6.000  29.709  0.00  0.00    -0.009 C 
ATOM     20  C   UNL A   1     -26.889   5.407  28.527  0.00  0.00    +0.027 C 
ENDROOT
BRANCH   8  21
ATOM     21  C   UNL A   1     -24.632   1.737  26.265  0.00  0.00    +0.007 C 
BRANCH  21  22
ATOM     22  C   UNL A   1     -23.701   0.840  26.170  0.00  0.00    +0.026 C 
BRANCH  22  23
ATOM     23  C   UNL A   1     -23.236   0.442  27.198  0.00  0.00    -0.022 A 
ATOM     24  C   UNL A   1     -22.027   1.107  27.801  0.00  0.00    -0.004 A 
ATOM     25  C   UNL A   1     -21.367   0.657  28.921  0.00  0.00    -0.000 A 
ATOM     26  C   UNL A   1     -21.831  -0.513  29.567  0.00  0.00    -0.000 A 
ATOM     27  C   UNL A   1     -22.976  -1.147  29.108  0.00  0.00    -0.000 A 
ATOM     28  C   UNL A   1     -23.668  -0.642  28.026  0.00  0.00    -0.004 A 
ENDBRANCH  22  23
ENDBRANCH  21  22
ENDBRANCH   8  21
TORSDOF 3
