MODEL 1969
MODEL 1
REMARK VINA RESULT:    -7.790      0.000      0.000
REMARK INTER + INTRA:          -7.790
REMARK INTER:                  -7.790
REMARK INTRA:                   0.000
REMARK UNBOUND:                 0.000
REMARK  Name = No_1969-gen_results/8p0m/2024-11-27-11-27-31/
REMARK  0 active torsions:
REMARK  status: ('A' for Active; 'I' for Inactive)
REMARK                            x       y       z     vdW  Elec       q    Type
REMARK                         _______ _______ _______ _____ _____    ______ ____
ROOT
ATOM      1  C   UNL A   1     -24.833  -2.595  28.867  0.00  0.00    +0.017 A 
ATOM      2  C   UNL A   1     -24.126  -3.338  28.623  0.00  0.00    +0.002 A 
ATOM      3  C   UNL A   1     -26.030  -3.048  29.516  0.00  0.00    -0.003 A 
ATOM      4  C   UNL A   1     -26.335  -4.341  29.663  0.00  0.00    -0.022 A 
ATOM      5  C   UNL A   1     -25.391  -5.239  29.248  0.00  0.00    -0.004 A 
ATOM      6  C   UNL A   1     -24.224  -4.780  28.696  0.00  0.00    -0.000 A 
ATOM      7  C   UNL A   1     -27.125  -2.099  30.003  0.00  0.00    -0.000 C 
ATOM      8  C   UNL A   1     -26.702  -1.180  31.001  0.00  0.00    +0.000 C 
ATOM      9  C   UNL A   1     -25.411  -1.107  31.596  0.00  0.00    +0.001 A 
ATOM     10  C   UNL A   1     -25.085  -0.701  32.638  0.00  0.00    +0.000 A 
ATOM     11  C   UNL A   1     -23.699  -0.575  33.132  0.00  0.00    +0.000 A 
ATOM     12  C   UNL A   1     -22.713  -0.743  32.202  0.00  0.00    +0.000 A 
ATOM     13  C   UNL A   1     -23.036  -1.169  30.994  0.00  0.00    +0.003 A 
ATOM     14  C   UNL A   1     -24.346  -1.427  30.655  0.00  0.00    +0.018 A 
ATOM     15  C   UNL A   1     -24.636  -1.779  29.447  0.00  0.00    +0.081 A 
ATOM     16  N   UNL A   1     -24.186  -0.714  28.794  0.00  0.00    -0.244 NA
ATOM     17  C   UNL A   1     -22.162  -1.043  29.866  0.00  0.00    +0.021 A 
ATOM     18  C   UNL A   1     -22.861  -0.442  28.948  0.00  0.00    +0.099 A 
ATOM     19  C   UNL A   1     -27.584  -4.858  30.213  0.00  0.00    +0.031 C 
ENDROOT
TORSDOF 0
ENDMDL
ENDMDL
