MODEL 196
MODEL 1
REMARK VINA RESULT:    -4.274      0.000      0.000
REMARK INTER + INTRA:          -4.274
REMARK INTER:                  -4.274
REMARK INTRA:                   0.000
REMARK UNBOUND:                 0.000
REMARK  Name = No_196-gen_results/8p0m/2024-11-27-11-27-31/
REMARK  0 active torsions:
REMARK  status: ('A' for Active; 'I' for Inactive)
REMARK                            x       y       z     vdW  Elec       q    Type
REMARK                         _______ _______ _______ _____ _____    ______ ____
ROOT
ATOM      1  C   UNL A   1     -24.002  -3.300  28.809  0.00  0.00    +0.000 A 
ATOM      2  C   UNL A   1     -23.968  -4.484  28.566  0.00  0.00    +0.000 A 
ATOM      3  C   UNL A   1     -24.952  -5.373  28.954  0.00  0.00    +0.000 A 
ATOM      4  C   UNL A   1     -26.085  -4.854  29.642  0.00  0.00    +0.000 A 
ATOM      5  C   UNL A   1     -26.157  -3.506  29.739  0.00  0.00    +0.000 A 
ATOM      6  C   UNL A   1     -25.185  -2.729  29.302  0.00  0.00    +0.000 A 
ENDROOT
TORSDOF 0
ENDMDL
ENDMDL
