REMARK  Name = outputs/IAG933/test6/raw/output_197_IAG933_linker_design_.xyz
REMARK  6 active torsions:
REMARK  status: ('A' for Active; 'I' for Inactive)
REMARK    1  A    between atoms: C_1  and  C_2
REMARK    2  A    between atoms: C_13  and  C_29
REMARK    3  A    between atoms: C_14  and  C_15
REMARK    4  A    between atoms: C_21  and  O_22
REMARK    5  A    between atoms: O_22  and  C_23
REMARK    6  A    between atoms: C_23  and  C_24
REMARK                            x       y       z     vdW  Elec       q    Type
REMARK                         _______ _______ _______ _____ _____    ______ ____
ROOT
ATOM      1  C   UNL A   1     -24.855  -1.012  30.143  0.00  0.00    +0.115 C 
ATOM      2  C   UNL A   1     -25.387  -0.679  31.571  0.00  0.00    +0.085 C 
ATOM      3  C   UNL A   1     -25.189   0.773  32.028  0.00  0.00    +0.018 C 
ATOM      4  C   UNL A   1     -25.336   0.684  33.544  0.00  0.00    +0.020 C 
ATOM      5  C   UNL A   1     -24.829  -0.715  33.905  0.00  0.00    +0.089 C 
ATOM      6  N   UNL A   1     -24.758  -1.481  32.646  0.00  0.00    -0.219 NA
ATOM      7  C   UNL A   1     -22.341   1.962  27.877  0.00  0.00    +0.149 C 
ATOM      8  C   UNL A   1     -24.563   1.312  27.178  0.00  0.00    +0.118 C 
ATOM      9  C   UNL A   1     -23.105   1.693  30.445  0.00  0.00    +0.021 C 
ATOM     10  C   UNL A   1     -23.052   1.064  29.015  0.00  0.00    +0.089 C 
ATOM     11  C   UNL A   1     -21.792  -0.037  29.098  0.00  0.00    +0.053 C 
ATOM     12  C   UNL A   1     -24.486   1.675  31.150  0.00  0.00    +0.003 C 
ATOM     13  N   UNL A   1     -24.475   0.810  28.483  0.00  0.00    -0.277 N 
ATOM     14  C   UNL A   1     -20.512   0.517  28.448  0.00  0.00    +0.144 C 
ATOM     15  O   UNL A   1     -26.544  -0.384  28.666  0.00  0.00    -0.275 OA
ATOM     16  C   UNL A   1     -25.389  -0.209  29.044  0.00  0.00    +0.231 C 
ATOM     17  O   UNL A   1     -20.965   1.558  27.531  0.00  0.00    -0.353 OA
ATOM     18  C   UNL A   1     -23.241   1.567  26.630  0.00  0.00    +0.131 C 
ATOM     19 CL   UNL A   1     -22.823   2.238  25.131  0.00  0.00    -0.110 Cl
ENDROOT
BRANCH   8  20
ATOM     20  C   UNL A   1     -25.688   1.614  26.461  0.00  0.00    +0.035 C 
ATOM     21  C   UNL A   1     -26.250   2.920  26.395  0.00  0.00    +0.074 C 
ATOM     22  C   UNL A   1     -27.438   3.091  25.645  0.00  0.00    +0.106 C 
ATOM     23  N   UNL A   1     -28.075   2.089  25.003  0.00  0.00    -0.208 NA
ATOM     24  C   UNL A   1     -27.543   0.849  25.079  0.00  0.00    +0.253 C 
ATOM     25  C   UNL A   1     -26.354   0.576  25.777  0.00  0.00    +0.191 C 
ATOM     26  F   UNL A   1     -25.860  -0.681  25.795  0.00  0.00    -0.200 F 
BRANCH  21  27
ATOM     27  C   UNL A   1     -25.642   4.093  27.123  0.00  0.00    +0.266 C 
ATOM     28  N   UNL A   1     -25.614   5.252  26.449  0.00  0.00    -0.200 NA
ATOM     29  C   UNL A   1     -25.026   6.479  26.963  0.00  0.00    +0.139 C 
ATOM     30  O   UNL A   1     -25.143   3.966  28.243  0.00  0.00    -0.268 OA
ENDBRANCH  21  27
BRANCH  24  31
ATOM     31  O   UNL A   1     -28.193  -0.208  24.477  0.00  0.00    -0.456 OA
BRANCH  31  32
ATOM     32  C   UNL A   1     -29.460   0.005  23.866  0.00  0.00    +0.243 C 
BRANCH  32  33
ATOM     33  C   UNL A   1     -30.065  -1.377  23.573  0.00  0.00    +0.229 C 
ATOM     34  O   UNL A   1     -30.729  -1.878  24.721  0.00  0.00    -0.216 OA
ENDBRANCH  32  33
ENDBRANCH  31  32
ENDBRANCH  24  31
ENDBRANCH   8  20
BRANCH   1  35
ATOM     35  C   UNL A   1     -24.973  -2.505  29.788  0.00  0.00    -0.013 C 
ATOM     36  C   UNL A   1     -23.906  -3.173  29.146  0.00  0.00    -0.004 C 
ATOM     37  C   UNL A   1     -23.989  -4.549  28.853  0.00  0.00    -0.000 C 
ATOM     38  C   UNL A   1     -25.137  -5.280  29.205  0.00  0.00    -0.000 C 
ATOM     39  C   UNL A   1     -26.232  -4.611  29.784  0.00  0.00    -0.000 C 
ATOM     40  C   UNL A   1     -26.155  -3.232  30.065  0.00  0.00    -0.004 C 
ENDBRANCH   1  35
TORSDOF 6
