REMARK  Name = No_1970-gen_results/8p0m/2024-11-27-11-27-31/
REMARK  10 active torsions:
REMARK  status: ('A' for Active; 'I' for Inactive)
REMARK    1  A    between atoms: C_2  and  C_19
REMARK    2  A    between atoms: C_4  and  C_6
REMARK    3  A    between atoms: C_6  and  C_8
REMARK    4  A    between atoms: C_8  and  C_9
REMARK    5  A    between atoms: C_8  and  C_18
REMARK    6  A    between atoms: C_9  and  C_11
REMARK    7  A    between atoms: C_13  and  C_23
REMARK    8  A    between atoms: C_23  and  O_25
REMARK    9  A    between atoms: O_25  and  C_28
REMARK   10  A    between atoms: C_30  and  C_34
REMARK                            x       y       z     vdW  Elec       q    Type
REMARK                         _______ _______ _______ _____ _____    ______ ____
ROOT
ATOM      1  C   UNL A   1     -23.259   0.753  28.729  0.00  0.00    -0.011 C 
ATOM      2  C   UNL A   1     -21.884   0.597  28.635  0.00  0.00    -0.004 C 
ENDROOT
BRANCH   1   3
ATOM      3  C   UNL A   1     -23.847   1.770  27.940  0.00  0.00    -0.003 A 
ATOM      4  C   UNL A   1     -25.123   2.280  28.156  0.00  0.00    +0.006 A 
ATOM      5  C   UNL A   1     -25.661   3.224  27.302  0.00  0.00    +0.076 A 
ATOM      6  C   UNL A   1     -24.994   3.485  26.119  0.00  0.00    +0.006 A 
ATOM      7  C   UNL A   1     -23.774   2.954  25.802  0.00  0.00    +0.000 A 
ATOM      8  C   UNL A   1     -23.137   2.107  26.680  0.00  0.00    -0.000 A 
BRANCH   5   9
ATOM      9  C   UNL A   1     -26.995   3.798  27.542  0.00  0.00    +0.346 C 
ATOM     10  O   UNL A   1     -27.113   4.814  28.032  0.00  0.00    -0.244 OA
BRANCH   9  11
ATOM     11  O   UNL A   1     -27.929   2.859  27.613  0.00  0.00    -0.421 OA
BRANCH  11  12
ATOM     12  C   UNL A   1     -29.285   3.300  27.348  0.00  0.00    +0.148 A 
ATOM     13  C   UNL A   1     -30.030   2.213  26.850  0.00  0.00    +0.033 A 
ATOM     14  C   UNL A   1     -30.617   2.482  25.642  0.00  0.00    -0.019 A 
ATOM     15  C   UNL A   1     -30.962   3.740  25.535  0.00  0.00    -0.004 A 
ATOM     16  C   UNL A   1     -30.837   4.542  26.380  0.00  0.00    +0.003 A 
ATOM     17  C   UNL A   1     -29.748   4.504  27.395  0.00  0.00    +0.038 A 
BRANCH  14  18
ATOM     18  C   UNL A   1     -31.208   1.407  24.857  0.00  0.00    +0.026 C 
ATOM     19  C   UNL A   1     -30.549   0.218  24.996  0.00  0.00    +0.005 C 
ENDBRANCH  14  18
ENDBRANCH  11  12
ENDBRANCH   9  11
ENDBRANCH   5   9
ENDBRANCH   1   3
BRANCH   1  20
ATOM     20  C   UNL A   1     -23.796   0.436  29.909  0.00  0.00    +0.130 C 
BRANCH  20  21
ATOM     21  C   UNL A   1     -23.894   1.356  31.057  0.00  0.00    +0.369 C 
ATOM     22  O   UNL A   1     -23.473   2.574  30.921  0.00  0.00    -0.245 OA
ATOM     23  O   UNL A   1     -24.360   0.994  32.157  0.00  0.00    -0.245 OA
ENDBRANCH  20  21
BRANCH  20  24
ATOM     24  C   UNL A   1     -24.398  -0.836  30.177  0.00  0.00    +0.044 C 
BRANCH  24  28
ATOM     25  C   UNL A   1     -28.016  -0.814  28.878  0.00  0.00    +0.033 A 
ATOM     26  C   UNL A   1     -28.469  -0.785  29.829  0.00  0.00    +0.074 A 
ATOM     27  C   UNL A   1     -26.504  -0.778  28.877  0.00  0.00    +0.136 A 
ATOM     28  C   UNL A   1     -25.810  -0.853  30.103  0.00  0.00    +0.006 A 
ATOM     29  C   UNL A   1     -27.991  -0.892  31.226  0.00  0.00    +0.004 A 
ATOM     30  C   UNL A   1     -26.575  -0.890  31.266  0.00  0.00    -0.002 A 
ATOM     31  F   UNL A   1     -25.816  -0.757  27.781  0.00  0.00    -0.204 F 
BRANCH  26  32
ATOM     32  C   UNL A   1     -30.096  -0.742  29.815  0.00  0.00    +0.419 C 
ATOM     33  F   UNL A   1     -30.370  -0.512  28.753  0.00  0.00    -0.166 F 
ATOM     34  F   UNL A   1     -30.485   0.221  30.665  0.00  0.00    -0.166 F 
ATOM     35  F   UNL A   1     -30.577  -1.897  30.237  0.00  0.00    -0.166 F 
ENDBRANCH  26  32
ENDBRANCH  24  28
ENDBRANCH  20  24
ENDBRANCH   1  20
TORSDOF 10
