MODEL 1970
MODEL 1
REMARK VINA RESULT:    -6.483      0.000      0.000
REMARK INTER + INTRA:         -15.344
REMARK INTER:                 -10.272
REMARK INTRA:                  -5.072
REMARK UNBOUND:                -5.072
REMARK  Name = No_1970-gen_results/8p0m/2024-11-27-11-27-31/
REMARK  10 active torsions:
REMARK  status: ('A' for Active; 'I' for Inactive)
REMARK    1  A    between atoms: C_2  and  C_19
REMARK    2  A    between atoms: C_4  and  C_6
REMARK    3  A    between atoms: C_6  and  C_8
REMARK    4  A    between atoms: C_8  and  C_9
REMARK    5  A    between atoms: C_8  and  C_18
REMARK    6  A    between atoms: C_9  and  C_11
REMARK    7  A    between atoms: C_13  and  C_23
REMARK    8  A    between atoms: C_23  and  O_25
REMARK    9  A    between atoms: O_25  and  C_28
REMARK   10  A    between atoms: C_30  and  C_34
REMARK                            x       y       z     vdW  Elec       q    Type
REMARK                         _______ _______ _______ _____ _____    ______ ____
ROOT
ATOM      1  C   UNL A   1     -28.368 -14.142   7.367  0.00  0.00    -0.011 C 
ATOM      2  C   UNL A   1     -28.142 -13.864   6.027  0.00  0.00    -0.004 C 
ENDROOT
BRANCH   1   3
ATOM      3  C   UNL A   1     -28.251 -13.065   8.277  0.00  0.00    -0.003 A 
ATOM      4  C   UNL A   1     -28.966 -12.973   9.466  0.00  0.00    +0.006 A 
ATOM      5  C   UNL A   1     -28.854 -11.857  10.274  0.00  0.00    +0.076 A 
ATOM      6  C   UNL A   1     -28.190 -10.754   9.769  0.00  0.00    +0.006 A 
ATOM      7  C   UNL A   1     -27.535 -10.746   8.569  0.00  0.00    +0.000 A 
ATOM      8  C   UNL A   1     -27.509 -11.877   7.785  0.00  0.00    -0.000 A 
BRANCH   5   9
ATOM      9  C   UNL A   1     -29.577 -11.765  11.553  0.00  0.00    +0.346 C 
ATOM     10  O   UNL A   1     -29.041 -11.930  12.539  0.00  0.00    -0.244 OA
BRANCH   9  11
ATOM     11  O   UNL A   1     -30.876 -11.986  11.401  0.00  0.00    -0.421 OA
BRANCH  11  12
ATOM     12  C   UNL A   1     -31.615 -10.945  10.713  0.00  0.00    +0.148 A 
ATOM     13  C   UNL A   1     -32.328 -11.521   9.644  0.00  0.00    +0.033 A 
ATOM     14  C   UNL A   1     -32.047 -10.930   8.440  0.00  0.00    -0.019 A 
ATOM     15  C   UNL A   1     -31.791  -9.653   8.570  0.00  0.00    -0.004 A 
ATOM     16  C   UNL A   1     -31.840  -9.060   9.580  0.00  0.00    +0.003 A 
ATOM     17  C   UNL A   1     -31.550  -9.670  10.907  0.00  0.00    +0.038 A 
BRANCH  14  18
ATOM     18  C   UNL A   1     -32.487 -11.548   7.197  0.00  0.00    +0.026 C 
ATOM     19  C   UNL A   1     -31.485 -12.208   6.543  0.00  0.00    +0.005 C 
ENDBRANCH  14  18
ENDBRANCH  11  12
ENDBRANCH   9  11
ENDBRANCH   5   9
ENDBRANCH   1   3
BRANCH   1  20
ATOM     20  C   UNL A   1     -28.054 -15.379   7.760  0.00  0.00    +0.130 C 
BRANCH  20  21
ATOM     21  C   UNL A   1     -26.692 -15.826   8.104  0.00  0.00    +0.369 C 
ATOM     22  O   UNL A   1     -26.525 -16.577   9.147  0.00  0.00    -0.245 OA
ATOM     23  O   UNL A   1     -25.697 -15.495   7.428  0.00  0.00    -0.245 OA
ENDBRANCH  20  21
BRANCH  20  24
ATOM     24  C   UNL A   1     -29.031 -16.410   7.948  0.00  0.00    +0.044 C 
BRANCH  24  28
ATOM     25  C   UNL A   1     -31.729 -15.353  10.474  0.00  0.00    +0.033 A 
ATOM     26  C   UNL A   1     -32.505 -15.263   9.767  0.00  0.00    +0.074 A 
ATOM     27  C   UNL A   1     -30.403 -15.829   9.926  0.00  0.00    +0.136 A 
ATOM     28  C   UNL A   1     -30.245 -15.979   8.532  0.00  0.00    +0.006 A 
ATOM     29  C   UNL A   1     -32.596 -15.321   8.291  0.00  0.00    +0.004 A 
ATOM     30  C   UNL A   1     -31.361 -15.738   7.735  0.00  0.00    -0.002 A 
ATOM     31  F   UNL A   1     -29.376 -16.034  10.687  0.00  0.00    -0.204 F 
BRANCH  26  32
ATOM     32  C   UNL A   1     -33.949 -14.828  10.382  0.00  0.00    +0.419 C 
ATOM     33  F   UNL A   1     -34.545 -14.478   9.500  0.00  0.00    -0.166 F 
ATOM     34  F   UNL A   1     -33.732 -13.850  11.275  0.00  0.00    -0.166 F 
ATOM     35  F   UNL A   1     -34.497 -15.855  11.004  0.00  0.00    -0.166 F 
ENDBRANCH  26  32
ENDBRANCH  24  28
ENDBRANCH  20  24
ENDBRANCH   1  20
TORSDOF 10
ENDMDL
ENDMDL
