MODEL 1971
MODEL 1
REMARK VINA RESULT:    -7.297      0.000      0.000
REMARK INTER + INTRA:         -14.630
REMARK INTER:                 -11.136
REMARK INTRA:                  -3.494
REMARK UNBOUND:                -3.494
REMARK  Name = No_1971-gen_results/8p0m/2024-11-27-11-27-31/
REMARK  9 active torsions:
REMARK  status: ('A' for Active; 'I' for Inactive)
REMARK    1  A    between atoms: C_1  and  C_6
REMARK    2  A    between atoms: C_3  and  C_13
REMARK    3  A    between atoms: C_5  and  C_10
REMARK    4  A    between atoms: C_6  and  O_9
REMARK    5  A    between atoms: O_9  and  C_19
REMARK    6  A    between atoms: C_10  and  O_12
REMARK    7  A    between atoms: O_12  and  C_26
REMARK    8  A    between atoms: C_26  and  C_27
REMARK    9  A    between atoms: C_27  and  C_28
REMARK                            x       y       z     vdW  Elec       q    Type
REMARK                         _______ _______ _______ _____ _____    ______ ____
ROOT
ATOM      1  C   UNL A   1      -7.967   1.127  36.655  0.00  0.00    +0.076 A 
ATOM      2  C   UNL A   1      -8.692   0.392  37.284  0.00  0.00    +0.009 A 
ATOM      3  C   UNL A   1     -10.047   0.222  37.056  0.00  0.00    +0.028 A 
ATOM      4  C   UNL A   1     -10.619   0.952  35.973  0.00  0.00    +0.146 A 
ATOM      5  C   UNL A   1      -9.755   1.643  35.201  0.00  0.00    +0.103 A 
ATOM      6  C   UNL A   1      -8.471   1.703  35.516  0.00  0.00    +0.015 A 
ATOM      7  F   UNL A   1     -11.880   0.781  35.700  0.00  0.00    -0.204 F 
ENDROOT
BRANCH   3   8
ATOM      8  C   UNL A   1     -10.978  -0.560  37.955  0.00  0.00    +0.002 A 
ATOM      9  C   UNL A   1     -11.344  -1.852  37.490  0.00  0.00    +0.000 A 
ATOM     10  C   UNL A   1     -11.796  -2.796  37.872  0.00  0.00    +0.000 A 
ATOM     11  C   UNL A   1     -12.113  -2.689  39.349  0.00  0.00    +0.000 A 
ATOM     12  C   UNL A   1     -11.832  -1.390  39.958  0.00  0.00    +0.000 A 
ATOM     13  C   UNL A   1     -11.174  -0.383  39.294  0.00  0.00    +0.000 A 
ENDBRANCH   3   8
BRANCH   1  14
ATOM     14  C   UNL A   1      -6.559   1.170  36.943  0.00  0.00    +0.346 C 
ATOM     15  O   UNL A   1      -6.038   1.041  37.856  0.00  0.00    -0.244 OA
BRANCH  14  16
ATOM     16  O   UNL A   1      -5.755   1.130  35.768  0.00  0.00    -0.421 OA
BRANCH  16  17
ATOM     17  C   UNL A   1      -5.252  -0.029  35.374  0.00  0.00    +0.149 A 
ATOM     18  C   UNL A   1      -4.266  -0.402  35.393  0.00  0.00    +0.038 A 
ATOM     19  C   UNL A   1      -3.855  -1.750  34.922  0.00  0.00    +0.003 A 
ATOM     20  C   UNL A   1      -4.897  -2.548  34.330  0.00  0.00    +0.000 A 
ATOM     21  C   UNL A   1      -6.353  -0.986  34.801  0.00  0.00    +0.038 A 
ATOM     22  C   UNL A   1      -6.147  -2.157  34.380  0.00  0.00    +0.003 A 
ENDBRANCH  16  17
ENDBRANCH  14  16
ENDBRANCH   1  14
BRANCH   5  23
ATOM     23  C   UNL A   1     -10.138   2.368  33.977  0.00  0.00    +0.343 C 
ATOM     24  O   UNL A   1     -10.001   1.923  33.028  0.00  0.00    -0.245 OA
BRANCH  23  25
ATOM     25  O   UNL A   1     -10.726   3.511  34.106  0.00  0.00    -0.445 OA
BRANCH  25  26
ATOM     26  C   UNL A   1     -10.309   4.469  34.971  0.00  0.00    +0.213 C 
BRANCH  26  27
ATOM     27  C   UNL A   1     -11.148   5.081  35.739  0.00  0.00    +0.074 C 
BRANCH  27  28
ATOM     28  C   UNL A   1     -11.945   4.263  36.549  0.00  0.00    -0.018 A 
ATOM     29  C   UNL A   1     -12.967   3.831  36.564  0.00  0.00    -0.004 A 
ATOM     30  C   UNL A   1     -13.751   2.965  37.496  0.00  0.00    -0.000 A 
ATOM     31  C   UNL A   1     -13.054   2.634  38.664  0.00  0.00    -0.000 A 
ATOM     32  C   UNL A   1     -11.763   3.119  38.815  0.00  0.00    -0.000 A 
ATOM     33  C   UNL A   1     -11.182   3.928  37.868  0.00  0.00    -0.004 A 
ENDBRANCH  27  28
ENDBRANCH  26  27
ENDBRANCH  25  26
ENDBRANCH  23  25
ENDBRANCH   5  23
TORSDOF 9
ENDMDL
ENDMDL
