REMARK  Name = outputs/IAG933/test6/raw/output_1972_IAG933_linker_design_.xyz
REMARK  8 active torsions:
REMARK  status: ('A' for Active; 'I' for Inactive)
REMARK    1  A    between atoms: C_1  and  C_2
REMARK    2  A    between atoms: C_1  and  C_8
REMARK    3  A    between atoms: C_1  and  N_38
REMARK    4  A    between atoms: C_13  and  N_32
REMARK    5  A    between atoms: C_14  and  C_15
REMARK    6  A    between atoms: C_21  and  O_22
REMARK    7  A    between atoms: O_22  and  C_23
REMARK    8  A    between atoms: C_23  and  C_24
REMARK                            x       y       z     vdW  Elec       q    Type
REMARK                         _______ _______ _______ _____ _____    ______ ____
ROOT
ATOM      1  O   UNL A   1     -27.150   1.352  28.909  0.00  0.00    -0.205 OA
ATOM      2  O   UNL A   1     -23.127   2.166  24.951  0.00  0.00    -0.243 OA
ATOM      3  C   UNL A   1     -24.260   0.513  28.472  0.00  0.00    +0.387 C 
ATOM      4  C   UNL A   1     -21.628   0.430  29.036  0.00  0.00    +0.215 C 
ATOM      5  N   UNL A   1     -24.350   1.355  27.213  0.00  0.00    -0.165 N 
ATOM      6  C   UNL A   1     -22.201   1.531  25.790  0.00  0.00    +0.389 C 
ATOM      7  O   UNL A   1     -27.625  -0.714  28.682  0.00  0.00    -0.205 OA
ATOM      8  C   UNL A   1     -26.750   0.118  28.871  0.00  0.00    +0.512 C 
ATOM      9  C   UNL A   1     -22.850   1.405  27.053  0.00  0.00    +0.274 C 
ATOM     10  N   UNL A   1     -23.060   0.181  29.326  0.00  0.00    -0.101 NA
ATOM     11  N   UNL A   1     -25.384  -0.146  29.163  0.00  0.00    -0.107 N 
ATOM     12  C   UNL A   1     -21.735   1.282  27.870  0.00  0.00    +0.249 C 
ATOM     13  O   UNL A   1     -20.428   1.440  27.086  0.00  0.00    -0.165 OA
ATOM     14  C   UNL A   1     -20.841  -0.398  28.688  0.00  0.00    +0.050 C 
ATOM     15  O   UNL A   1     -20.828   1.605  25.720  0.00  0.00    -0.292 OA
ENDROOT
BRANCH   5  16
ATOM     16  C   UNL A   1     -25.688   1.614  26.461  0.00  0.00    +0.150 C 
ATOM     17  C   UNL A   1     -26.250   2.920  26.395  0.00  0.00    +0.105 C 
ATOM     18  C   UNL A   1     -27.438   3.091  25.645  0.00  0.00    +0.109 C 
ATOM     19  N   UNL A   1     -28.075   2.089  25.003  0.00  0.00    -0.208 NA
ATOM     20  C   UNL A   1     -27.543   0.849  25.079  0.00  0.00    +0.256 C 
ATOM     21  C   UNL A   1     -26.354   0.576  25.777  0.00  0.00    +0.222 C 
ATOM     22  F   UNL A   1     -25.860  -0.681  25.795  0.00  0.00    -0.196 F 
BRANCH  17  23
ATOM     23  C   UNL A   1     -25.642   4.093  27.123  0.00  0.00    +0.269 C 
ATOM     24  N   UNL A   1     -25.614   5.252  26.449  0.00  0.00    -0.200 NA
ATOM     25  C   UNL A   1     -25.026   6.479  26.963  0.00  0.00    +0.139 C 
ATOM     26  O   UNL A   1     -25.143   3.966  28.243  0.00  0.00    -0.268 OA
ENDBRANCH  17  23
BRANCH  20  27
ATOM     27  O   UNL A   1     -28.193  -0.208  24.477  0.00  0.00    -0.456 OA
BRANCH  27  28
ATOM     28  C   UNL A   1     -29.460   0.005  23.866  0.00  0.00    +0.243 C 
BRANCH  28  29
ATOM     29  C   UNL A   1     -30.065  -1.377  23.573  0.00  0.00    +0.229 C 
ATOM     30  O   UNL A   1     -30.729  -1.878  24.721  0.00  0.00    -0.216 OA
ENDBRANCH  28  29
ENDBRANCH  27  28
ENDBRANCH  20  27
ENDBRANCH   5  16
BRANCH  11  31
ATOM     31  C   UNL A   1     -24.855  -1.012  30.143  0.00  0.00    +0.183 C 
BRANCH  31  32
ATOM     32  C   UNL A   1     -24.973  -2.505  29.788  0.00  0.00    +0.013 C 
ATOM     33  C   UNL A   1     -23.906  -3.173  29.146  0.00  0.00    -0.001 C 
ATOM     34  C   UNL A   1     -23.989  -4.549  28.853  0.00  0.00    -0.000 C 
ATOM     35  C   UNL A   1     -25.137  -5.280  29.205  0.00  0.00    -0.000 C 
ATOM     36  C   UNL A   1     -26.232  -4.611  29.784  0.00  0.00    -0.000 C 
ATOM     37  C   UNL A   1     -26.155  -3.232  30.065  0.00  0.00    -0.001 C 
ENDBRANCH  31  32
BRANCH  31  38
ATOM     38  C   UNL A   1     -25.387  -0.679  31.571  0.00  0.00    +0.112 C 
ATOM     39  C   UNL A   1     -25.189   0.773  32.028  0.00  0.00    +0.022 C 
ATOM     40  C   UNL A   1     -25.336   0.684  33.544  0.00  0.00    +0.020 C 
ATOM     41  C   UNL A   1     -24.829  -0.715  33.905  0.00  0.00    +0.089 C 
ATOM     42  N   UNL A   1     -24.758  -1.481  32.646  0.00  0.00    -0.216 NA
ENDBRANCH  31  38
ENDBRANCH  11  31
TORSDOF 8
