REMARK  Name = outputs/IAG933/test6/raw/output_1973_IAG933_linker_design_.xyz
REMARK  12 active torsions:
REMARK  status: ('A' for Active; 'I' for Inactive)
REMARK    1  A    between atoms: C_1  and  C_2
REMARK    2  A    between atoms: C_1  and  C_8
REMARK    3  A    between atoms: C_1  and  N_36
REMARK    4  A    between atoms: C_13  and  C_40
REMARK    5  A    between atoms: C_14  and  C_15
REMARK    6  A    between atoms: C_21  and  O_22
REMARK    7  A    between atoms: O_22  and  C_23
REMARK    8  A    between atoms: C_23  and  C_24
REMARK    9  A    between atoms: C_28  and  S_35
REMARK   10  A    between atoms: C_32  and  C_37
REMARK   11  A    between atoms: N_36  and  C_38
REMARK   12  A    between atoms: N_36  and  C_41
REMARK                            x       y       z     vdW  Elec       q    Type
REMARK                         _______ _______ _______ _____ _____    ______ ____
ROOT
ATOM      1  S   UNL A   1     -22.625   0.892  29.262  0.00  0.00    -0.111 S 
ATOM      2  C   UNL A   1     -23.048   1.656  26.782  0.00  0.00    +0.056 C 
ATOM      3  C   UNL A   1     -24.253   0.617  28.575  0.00  0.00    +0.145 C 
ATOM      4  C   UNL A   1     -21.949   1.573  27.702  0.00  0.00    +0.096 C 
ATOM      5  C   UNL A   1     -24.456   1.272  27.264  0.00  0.00    +0.015 C 
ENDROOT
BRANCH   5   6
ATOM      6  C   UNL A   1     -25.688   1.614  26.461  0.00  0.00    +0.037 C 
ATOM      7  C   UNL A   1     -26.250   2.920  26.395  0.00  0.00    +0.076 C 
ATOM      8  C   UNL A   1     -27.438   3.091  25.645  0.00  0.00    +0.107 C 
ATOM      9  N   UNL A   1     -28.075   2.089  25.003  0.00  0.00    -0.208 NA
ATOM     10  C   UNL A   1     -27.543   0.849  25.079  0.00  0.00    +0.253 C 
ATOM     11  C   UNL A   1     -26.354   0.576  25.777  0.00  0.00    +0.193 C 
ATOM     12  F   UNL A   1     -25.860  -0.681  25.795  0.00  0.00    -0.199 F 
BRANCH   7  13
ATOM     13  C   UNL A   1     -25.642   4.093  27.123  0.00  0.00    +0.266 C 
ATOM     14  N   UNL A   1     -25.614   5.252  26.449  0.00  0.00    -0.200 NA
ATOM     15  C   UNL A   1     -25.026   6.479  26.963  0.00  0.00    +0.139 C 
ATOM     16  O   UNL A   1     -25.143   3.966  28.243  0.00  0.00    -0.268 OA
ENDBRANCH   7  13
BRANCH  10  17
ATOM     17  O   UNL A   1     -28.193  -0.208  24.477  0.00  0.00    -0.456 OA
BRANCH  17  18
ATOM     18  C   UNL A   1     -29.460   0.005  23.866  0.00  0.00    +0.243 C 
BRANCH  18  19
ATOM     19  C   UNL A   1     -30.065  -1.377  23.573  0.00  0.00    +0.229 C 
ATOM     20  O   UNL A   1     -30.729  -1.878  24.721  0.00  0.00    -0.216 OA
ENDBRANCH  18  19
ENDBRANCH  17  18
ENDBRANCH  10  17
ENDBRANCH   5   6
BRANCH   2  21
ATOM     21  C   UNL A   1     -22.907   2.167  25.769  0.00  0.00    +0.097 C 
ATOM     22  N   UNL A   1     -22.841   2.711  24.772  0.00  0.00    -0.191 NA
ENDBRANCH   2  21
BRANCH   3  23
ATOM     23  N   UNL A   1     -25.016  -0.276  29.068  0.00  0.00    -0.291 N 
BRANCH  23  25
ATOM     24  C   UNL A   1     -27.682   0.075  29.246  0.00  0.00    +0.139 C 
ATOM     25  C   UNL A   1     -26.442  -0.440  28.453  0.00  0.00    +0.082 C 
BRANCH  24  29
ATOM     26  O   UNL A   1     -29.815  -1.151  30.043  0.00  0.00    -0.169 OA
ATOM     27  C   UNL A   1     -29.803   1.365  29.720  0.00  0.00    +0.182 C 
ATOM     28  O   UNL A   1     -29.589  -0.465  27.779  0.00  0.00    -0.169 OA
ATOM     29  S   UNL A   1     -29.215  -0.178  29.146  0.00  0.00    +0.013 S 
ENDBRANCH  24  29
ENDBRANCH  23  25
BRANCH  23  30
ATOM     30  C   UNL A   1     -24.855  -1.012  30.143  0.00  0.00    +0.112 C 
BRANCH  30  31
ATOM     31  C   UNL A   1     -24.973  -2.505  29.788  0.00  0.00    -0.003 C 
ATOM     32  C   UNL A   1     -23.906  -3.173  29.146  0.00  0.00    -0.003 C 
ATOM     33  C   UNL A   1     -23.989  -4.549  28.853  0.00  0.00    -0.000 C 
ATOM     34  C   UNL A   1     -25.137  -5.280  29.205  0.00  0.00    -0.000 C 
ATOM     35  C   UNL A   1     -26.232  -4.611  29.784  0.00  0.00    -0.000 C 
ATOM     36  C   UNL A   1     -26.155  -3.232  30.065  0.00  0.00    -0.003 C 
ENDBRANCH  30  31
BRANCH  30  37
ATOM     37  C   UNL A   1     -25.387  -0.679  31.571  0.00  0.00    +0.095 C 
ATOM     38  C   UNL A   1     -25.189   0.773  32.028  0.00  0.00    +0.021 C 
ATOM     39  C   UNL A   1     -25.336   0.684  33.544  0.00  0.00    +0.020 C 
ATOM     40  C   UNL A   1     -24.829  -0.715  33.905  0.00  0.00    +0.089 C 
ATOM     41  N   UNL A   1     -24.758  -1.481  32.646  0.00  0.00    -0.217 NA
ENDBRANCH  30  37
ENDBRANCH  23  30
ENDBRANCH   3  23
TORSDOF 12
