MODEL 1973
MODEL 1
REMARK VINA RESULT:    -4.336      0.000      0.000
REMARK INTER + INTRA:          -4.336
REMARK INTER:                  -4.336
REMARK INTRA:                   0.000
REMARK UNBOUND:                 0.000
REMARK  Name = No_1973-gen_results/8p0m/2024-11-27-11-27-31/
REMARK  0 active torsions:
REMARK  status: ('A' for Active; 'I' for Inactive)
REMARK                            x       y       z     vdW  Elec       q    Type
REMARK                         _______ _______ _______ _____ _____    ______ ____
ROOT
ATOM      1  C   UNL A   1     -24.954  -5.323  29.029  0.00  0.00    +0.000 A 
ATOM      2  C   UNL A   1     -24.192  -4.670  28.707  0.00  0.00    +0.000 A 
ATOM      3  C   UNL A   1     -26.124  -4.630  29.581  0.00  0.00    +0.000 A 
ATOM      4  C   UNL A   1     -26.134  -3.317  29.817  0.00  0.00    +0.000 A 
ATOM      5  C   UNL A   1     -23.972  -3.254  28.870  0.00  0.00    +0.000 A 
ATOM      6  C   UNL A   1     -25.060  -2.631  29.407  0.00  0.00    +0.000 A 
ENDROOT
TORSDOF 0
ENDMDL
ENDMDL
