MODEL 1974
MODEL 1
REMARK VINA RESULT:    -4.847      0.000      0.000
REMARK INTER + INTRA:          -5.170
REMARK INTER:                  -5.130
REMARK INTRA:                  -0.039
REMARK UNBOUND:                -0.039
REMARK  Name = No_1974-gen_results/8p0m/2024-11-27-11-27-31/
REMARK  1 active torsions:
REMARK  status: ('A' for Active; 'I' for Inactive)
REMARK    1  A    between atoms: C_6  and  C_9
REMARK                            x       y       z     vdW  Elec       q    Type
REMARK                         _______ _______ _______ _____ _____    ______ ____
ROOT
ATOM      1  O   UNL A   1     -31.328 -10.464  30.751  0.00  0.00    -0.270 OA
ATOM      2  C   UNL A   1     -30.206 -10.252  30.908  0.00  0.00    +0.274 C 
ATOM      3  C   UNL A   1     -29.236 -10.988  30.257  0.00  0.00    +0.238 C 
ATOM      4  N   UNL A   1     -29.690  -9.299  31.907  0.00  0.00    -0.203 NA
ATOM      5  C   UNL A   1     -28.655 -11.984  30.927  0.00  0.00    +0.051 C 
ATOM      6  C   UNL A   1     -28.170 -11.676  32.319  0.00  0.00    +0.076 C 
ATOM      7  C   UNL A   1     -28.829 -10.362  32.797  0.00  0.00    +0.119 C 
ATOM      8  F   UNL A   1     -29.102 -10.965  28.965  0.00  0.00    -0.227 F 
ENDROOT
BRANCH   6   9
ATOM      9  C   UNL A   1     -27.233 -12.267  33.060  0.00  0.00    +0.253 C 
ATOM     10  N   UNL A   1     -27.190 -12.372  34.192  0.00  0.00    -0.094 NA
ATOM     11  F   UNL A   1     -26.266 -12.829  32.315  0.00  0.00    -0.216 F 
ENDBRANCH   6   9
TORSDOF 1
ENDMDL
ENDMDL
