MODEL 1975
MODEL 1
REMARK VINA RESULT:    -5.326      0.000      0.000
REMARK INTER + INTRA:          -5.782
REMARK INTER:                  -5.637
REMARK INTRA:                  -0.144
REMARK UNBOUND:                -0.144
REMARK  Name = No_1975-gen_results/8p0m/2024-11-27-11-27-31/
REMARK  1 active torsions:
REMARK  status: ('A' for Active; 'I' for Inactive)
REMARK    1  A    between atoms: C_4  and  C_7
REMARK                            x       y       z     vdW  Elec       q    Type
REMARK                         _______ _______ _______ _____ _____    ______ ____
ROOT
ATOM      1  C   UNL A   1     -24.627  -5.248  28.910  0.00  0.00    -0.000 A 
ATOM      2  C   UNL A   1     -25.616  -5.170  29.266  0.00  0.00    -0.000 A 
ATOM      3  C   UNL A   1     -23.911  -3.985  28.670  0.00  0.00    -0.000 A 
ATOM      4  C   UNL A   1     -24.494  -2.739  29.042  0.00  0.00    -0.000 A 
ATOM      5  C   UNL A   1     -26.421  -4.026  29.776  0.00  0.00    -0.000 A 
ATOM      6  C   UNL A   1     -25.793  -2.835  29.561  0.00  0.00    -0.000 A 
ENDROOT
BRANCH   4   7
ATOM      7  C   UNL A   1     -23.840  -1.489  28.841  0.00  0.00    -0.005 C 
ATOM      8  C   UNL A   1     -22.669  -1.217  29.257  0.00  0.00    -0.026 C 
ATOM      9  C   UNL A   1     -21.935  -0.012  28.856  0.00  0.00    +0.031 C 
ENDBRANCH   4   7
TORSDOF 1
ENDMDL
ENDMDL
