REMARK  Name = No_1976-gen_results/8p0m/2024-11-27-11-27-31/
REMARK  13 active torsions:
REMARK  status: ('A' for Active; 'I' for Inactive)
REMARK    1  A    between atoms: C_1  and  C_2
REMARK    2  A    between atoms: C_1  and  O_8
REMARK    3  A    between atoms: C_5  and  C_10
REMARK    4  A    between atoms: O_8  and  C_18
REMARK    5  A    between atoms: N_11  and  C_13
REMARK    6  A    between atoms: C_13  and  C_14
REMARK    7  A    between atoms: C_18  and  C_19
REMARK    8  A    between atoms: C_18  and  C_22
REMARK    9  A    between atoms: C_19  and  O_21
REMARK   10  A    between atoms: O_21  and  C_25
REMARK   11  A    between atoms: C_25  and  C_26
REMARK   12  A    between atoms: C_26  and  O_27
REMARK   13  A    between atoms: C_26  and  C_29
REMARK                            x       y       z     vdW  Elec       q    Type
REMARK                         _______ _______ _______ _____ _____    ______ ____
ROOT
ATOM      1  C   UNL A   1     -28.016  -0.814  28.878  0.00  0.00    +0.342 C 
ATOM      2  O   UNL A   1     -27.918  -1.758  29.846  0.00  0.00    -0.245 OA
ENDROOT
BRANCH   1   3
ATOM      3  C   UNL A   1     -27.064  -0.119  28.608  0.00  0.00    +0.076 A 
ATOM      4  C   UNL A   1     -27.001   0.691  27.491  0.00  0.00    +0.007 A 
ATOM      5  C   UNL A   1     -25.855   1.482  27.083  0.00  0.00    +0.005 A 
ATOM      6  C   UNL A   1     -24.690   1.453  27.881  0.00  0.00    +0.055 A 
ATOM      7  C   UNL A   1     -24.738   0.601  29.042  0.00  0.00    +0.005 A 
ATOM      8  C   UNL A   1     -25.823  -0.169  29.389  0.00  0.00    +0.007 A 
BRANCH   6   9
ATOM      9  C   UNL A   1     -23.520   2.207  27.574  0.00  0.00    +0.265 C 
ATOM     10  N   UNL A   1     -22.473   1.759  27.196  0.00  0.00    -0.193 NA
ATOM     11  O   UNL A   1     -23.722   3.504  27.476  0.00  0.00    -0.268 OA
BRANCH  10  12
ATOM     12  C   UNL A   1     -21.841   0.565  27.736  0.00  0.00    +0.218 C 
BRANCH  12  13
ATOM     13  C   UNL A   1     -20.525   0.854  28.431  0.00  0.00    +0.417 C 
ATOM     14  F   UNL A   1     -20.079   1.902  28.396  0.00  0.00    -0.168 F 
ATOM     15  F   UNL A   1     -19.659  -0.050  27.891  0.00  0.00    -0.168 F 
ATOM     16  F   UNL A   1     -20.773   0.271  29.688  0.00  0.00    -0.168 F 
ENDBRANCH  12  13
ENDBRANCH  10  12
ENDBRANCH   6   9
ENDBRANCH   1   3
BRANCH   1  17
ATOM     17  O   UNL A   1     -29.148  -0.319  28.730  0.00  0.00    -0.426 OA
BRANCH  17  18
ATOM     18  C   UNL A   1     -30.339  -0.736  29.462  0.00  0.00    +0.368 C 
BRANCH  18  19
ATOM     19  C   UNL A   1     -30.424   0.259  30.629  0.00  0.00    +0.415 C 
ATOM     20  O   UNL A   1     -29.877  -0.156  31.692  0.00  0.00    -0.241 OA
ATOM     21  O   UNL A   1     -30.977   1.337  30.510  0.00  0.00    -0.241 OA
ENDBRANCH  18  19
BRANCH  18  22
ATOM     22  C   UNL A   1     -31.511  -0.697  28.719  0.00  0.00    +0.369 C 
ATOM     23  O   UNL A   1     -32.248  -1.594  28.737  0.00  0.00    -0.245 OA
BRANCH  22  24
ATOM     24  O   UNL A   1     -31.575   0.146  27.651  0.00  0.00    -0.443 OA
BRANCH  24  25
ATOM     25  C   UNL A   1     -32.318  -0.116  26.518  0.00  0.00    +0.244 C 
BRANCH  25  26
ATOM     26  C   UNL A   1     -31.488   0.033  25.323  0.00  0.00    +0.225 C 
BRANCH  26  27
ATOM     27  C   UNL A   1     -30.631   1.159  25.198  0.00  0.00    +0.349 C 
ATOM     28  F   UNL A   1     -30.492   1.917  26.203  0.00  0.00    -0.196 F 
ATOM     29  F   UNL A   1     -30.810   1.734  24.044  0.00  0.00    -0.196 F 
ENDBRANCH  26  27
BRANCH  26  30
ATOM     30  O   UNL A   1     -31.686  -0.849  24.471  0.00  0.00    -0.344 OA
ATOM     31  C   UNL A   1     -31.811  -1.942  24.375  0.00  0.00    +0.174 C 
ENDBRANCH  26  30
ENDBRANCH  25  26
ENDBRANCH  24  25
ENDBRANCH  22  24
ENDBRANCH  18  22
ENDBRANCH  17  18
ENDBRANCH   1  17
TORSDOF 13
