MODEL 1976
MODEL 1
REMARK VINA RESULT:    -6.766      0.000      0.000
REMARK INTER + INTRA:         -13.251
REMARK INTER:                 -11.908
REMARK INTRA:                  -1.343
REMARK UNBOUND:                -1.343
REMARK  Name = No_1976-gen_results/8p0m/2024-11-27-11-27-31/
REMARK  13 active torsions:
REMARK  status: ('A' for Active; 'I' for Inactive)
REMARK    1  A    between atoms: C_1  and  C_2
REMARK    2  A    between atoms: C_1  and  O_8
REMARK    3  A    between atoms: C_5  and  C_10
REMARK    4  A    between atoms: O_8  and  C_18
REMARK    5  A    between atoms: N_11  and  C_13
REMARK    6  A    between atoms: C_13  and  C_14
REMARK    7  A    between atoms: C_18  and  C_19
REMARK    8  A    between atoms: C_18  and  C_22
REMARK    9  A    between atoms: C_19  and  O_21
REMARK   10  A    between atoms: O_21  and  C_25
REMARK   11  A    between atoms: C_25  and  C_26
REMARK   12  A    between atoms: C_26  and  O_27
REMARK   13  A    between atoms: C_26  and  C_29
REMARK                            x       y       z     vdW  Elec       q    Type
REMARK                         _______ _______ _______ _____ _____    ______ ____
ROOT
ATOM      1  C   UNL A   1     -23.549   1.087  27.002  0.00  0.00    +0.342 C 
ATOM      2  O   UNL A   1     -22.506   1.867  26.627  0.00  0.00    -0.245 OA
ENDROOT
BRANCH   1   3
ATOM      3  C   UNL A   1     -24.593   1.134  26.393  0.00  0.00    +0.076 A 
ATOM      4  C   UNL A   1     -24.968   0.203  25.444  0.00  0.00    +0.007 A 
ATOM      5  C   UNL A   1     -26.170   0.257  24.634  0.00  0.00    +0.005 A 
ATOM      6  C   UNL A   1     -27.062   1.337  24.812  0.00  0.00    +0.055 A 
ATOM      7  C   UNL A   1     -26.676   2.323  25.790  0.00  0.00    +0.005 A 
ATOM      8  C   UNL A   1     -25.512   2.270  26.520  0.00  0.00    +0.007 A 
BRANCH   6   9
ATOM      9  C   UNL A   1     -28.276   1.471  24.077  0.00  0.00    +0.265 C 
ATOM     10  N   UNL A   1     -29.337   1.000  24.379  0.00  0.00    -0.193 NA
ATOM     11  O   UNL A   1     -28.240   2.391  23.136  0.00  0.00    -0.268 OA
BRANCH  10  12
ATOM     12  C   UNL A   1     -29.527  -0.349  24.892  0.00  0.00    +0.218 C 
BRANCH  12  13
ATOM     13  C   UNL A   1     -29.701  -1.381  23.795  0.00  0.00    +0.417 C 
ATOM     14  F   UNL A   1     -28.787  -1.817  23.272  0.00  0.00    -0.168 F 
ATOM     15  F   UNL A   1     -30.519  -0.770  22.891  0.00  0.00    -0.168 F 
ATOM     16  F   UNL A   1     -30.602  -2.262  24.421  0.00  0.00    -0.168 F 
ENDBRANCH  12  13
ENDBRANCH  10  12
ENDBRANCH   6   9
ENDBRANCH   1   3
BRANCH   1  17
ATOM     17  O   UNL A   1     -23.605   0.819  28.215  0.00  0.00    -0.426 OA
BRANCH  17  18
ATOM     18  C   UNL A   1     -23.681  -0.530  28.765  0.00  0.00    +0.368 C 
BRANCH  18  19
ATOM     19  C   UNL A   1     -22.371  -0.684  29.552  0.00  0.00    +0.415 C 
ATOM     20  O   UNL A   1     -21.408  -1.123  28.857  0.00  0.00    -0.241 OA
ATOM     21  O   UNL A   1     -22.300  -0.405  30.735  0.00  0.00    -0.241 OA
ENDBRANCH  18  19
BRANCH  18  22
ATOM     22  C   UNL A   1     -24.766  -0.747  29.603  0.00  0.00    +0.369 C 
ATOM     23  O   UNL A   1     -25.165   0.107  30.281  0.00  0.00    -0.245 OA
BRANCH  22  24
ATOM     24  O   UNL A   1     -25.058  -2.026  29.970  0.00  0.00    -0.443 OA
BRANCH  24  25
ATOM     25  C   UNL A   1     -26.254  -2.649  29.673  0.00  0.00    +0.244 C 
BRANCH  25  26
ATOM     26  C   UNL A   1     -26.070  -4.099  29.623  0.00  0.00    +0.225 C 
BRANCH  26  27
ATOM     27  C   UNL A   1     -24.862  -4.637  29.105  0.00  0.00    +0.349 C 
ATOM     28  F   UNL A   1     -24.286  -4.013  28.166  0.00  0.00    -0.196 F 
ATOM     29  F   UNL A   1     -24.963  -5.929  28.982  0.00  0.00    -0.196 F 
ENDBRANCH  26  27
BRANCH  26  30
ATOM     30  O   UNL A   1     -27.071  -4.736  29.992  0.00  0.00    -0.344 OA
ATOM     31  C   UNL A   1     -28.052  -4.594  30.478  0.00  0.00    +0.174 C 
ENDBRANCH  26  30
ENDBRANCH  25  26
ENDBRANCH  24  25
ENDBRANCH  22  24
ENDBRANCH  18  22
ENDBRANCH  17  18
ENDBRANCH   1  17
TORSDOF 13
ENDMDL
ENDMDL
