MODEL 1978
MODEL 1
REMARK VINA RESULT:    -4.420      0.000      0.000
REMARK INTER + INTRA:          -4.420
REMARK INTER:                  -4.420
REMARK INTRA:                   0.000
REMARK UNBOUND:                 0.000
REMARK  Name = No_1978-gen_results/8p0m/2024-11-27-11-27-31/
REMARK  0 active torsions:
REMARK  status: ('A' for Active; 'I' for Inactive)
REMARK                            x       y       z     vdW  Elec       q    Type
REMARK                         _______ _______ _______ _____ _____    ______ ____
ROOT
ATOM      1  C   UNL A   1      -8.063 -10.763  18.800  0.00  0.00    +0.011 A 
ATOM      2  C   UNL A   1      -8.230 -10.031  19.747  0.00  0.00    +0.058 A 
ATOM      3  C   UNL A   1      -9.331  -9.256  19.922  0.00  0.00    +0.011 A 
ATOM      4  C   UNL A   1     -10.343  -9.303  18.944  0.00  0.00    +0.001 A 
ATOM      5  C   UNL A   1      -9.097 -10.932  17.811  0.00  0.00    +0.001 A 
ATOM      6  C   UNL A   1     -10.210 -10.155  17.925  0.00  0.00    +0.000 A 
ATOM      7 CL   UNL A   1      -7.046  -9.907  21.018  0.00  0.00    -0.082 Cl
ENDROOT
TORSDOF 0
ENDMDL
ENDMDL
