MODEL 1979
MODEL 1
REMARK VINA RESULT:    -6.048      0.000      0.000
REMARK INTER + INTRA:          -8.546
REMARK INTER:                  -7.816
REMARK INTRA:                  -0.729
REMARK UNBOUND:                -0.729
REMARK  Name = No_1979-gen_results/8p0m/2024-11-27-11-27-31/
REMARK  5 active torsions:
REMARK  status: ('A' for Active; 'I' for Inactive)
REMARK    1  A    between atoms: C_1  and  C_8
REMARK    2  A    between atoms: C_8  and  C_9
REMARK    3  A    between atoms: C_8  and  C_11
REMARK    4  A    between atoms: C_15  and  C_16
REMARK    5  A    between atoms: C_17  and  C_18
REMARK                            x       y       z     vdW  Elec       q    Type
REMARK                         _______ _______ _______ _____ _____    ______ ____
ROOT
ATOM      1  C   UNL A   1     -23.422   0.020  29.129  0.00  0.00    +0.196 C 
ATOM      2 CL   UNL A   1     -25.037  -0.466  28.746  0.00  0.00    -0.096 Cl
ENDROOT
BRANCH   1   3
ATOM      3  C   UNL A   1     -23.251   0.915  30.337  0.00  0.00    -0.005 C 
ATOM      4  C   UNL A   1     -23.819   0.533  31.333  0.00  0.00    -0.046 C 
ATOM      5  C   UNL A   1     -24.847   1.206  31.972  0.00  0.00    +0.023 C 
ATOM      6  C   UNL A   1     -25.487   0.815  33.205  0.00  0.00    +0.021 C 
ATOM      7  C   UNL A   1     -25.053  -0.369  33.847  0.00  0.00    +0.081 C 
ATOM      8  C   UNL A   1     -24.004  -1.108  33.242  0.00  0.00    +0.021 C 
ATOM      9  C   UNL A   1     -23.443  -0.642  32.093  0.00  0.00    +0.023 C 
ATOM     10 CL   UNL A   1     -25.784  -0.913  35.265  0.00  0.00    -0.115 Cl
ENDBRANCH   1   3
BRANCH   1  11
ATOM     11  C   UNL A   1     -22.655  -1.160  29.066  0.00  0.00    +0.385 C 
ATOM     12  O   UNL A   1     -21.501  -1.084  28.970  0.00  0.00    -0.244 OA
ATOM     13  O   UNL A   1     -23.114  -2.340  28.911  0.00  0.00    -0.244 OA
ENDBRANCH   1  11
BRANCH   1  14
ATOM     14  C   UNL A   1     -23.229   0.784  27.843  0.00  0.00    +0.003 C 
ATOM     15  C   UNL A   1     -24.131   0.651  26.899  0.00  0.00    -0.003 C 
BRANCH  15  16
ATOM     16  C   UNL A   1     -24.094   0.896  25.712  0.00  0.00    -0.000 C 
ATOM     17  C   UNL A   1     -25.139   0.539  24.716  0.00  0.00    -0.000 C 
BRANCH  17  18
ATOM     18  C   UNL A   1     -26.304  -0.066  25.256  0.00  0.00    -0.000 C 
ATOM     19  C   UNL A   1     -27.499  -0.018  24.609  0.00  0.00    -0.000 C 
ENDBRANCH  17  18
ENDBRANCH  15  16
ENDBRANCH   1  14
TORSDOF 5
ENDMDL
ENDMDL
