MODEL 197
MODEL 1
REMARK VINA RESULT:    -3.496      0.000      0.000
REMARK INTER + INTRA:          -3.767
REMARK INTER:                  -3.700
REMARK INTRA:                  -0.067
REMARK UNBOUND:                -0.067
REMARK  Name = No_197-gen_results/8p0m/2024-11-27-11-27-31/
REMARK  1 active torsions:
REMARK  status: ('A' for Active; 'I' for Inactive)
REMARK    1  A    between atoms: C_3  and  C_4
REMARK                            x       y       z     vdW  Elec       q    Type
REMARK                         _______ _______ _______ _____ _____    ______ ____
ROOT
ATOM      1 CL   UNL A   1      -9.181 -10.518  17.434  0.00  0.00    -0.081 Cl
ATOM      2  C   UNL A   1      -9.910  -9.794  18.445  0.00  0.00    +0.068 C 
ATOM      3  C   UNL A   1      -9.507  -9.330  19.451  0.00  0.00    +0.012 C 
ENDROOT
BRANCH   3   4
ATOM      4  C   UNL A   1      -8.147  -9.544  19.850  0.00  0.00    +0.001 C 
ATOM      5  C   UNL A   1      -7.370  -8.396  19.766  0.00  0.00    +0.000 C 
ENDBRANCH   3   4
TORSDOF 1
ENDMDL
ENDMDL
