REMARK  Name = No_1980-gen_results/8p0m/2024-11-27-11-27-31/
REMARK  2 active torsions:
REMARK  status: ('A' for Active; 'I' for Inactive)
REMARK    1  A    between atoms: C_8  and  C_16
REMARK    2  A    between atoms: C_12  and  C_20
REMARK                            x       y       z     vdW  Elec       q    Type
REMARK                         _______ _______ _______ _____ _____    ______ ____
ROOT
ATOM      1  C   UNL A   1     -28.016  -0.814  28.878  0.00  0.00    +0.007 A 
ATOM      2  C   UNL A   1     -27.064  -0.119  28.608  0.00  0.00    +0.003 A 
ATOM      3  C   UNL A   1     -25.792  -0.430  29.076  0.00  0.00    +0.030 A 
ATOM      4  C   UNL A   1     -24.546   0.349  28.823  0.00  0.00    +0.167 A 
ATOM      5  C   UNL A   1     -24.659   1.420  27.888  0.00  0.00    +0.167 A 
ATOM      6  C   UNL A   1     -25.947   1.681  27.379  0.00  0.00    +0.030 A 
ATOM      7  C   UNL A   1     -27.044   0.974  27.687  0.00  0.00    +0.002 A 
ATOM      8  C   UNL A   1     -28.049  -1.598  30.163  0.00  0.00    +0.080 A 
ATOM      9  C   UNL A   1     -26.760  -2.071  30.612  0.00  0.00    +0.007 A 
ATOM     10  C   UNL A   1     -25.610  -1.402  30.171  0.00  0.00    +0.003 A 
ATOM     11  C   UNL A   1     -28.285   1.337  26.970  0.00  0.00    +0.004 A 
ATOM     12  C   UNL A   1     -28.301   1.938  25.868  0.00  0.00    +0.071 A 
ATOM     13  C   UNL A   1     -27.111   2.817  25.525  0.00  0.00    +0.004 A 
ATOM     14  C   UNL A   1     -25.906   2.666  26.262  0.00  0.00    +0.002 A 
ATOM     15  F   UNL A   1     -23.573   2.054  27.583  0.00  0.00    -0.202 F 
ATOM     16  F   UNL A   1     -23.430   0.069  29.372  0.00  0.00    -0.202 F 
ENDROOT
BRANCH  12  17
ATOM     17  C   UNL A   1     -29.455   2.301  25.135  0.00  0.00    +0.419 C 
ATOM     18  F   UNL A   1     -29.734   3.402  25.039  0.00  0.00    -0.166 F 
ATOM     19  F   UNL A   1     -29.241   1.818  23.812  0.00  0.00    -0.166 F 
ATOM     20  F   UNL A   1     -30.500   1.518  25.461  0.00  0.00    -0.166 F 
ENDBRANCH  12  17
BRANCH   8  21
ATOM     21  C   UNL A   1     -29.124  -2.670  30.215  0.00  0.00    +0.388 C 
ATOM     22  O   UNL A   1     -30.191  -2.401  30.094  0.00  0.00    -0.241 OA
ATOM     23  O   UNL A   1     -28.754  -3.837  30.716  0.00  0.00    -0.241 OA
ENDBRANCH   8  21
TORSDOF 2
