REMARK  Name = outputs/IAG933/test6/raw/output_1981_IAG933_linker_design_.xyz
REMARK  12 active torsions:
REMARK  status: ('A' for Active; 'I' for Inactive)
REMARK    1  A    between atoms: C_1  and  C_2
REMARK    2  A    between atoms: C_1  and  C_8
REMARK    3  A    between atoms: C_1  and  N_32
REMARK    4  A    between atoms: C_13  and  C_31
REMARK    5  A    between atoms: C_14  and  C_15
REMARK    6  A    between atoms: C_21  and  O_22
REMARK    7  A    between atoms: O_22  and  C_23
REMARK    8  A    between atoms: C_23  and  C_24
REMARK    9  A    between atoms: N_32  and  C_43
REMARK   10  A    between atoms: C_35  and  N_44
REMARK   11  A    between atoms: C_37  and  C_40
REMARK   12  A    between atoms: C_41  and  C_43
REMARK                            x       y       z     vdW  Elec       q    Type
REMARK                         _______ _______ _______ _____ _____    ______ ____
ROOT
ATOM      1  N   UNL A   1     -24.962  -0.039  29.080  0.00  0.00    -0.258 N 
ATOM      2  N   UNL A   1     -26.844   1.578  28.910  0.00  0.00    -0.190 NA
ATOM      3  O   UNL A   1     -27.298  -0.596  28.826  0.00  0.00    -0.251 OA
ATOM      4  C   UNL A   1     -26.453   0.283  28.945  0.00  0.00    +0.323 C 
ENDROOT
BRANCH   2   7
ATOM      5  C   UNL A   1     -29.849   2.866  30.498  0.00  0.00    +0.002 C 
ATOM      6  C   UNL A   1     -29.078   2.462  29.212  0.00  0.00    +0.022 C 
ATOM      7  C   UNL A   1     -27.714   2.092  29.910  0.00  0.00    +0.097 C 
ATOM      8  C   UNL A   1     -28.135   3.786  31.901  0.00  0.00    +0.002 C 
ATOM      9  C   UNL A   1     -28.907   3.856  28.519  0.00  0.00    +0.032 C 
ATOM     10  C   UNL A   1     -27.358   3.504  30.604  0.00  0.00    +0.020 C 
ATOM     11  C   UNL A   1     -28.202   4.461  29.835  0.00  0.00    +0.004 C 
ATOM     12  C   UNL A   1     -29.277   4.044  30.992  0.00  0.00    +0.000 C 
BRANCH   9  15
ATOM     13  C   UNL A   1     -31.170   4.575  27.256  0.00  0.00    +0.035 C 
ATOM     14  O   UNL A   1     -29.994   6.032  28.657  0.00  0.00    -0.223 OA
ATOM     15  C   UNL A   1     -30.187   4.774  28.362  0.00  0.00    +0.152 C 
ENDBRANCH   9  15
ENDBRANCH   2   7
BRANCH   1  16
ATOM     16  C   UNL A   1     -24.855  -1.012  30.143  0.00  0.00    +0.115 C 
BRANCH  16  17
ATOM     17  C   UNL A   1     -24.973  -2.505  29.788  0.00  0.00    -0.003 C 
ATOM     18  C   UNL A   1     -23.906  -3.173  29.146  0.00  0.00    -0.003 C 
ATOM     19  C   UNL A   1     -23.989  -4.549  28.853  0.00  0.00    -0.000 C 
ATOM     20  C   UNL A   1     -25.137  -5.280  29.205  0.00  0.00    -0.000 C 
ATOM     21  C   UNL A   1     -26.232  -4.611  29.784  0.00  0.00    -0.000 C 
ATOM     22  C   UNL A   1     -26.155  -3.232  30.065  0.00  0.00    -0.003 C 
ENDBRANCH  16  17
BRANCH  16  23
ATOM     23  C   UNL A   1     -25.387  -0.679  31.571  0.00  0.00    +0.095 C 
ATOM     24  C   UNL A   1     -25.189   0.773  32.028  0.00  0.00    +0.021 C 
ATOM     25  C   UNL A   1     -25.336   0.684  33.544  0.00  0.00    +0.020 C 
ATOM     26  C   UNL A   1     -24.829  -0.715  33.905  0.00  0.00    +0.089 C 
ATOM     27  N   UNL A   1     -24.758  -1.481  32.646  0.00  0.00    -0.217 NA
ENDBRANCH  16  23
ENDBRANCH   1  16
BRANCH   1  28
ATOM     28  C   UNL A   1     -23.710   0.626  28.567  0.00  0.00    +0.110 C 
BRANCH  28  32
ATOM     29  C   UNL A   1     -23.145   2.022  26.239  0.00  0.00    +0.018 C 
ATOM     30  C   UNL A   1     -24.154   1.432  26.788  0.00  0.00    +0.024 C 
ATOM     31 CL   UNL A   1     -21.126   1.441  27.708  0.00  0.00    -0.115 Cl
ATOM     32  C   UNL A   1     -22.879   0.897  27.320  0.00  0.00    +0.086 C 
BRANCH  30  33
ATOM     33  C   UNL A   1     -25.688   1.614  26.461  0.00  0.00    +0.071 C 
ATOM     34  C   UNL A   1     -26.250   2.920  26.395  0.00  0.00    +0.055 C 
ATOM     35  C   UNL A   1     -27.438   3.091  25.645  0.00  0.00    +0.102 C 
ATOM     36  N   UNL A   1     -28.075   2.089  25.003  0.00  0.00    -0.212 NA
ATOM     37  C   UNL A   1     -27.543   0.849  25.079  0.00  0.00    +0.234 C 
ATOM     38  C   UNL A   1     -26.354   0.576  25.777  0.00  0.00    +0.240 C 
ATOM     39  F   UNL A   1     -25.860  -0.681  25.795  0.00  0.00    -0.227 F 
BRANCH  34  40
ATOM     40  C   UNL A   1     -25.642   4.093  27.123  0.00  0.00    +0.262 C 
ATOM     41  N   UNL A   1     -25.614   5.252  26.449  0.00  0.00    -0.200 NA
ATOM     42  C   UNL A   1     -25.026   6.479  26.963  0.00  0.00    +0.139 C 
ATOM     43  O   UNL A   1     -25.143   3.966  28.243  0.00  0.00    -0.269 OA
ENDBRANCH  34  40
BRANCH  37  44
ATOM     44  O   UNL A   1     -28.193  -0.208  24.477  0.00  0.00    -0.459 OA
BRANCH  44  45
ATOM     45  C   UNL A   1     -29.460   0.005  23.866  0.00  0.00    +0.242 C 
BRANCH  45  46
ATOM     46  C   UNL A   1     -30.065  -1.377  23.573  0.00  0.00    +0.229 C 
ATOM     47  O   UNL A   1     -30.729  -1.878  24.721  0.00  0.00    -0.216 OA
ENDBRANCH  45  46
ENDBRANCH  44  45
ENDBRANCH  37  44
ENDBRANCH  30  33
ENDBRANCH  28  32
ENDBRANCH   1  28
TORSDOF 12
