MODEL 1982
MODEL 1
REMARK VINA RESULT:    -4.308      0.000      0.000
REMARK INTER + INTRA:          -4.308
REMARK INTER:                  -4.308
REMARK INTRA:                   0.000
REMARK UNBOUND:                 0.000
REMARK  Name = No_1982-gen_results/8p0m/2024-11-27-11-27-31/
REMARK  0 active torsions:
REMARK  status: ('A' for Active; 'I' for Inactive)
REMARK                            x       y       z     vdW  Elec       q    Type
REMARK                         _______ _______ _______ _____ _____    ______ ____
ROOT
ATOM      1  C   UNL A   1     -24.928  -5.393  28.971  0.00  0.00    +0.000 A 
ATOM      2  C   UNL A   1     -24.181  -4.700  28.702  0.00  0.00    +0.000 A 
ATOM      3  C   UNL A   1     -26.096  -4.779  29.601  0.00  0.00    +0.000 A 
ATOM      4  C   UNL A   1     -26.194  -3.423  29.794  0.00  0.00    +0.000 A 
ATOM      5  C   UNL A   1     -24.015  -3.249  28.778  0.00  0.00    +0.000 A 
ATOM      6  C   UNL A   1     -25.141  -2.645  29.386  0.00  0.00    +0.000 A 
ENDROOT
TORSDOF 0
ENDMDL
ENDMDL
