REMARK  Name = outputs/IAG933/test6/raw/output_1983_IAG933_linker_design_.xyz
REMARK  12 active torsions:
REMARK  status: ('A' for Active; 'I' for Inactive)
REMARK    1  A    between atoms: C_1  and  C_2
REMARK    2  A    between atoms: C_1  and  C_8
REMARK    3  A    between atoms: C_9  and  N_28
REMARK    4  A    between atoms: C_13  and  C_32
REMARK    5  A    between atoms: C_14  and  C_15
REMARK    6  A    between atoms: C_21  and  O_22
REMARK    7  A    between atoms: O_22  and  C_23
REMARK    8  A    between atoms: C_23  and  C_24
REMARK    9  A    between atoms: N_28  and  C_36
REMARK   10  A    between atoms: N_28  and  N_38
REMARK   11  A    between atoms: C_35  and  C_36
REMARK   12  A    between atoms: N_38  and  C_41
REMARK                            x       y       z     vdW  Elec       q    Type
REMARK                         _______ _______ _______ _____ _____    ______ ____
ROOT
ATOM      1  N   UNL A   1     -25.195   1.810  30.666  0.00  0.00    -0.185 NA
ENDROOT
BRANCH   1   3
ATOM      2  C   UNL A   1     -25.387  -0.679  31.571  0.00  0.00    +0.093 C 
ATOM      3  C   UNL A   1     -25.189   0.773  32.028  0.00  0.00    +0.095 C 
ATOM      4  C   UNL A   1     -25.336   0.684  33.544  0.00  0.00    +0.038 C 
ATOM      5  C   UNL A   1     -24.829  -0.715  33.905  0.00  0.00    +0.090 C 
ATOM      6  N   UNL A   1     -24.758  -1.481  32.646  0.00  0.00    -0.218 NA
BRANCH   2   7
ATOM      7  C   UNL A   1     -24.855  -1.012  30.143  0.00  0.00    +0.045 C 
BRANCH   7   8
ATOM      8  C   UNL A   1     -24.973  -2.505  29.788  0.00  0.00    -0.021 C 
ATOM      9  C   UNL A   1     -23.906  -3.173  29.146  0.00  0.00    -0.004 C 
ATOM     10  C   UNL A   1     -23.989  -4.549  28.853  0.00  0.00    -0.000 C 
ATOM     11  C   UNL A   1     -25.137  -5.280  29.205  0.00  0.00    -0.000 C 
ATOM     12  C   UNL A   1     -26.232  -4.611  29.784  0.00  0.00    -0.000 C 
ATOM     13  C   UNL A   1     -26.155  -3.232  30.065  0.00  0.00    -0.004 C 
ENDBRANCH   7   8
ENDBRANCH   2   7
ENDBRANCH   1   3
BRANCH   1  14
ATOM     14  C   UNL A   1     -24.406   2.770  31.259  0.00  0.00    +0.114 C 
BRANCH  14  18
ATOM     15  C   UNL A   1     -24.393   4.659  32.609  0.00  0.00    +0.161 C 
ATOM     16  O   UNL A   1     -24.768   5.681  31.664  0.00  0.00    -0.355 OA
ATOM     17  C   UNL A   1     -26.139   6.780  30.201  0.00  0.00    +0.032 C 
ATOM     18  C   UNL A   1     -25.211   3.519  32.038  0.00  0.00    +0.122 C 
ATOM     19  C   UNL A   1     -26.068   6.355  31.673  0.00  0.00    +0.119 C 
ATOM     20  O   UNL A   1     -26.824   5.368  34.145  0.00  0.00    -0.204 OA
ATOM     21  C   UNL A   1     -27.326   4.512  32.928  0.00  0.00    +0.228 C 
ATOM     22  N   UNL A   1     -26.413   3.433  32.354  0.00  0.00    -0.187 NA
ATOM     23  C   UNL A   1     -27.410   5.558  31.817  0.00  0.00    +0.081 C 
ENDBRANCH  14  18
ENDBRANCH   1  14
BRANCH   1  24
ATOM     24  N   UNL A   1     -25.206   1.331  29.257  0.00  0.00    -0.164 NA
BRANCH  24  29
ATOM     25  C   UNL A   1     -21.677   1.621  27.855  0.00  0.00    +0.001 C 
ATOM     26  C   UNL A   1     -24.337   1.431  26.979  0.00  0.00    +0.019 C 
ATOM     27  C   UNL A   1     -23.272   1.439  26.034  0.00  0.00    +0.001 C 
ATOM     28  C   UNL A   1     -21.941   1.597  26.475  0.00  0.00    +0.000 C 
ATOM     29  C   UNL A   1     -24.096   1.398  28.386  0.00  0.00    +0.084 C 
ATOM     30  C   UNL A   1     -22.738   1.506  28.793  0.00  0.00    +0.018 C 
BRANCH  26  31
ATOM     31  C   UNL A   1     -25.688   1.614  26.461  0.00  0.00    +0.039 C 
ATOM     32  C   UNL A   1     -26.250   2.920  26.395  0.00  0.00    +0.077 C 
ATOM     33  C   UNL A   1     -27.438   3.091  25.645  0.00  0.00    +0.107 C 
ATOM     34  N   UNL A   1     -28.075   2.089  25.003  0.00  0.00    -0.208 NA
ATOM     35  C   UNL A   1     -27.543   0.849  25.079  0.00  0.00    +0.253 C 
ATOM     36  C   UNL A   1     -26.354   0.576  25.777  0.00  0.00    +0.193 C 
ATOM     37  F   UNL A   1     -25.860  -0.681  25.795  0.00  0.00    -0.199 F 
BRANCH  32  38
ATOM     38  C   UNL A   1     -25.642   4.093  27.123  0.00  0.00    +0.266 C 
ATOM     39  N   UNL A   1     -25.614   5.252  26.449  0.00  0.00    -0.200 NA
ATOM     40  C   UNL A   1     -25.026   6.479  26.963  0.00  0.00    +0.139 C 
ATOM     41  O   UNL A   1     -25.143   3.966  28.243  0.00  0.00    -0.268 OA
ENDBRANCH  32  38
BRANCH  35  42
ATOM     42  O   UNL A   1     -28.193  -0.208  24.477  0.00  0.00    -0.456 OA
BRANCH  42  43
ATOM     43  C   UNL A   1     -29.460   0.005  23.866  0.00  0.00    +0.243 C 
BRANCH  43  44
ATOM     44  C   UNL A   1     -30.065  -1.377  23.573  0.00  0.00    +0.229 C 
ATOM     45  O   UNL A   1     -30.729  -1.878  24.721  0.00  0.00    -0.216 OA
ENDBRANCH  43  44
ENDBRANCH  42  43
ENDBRANCH  35  42
ENDBRANCH  26  31
ENDBRANCH  24  29
ENDBRANCH   1  24
TORSDOF 12
