MODEL 1983
MODEL 1
REMARK VINA RESULT:    -7.418      0.000      0.000
REMARK INTER + INTRA:         -10.849
REMARK INTER:                  -9.586
REMARK INTRA:                  -1.263
REMARK UNBOUND:                -1.263
REMARK  Name = No_1983-gen_results/8p0m/2024-11-27-11-27-31/
REMARK  5 active torsions:
REMARK  status: ('A' for Active; 'I' for Inactive)
REMARK    1  A    between atoms: C_1  and  C_2
REMARK    2  A    between atoms: C_5  and  C_11
REMARK    3  A    between atoms: N_8  and  C_10
REMARK    4  A    between atoms: N_13  and  C_20
REMARK    5  A    between atoms: C_20  and  C_21
REMARK                            x       y       z     vdW  Elec       q    Type
REMARK                         _______ _______ _______ _____ _____    ______ ____
ROOT
ATOM      1  C   UNL A   1     -26.972   1.133  26.131  0.00  0.00    +0.055 A 
ATOM      2  C   UNL A   1     -25.971   0.330  25.596  0.00  0.00    +0.005 A 
ATOM      3  C   UNL A   1     -24.566   0.231  26.085  0.00  0.00    +0.007 A 
ATOM      4  C   UNL A   1     -24.190   1.165  27.095  0.00  0.00    +0.087 A 
ATOM      5  C   UNL A   1     -25.206   2.012  27.582  0.00  0.00    -0.014 A 
ATOM      6  C   UNL A   1     -26.470   2.017  27.136  0.00  0.00    +0.001 A 
ATOM      7  C   UNL A   1     -24.643   3.579  27.307  0.00  0.00    +0.031 C 
ENDROOT
BRANCH   1   8
ATOM      8  C   UNL A   1     -28.088   1.135  25.665  0.00  0.00    +0.269 C 
ATOM      9  N   UNL A   1     -28.382   0.407  24.485  0.00  0.00    -0.175 NA
ATOM     10  O   UNL A   1     -29.116   1.444  26.333  0.00  0.00    -0.268 OA
BRANCH   9  11
ATOM     11  C   UNL A   1     -29.693   0.227  23.874  0.00  0.00    +0.074 A 
ATOM     12  C   UNL A   1     -30.216   1.052  23.302  0.00  0.00    +0.028 A 
ATOM     13  C   UNL A   1     -31.351   0.731  22.883  0.00  0.00    +0.059 A 
ATOM     14  C   UNL A   1     -31.954  -0.575  22.926  0.00  0.00    +0.011 A 
ATOM     15  C   UNL A   1     -31.299  -1.516  23.615  0.00  0.00    +0.002 A 
ATOM     16  C   UNL A   1     -30.071  -1.180  24.153  0.00  0.00    +0.017 A 
ATOM     17 CL   UNL A   1     -32.307   1.890  21.888  0.00  0.00    -0.082 Cl
ENDBRANCH   9  11
ENDBRANCH   1   8
BRANCH   4  18
ATOM     18  C   UNL A   1     -22.827   1.114  27.561  0.00  0.00    +0.415 C 
ATOM     19  N   UNL A   1     -22.009   1.875  27.362  0.00  0.00    +0.197 NA
ATOM     20  N   UNL A   1     -22.649   0.203  28.622  0.00  0.00    +0.010 NA
BRANCH  20  21
ATOM     21  C   UNL A   1     -23.559  -0.150  29.667  0.00  0.00    +0.385 C 
ATOM     22  F   UNL A   1     -24.098   0.862  30.375  0.00  0.00    -0.177 F 
BRANCH  21  23
ATOM     23  C   UNL A   1     -24.209  -1.354  29.578  0.00  0.00    +0.059 A 
ATOM     24  C   UNL A   1     -25.459  -1.529  30.151  0.00  0.00    +0.003 A 
ATOM     25  C   UNL A   1     -26.142  -2.764  30.002  0.00  0.00    -0.000 A 
ATOM     26  C   UNL A   1     -25.435  -3.828  29.386  0.00  0.00    -0.000 A 
ATOM     27  C   UNL A   1     -24.210  -3.680  28.856  0.00  0.00    -0.000 A 
ATOM     28  C   UNL A   1     -23.583  -2.435  28.931  0.00  0.00    +0.003 A 
ENDBRANCH  21  23
ENDBRANCH  20  21
ENDBRANCH   4  18
TORSDOF 5
ENDMDL
ENDMDL
