MODEL 1984
MODEL 1
REMARK VINA RESULT:    -6.598      0.000      0.000
REMARK INTER + INTRA:          -7.363
REMARK INTER:                  -6.984
REMARK INTRA:                  -0.380
REMARK UNBOUND:                -0.380
REMARK  Name = No_1984-gen_results/8p0m/2024-11-27-11-27-31/
REMARK  1 active torsions:
REMARK  status: ('A' for Active; 'I' for Inactive)
REMARK    1  A    between atoms: C_3  and  C_7
REMARK                            x       y       z     vdW  Elec       q    Type
REMARK                         _______ _______ _______ _____ _____    ______ ____
ROOT
ATOM      1  C   UNL A   1     -23.916  -3.929  28.626  0.00  0.00    +0.000 A 
ATOM      2  C   UNL A   1     -24.429  -4.833  28.800  0.00  0.00    +0.000 A 
ATOM      3  C   UNL A   1     -24.578  -2.724  28.947  0.00  0.00    +0.000 A 
ATOM      4  C   UNL A   1     -25.593  -2.684  29.487  0.00  0.00    +0.000 A 
ATOM      5  C   UNL A   1     -25.725  -5.046  29.445  0.00  0.00    +0.000 A 
ATOM      6  C   UNL A   1     -26.328  -3.885  29.794  0.00  0.00    +0.000 A 
ENDROOT
BRANCH   3   7
ATOM      7  C   UNL A   1     -23.824  -1.390  28.687  0.00  0.00    +0.000 A 
ATOM      8  C   UNL A   1     -24.474  -0.454  27.820  0.00  0.00    +0.000 A 
ATOM      9  C   UNL A   1     -22.515  -1.152  29.103  0.00  0.00    +0.000 A 
ATOM     10  C   UNL A   1     -21.907   0.019  28.858  0.00  0.00    +0.000 A 
ATOM     11  C   UNL A   1     -23.771   0.681  27.463  0.00  0.00    +0.000 A 
ATOM     12  C   UNL A   1     -22.527   0.948  28.046  0.00  0.00    +0.000 A 
ENDBRANCH   3   7
TORSDOF 1
ENDMDL
ENDMDL
