MODEL 1985
MODEL 1
REMARK VINA RESULT:    -7.595      0.000      0.000
REMARK INTER + INTRA:          -7.595
REMARK INTER:                  -7.595
REMARK INTRA:                   0.000
REMARK UNBOUND:                 0.000
REMARK  Name = No_1985-gen_results/8p0m/2024-11-27-11-27-31/
REMARK  0 active torsions:
REMARK  status: ('A' for Active; 'I' for Inactive)
REMARK                            x       y       z     vdW  Elec       q    Type
REMARK                         _______ _______ _______ _____ _____    ______ ____
ROOT
ATOM      1  C   UNL A   1     -25.834  -2.498  29.622  0.00  0.00    +0.049 A 
ATOM      2  C   UNL A   1     -26.439  -3.306  29.925  0.00  0.00    +0.067 A 
ATOM      3  C   UNL A   1     -24.495  -2.877  29.028  0.00  0.00    -0.009 A 
ATOM      4  C   UNL A   1     -24.205  -4.236  28.787  0.00  0.00    -0.003 A 
ATOM      5  C   UNL A   1     -26.391  -4.776  29.761  0.00  0.00    +0.006 A 
ATOM      6  C   UNL A   1     -25.177  -5.162  29.212  0.00  0.00    -0.000 A 
ATOM      7  C   UNL A   1     -27.873  -2.934  30.546  0.00  0.00    +0.251 C 
ATOM      8  O   UNL A   1     -28.843  -3.119  30.093  0.00  0.00    -0.270 OA
ATOM      9  N   UNL A   1     -27.696  -1.858  31.508  0.00  0.00    -0.261 N 
ATOM     10  C   UNL A   1     -28.851  -1.246  32.010  0.00  0.00    +0.095 C 
ATOM     11  C   UNL A   1     -28.668   0.038  32.276  0.00  0.00    +0.022 C 
ATOM     12  C   UNL A   1     -27.439   0.537  32.295  0.00  0.00    +0.005 C 
ATOM     13  C   UNL A   1     -26.280  -0.041  31.831  0.00  0.00    +0.038 C 
ATOM     14  C   UNL A   1     -26.484  -1.244  31.411  0.00  0.00    +0.152 C 
ATOM     15  N   UNL A   1     -25.502  -1.725  30.562  0.00  0.00    -0.295 N 
ATOM     16  C   UNL A   1     -24.213  -1.054  30.759  0.00  0.00    +0.074 C 
ATOM     17  C   UNL A   1     -24.139   0.007  31.501  0.00  0.00    +0.020 C 
ATOM     18  C   UNL A   1     -25.106   0.591  31.973  0.00  0.00    +0.005 C 
ATOM     19  C   UNL A   1     -23.347  -2.049  28.750  0.00  0.00    +0.029 C 
ATOM     20  C   UNL A   1     -23.217  -1.089  29.773  0.00  0.00    +0.023 C 
ATOM     21  C   UNL A   1     -21.993  -0.368  29.826  0.00  0.00    +0.002 C 
ENDROOT
TORSDOF 0
ENDMDL
ENDMDL
