REMARK  Name = outputs/IAG933/test6/raw/output_1985_IAG933_linker_design_.xyz
REMARK  16 active torsions:
REMARK  status: ('A' for Active; 'I' for Inactive)
REMARK    1  A    between atoms: C_1  and  C_2
REMARK    2  A    between atoms: C_1  and  C_8
REMARK    3  A    between atoms: C_1  and  O_40
REMARK    4  A    between atoms: C_13  and  N_43
REMARK    5  A    between atoms: C_14  and  C_15
REMARK    6  A    between atoms: C_21  and  O_22
REMARK    7  A    between atoms: O_22  and  C_23
REMARK    8  A    between atoms: C_23  and  C_24
REMARK    9  A    between atoms: C_24  and  O_25
REMARK   10  A    between atoms: O_25  and  C_37
REMARK   11  A    between atoms: C_28  and  C_29
REMARK   12  A    between atoms: C_28  and  N_34
REMARK   13  A    between atoms: C_29  and  C_46
REMARK   14  A    between atoms: C_30  and  O_40
REMARK   15  A    between atoms: C_33  and  C_44
REMARK   16  A    between atoms: C_37  and  C_44
REMARK                            x       y       z     vdW  Elec       q    Type
REMARK                         _______ _______ _______ _____ _____    ______ ____
ROOT
ATOM      1  C   UNL A   1     -25.688   1.614  26.461  0.00  0.00    +0.095 C 
ATOM      2  C   UNL A   1     -26.250   2.920  26.395  0.00  0.00    +0.090 C 
ATOM      3  C   UNL A   1     -27.438   3.091  25.645  0.00  0.00    +0.108 C 
ATOM      4  N   UNL A   1     -28.075   2.089  25.003  0.00  0.00    -0.208 NA
ATOM      5  C   UNL A   1     -27.543   0.849  25.079  0.00  0.00    +0.255 C 
ATOM      6  C   UNL A   1     -26.354   0.576  25.777  0.00  0.00    +0.207 C 
ATOM      7  F   UNL A   1     -25.860  -0.681  25.795  0.00  0.00    -0.198 F 
ENDROOT
BRANCH   1  14
ATOM      8  C   UNL A   1     -24.625   0.354  28.306  0.00  0.00    +0.288 C 
ATOM      9  C   UNL A   1     -22.278   1.144  27.667  0.00  0.00    +0.219 C 
ATOM     10  F   UNL A   1     -21.085   1.636  27.547  0.00  0.00    -0.232 F 
ATOM     11  C   UNL A   1     -23.317   1.450  26.850  0.00  0.00    +0.196 C 
ATOM     12 CL   UNL A   1     -22.948   2.206  25.290  0.00  0.00    -0.089 Cl
ATOM     13  C   UNL A   1     -22.392   0.261  28.685  0.00  0.00    +0.168 C 
ATOM     14  N   UNL A   1     -24.563   1.201  27.224  0.00  0.00    -0.226 N 
ATOM     15  N   UNL A   1     -23.619  -0.236  28.713  0.00  0.00    -0.221 NA
BRANCH   8  16
ATOM     16  O   UNL A   1     -25.515  -0.165  29.130  0.00  0.00    -0.447 OA
BRANCH  16  17
ATOM     17  C   UNL A   1     -24.855  -1.012  30.143  0.00  0.00    +0.207 C 
BRANCH  17  18
ATOM     18  C   UNL A   1     -24.973  -2.505  29.788  0.00  0.00    +0.019 C 
ATOM     19  C   UNL A   1     -23.906  -3.173  29.146  0.00  0.00    -0.001 C 
ATOM     20  C   UNL A   1     -23.989  -4.549  28.853  0.00  0.00    -0.000 C 
ATOM     21  C   UNL A   1     -25.137  -5.280  29.205  0.00  0.00    -0.000 C 
ATOM     22  C   UNL A   1     -26.232  -4.611  29.784  0.00  0.00    -0.000 C 
ATOM     23  C   UNL A   1     -26.155  -3.232  30.065  0.00  0.00    -0.001 C 
ENDBRANCH  17  18
BRANCH  17  24
ATOM     24  C   UNL A   1     -25.387  -0.679  31.571  0.00  0.00    +0.117 C 
ATOM     25  C   UNL A   1     -25.189   0.773  32.028  0.00  0.00    +0.023 C 
ATOM     26  C   UNL A   1     -25.336   0.684  33.544  0.00  0.00    +0.020 C 
ATOM     27  C   UNL A   1     -24.829  -0.715  33.905  0.00  0.00    +0.089 C 
ATOM     28  N   UNL A   1     -24.758  -1.481  32.646  0.00  0.00    -0.215 NA
ENDBRANCH  17  24
ENDBRANCH  16  17
ENDBRANCH   8  16
ENDBRANCH   1  14
BRANCH   2  29
ATOM     29  C   UNL A   1     -25.642   4.093  27.123  0.00  0.00    +0.268 C 
ATOM     30  N   UNL A   1     -25.614   5.252  26.449  0.00  0.00    -0.200 NA
ATOM     31  C   UNL A   1     -25.026   6.479  26.963  0.00  0.00    +0.139 C 
ATOM     32  O   UNL A   1     -25.143   3.966  28.243  0.00  0.00    -0.268 OA
ENDBRANCH   2  29
BRANCH   5  33
ATOM     33  O   UNL A   1     -28.193  -0.208  24.477  0.00  0.00    -0.456 OA
BRANCH  33  34
ATOM     34  C   UNL A   1     -29.460   0.005  23.866  0.00  0.00    +0.239 C 
BRANCH  34  35
ATOM     35  C   UNL A   1     -30.065  -1.377  23.573  0.00  0.00    +0.189 C 
BRANCH  35  36
ATOM     36  O   UNL A   1     -30.729  -1.878  24.721  0.00  0.00    -0.349 OA
BRANCH  36  37
ATOM     37  C   UNL A   1     -31.948  -1.435  25.235  0.00  0.00    +0.152 C 
BRANCH  37  38
ATOM     38  C   UNL A   1     -32.337  -0.657  26.406  0.00  0.00    +0.117 C 
BRANCH  38  41
ATOM     39  O   UNL A   1     -31.250  -1.742  28.203  0.00  0.00    -0.275 OA
ATOM     40  C   UNL A   1     -29.033   0.057  28.059  0.00  0.00    +0.115 C 
ATOM     41  C   UNL A   1     -31.241  -0.818  27.372  0.00  0.00    +0.228 C 
ATOM     42  N   UNL A   1     -30.364   0.235  27.380  0.00  0.00    -0.278 N 
BRANCH  42  43
ATOM     43  C   UNL A   1     -31.147   1.438  27.618  0.00  0.00    +0.095 C 
BRANCH  43  44
ATOM     44  C   UNL A   1     -30.712   2.413  28.789  0.00  0.00    +0.042 C 
BRANCH  44  46
ATOM     45  N   UNL A   1     -30.033   2.798  31.102  0.00  0.00    -0.131 NA
ATOM     46  C   UNL A   1     -29.729   2.048  29.929  0.00  0.00    +0.111 C 
ENDBRANCH  44  46
ENDBRANCH  43  44
ENDBRANCH  42  43
ENDBRANCH  38  41
ENDBRANCH  37  38
ENDBRANCH  36  37
ENDBRANCH  35  36
ENDBRANCH  34  35
ENDBRANCH  33  34
ENDBRANCH   5  33
TORSDOF 16
