MODEL 1987
MODEL 1
REMARK VINA RESULT:    -4.266      0.000      0.000
REMARK INTER + INTRA:          -4.266
REMARK INTER:                  -4.266
REMARK INTRA:                   0.000
REMARK UNBOUND:                 0.000
REMARK  Name = No_1987-gen_results/8p0m/2024-11-27-11-27-31/
REMARK  0 active torsions:
REMARK  status: ('A' for Active; 'I' for Inactive)
REMARK                            x       y       z     vdW  Elec       q    Type
REMARK                         _______ _______ _______ _____ _____    ______ ____
ROOT
ATOM      1  C   UNL A   1     -26.067  -4.867  29.662  0.00  0.00    +0.000 A 
ATOM      2  C   UNL A   1     -26.222  -3.668  29.685  0.00  0.00    +0.000 A 
ATOM      3  C   UNL A   1     -25.269  -2.765  29.255  0.00  0.00    +0.000 A 
ATOM      4  C   UNL A   1     -24.056  -3.281  28.719  0.00  0.00    +0.000 A 
ATOM      5  C   UNL A   1     -24.000  -4.623  28.557  0.00  0.00    +0.000 A 
ATOM      6  C   UNL A   1     -24.979  -5.409  28.961  0.00  0.00    +0.000 A 
ENDROOT
TORSDOF 0
ENDMDL
ENDMDL
