MODEL 1988
MODEL 1
REMARK VINA RESULT:    -4.861      0.000      0.000
REMARK INTER + INTRA:          -5.243
REMARK INTER:                  -5.145
REMARK INTRA:                  -0.097
REMARK UNBOUND:                -0.097
REMARK  Name = No_1988-gen_results/8p0m/2024-11-27-11-27-31/
REMARK  1 active torsions:
REMARK  status: ('A' for Active; 'I' for Inactive)
REMARK    1  A    between atoms: C_2  and  C_7
REMARK                            x       y       z     vdW  Elec       q    Type
REMARK                         _______ _______ _______ _____ _____    ______ ____
ROOT
ATOM      1  C   UNL A   1     -25.813  -2.772  29.424  0.00  0.00    -0.000 A 
ATOM      2  C   UNL A   1     -24.735  -2.570  28.915  0.00  0.00    -0.000 A 
ATOM      3  C   UNL A   1     -23.916  -3.625  28.526  0.00  0.00    -0.000 A 
ATOM      4  C   UNL A   1     -24.307  -4.991  28.760  0.00  0.00    -0.000 A 
ATOM      5  C   UNL A   1     -25.557  -5.133  29.375  0.00  0.00    -0.000 A 
ATOM      6  C   UNL A   1     -26.286  -4.102  29.739  0.00  0.00    -0.000 A 
ENDROOT
BRANCH   2   7
ATOM      7  C   UNL A   1     -24.160  -1.229  28.624  0.00  0.00    -0.005 C 
ATOM      8  C   UNL A   1     -23.269  -0.670  29.364  0.00  0.00    -0.026 C 
ATOM      9  C   UNL A   1     -23.272  -1.005  30.850  0.00  0.00    +0.031 C 
ENDBRANCH   2   7
TORSDOF 1
ENDMDL
ENDMDL
