MODEL 1989
MODEL 1
REMARK VINA RESULT:    -6.717      0.000      0.000
REMARK INTER + INTRA:          -9.811
REMARK INTER:                  -9.073
REMARK INTRA:                  -0.738
REMARK UNBOUND:                -0.738
REMARK  Name = No_1989-gen_results/8p0m/2024-11-27-11-27-31/
REMARK  6 active torsions:
REMARK  status: ('A' for Active; 'I' for Inactive)
REMARK    1  A    between atoms: C_1  and  C_2
REMARK    2  A    between atoms: C_5  and  C_16
REMARK    3  A    between atoms: N_9  and  C_10
REMARK    4  A    between atoms: C_13  and  C_19
REMARK    5  A    between atoms: C_19  and  N_21
REMARK    6  A    between atoms: N_21  and  C_22
REMARK                            x       y       z     vdW  Elec       q    Type
REMARK                         _______ _______ _______ _____ _____    ______ ____
ROOT
ATOM      1  C   UNL A   1     -29.769 -11.191  28.808  0.00  0.00    +0.269 C 
ATOM      2  O   UNL A   1     -30.824 -10.658  28.508  0.00  0.00    -0.268 OA
ATOM      3  N   UNL A   1     -29.168 -12.115  27.956  0.00  0.00    -0.175 NA
ENDROOT
BRANCH   1   4
ATOM      4  C   UNL A   1     -29.439 -11.140  29.970  0.00  0.00    +0.055 A 
ATOM      5  C   UNL A   1     -28.423 -11.950  30.464  0.00  0.00    +0.005 A 
ATOM      6  C   UNL A   1     -27.933 -11.988  31.872  0.00  0.00    +0.008 A 
ATOM      7  C   UNL A   1     -28.458 -10.988  32.743  0.00  0.00    +0.098 A 
ATOM      8  C   UNL A   1     -29.444 -10.137  32.205  0.00  0.00    +0.008 A 
ATOM      9  C   UNL A   1     -29.883 -10.187  30.939  0.00  0.00    +0.005 A 
BRANCH   7  10
ATOM     10  C   UNL A   1     -27.996 -10.976  34.112  0.00  0.00    +0.477 C 
ATOM     11  N   UNL A   1     -28.572 -10.129  34.996  0.00  0.00    +0.205 NA
ATOM     12  N   UNL A   1     -27.257 -12.011  34.529  0.00  0.00    +0.205 NA
ENDBRANCH   7  10
ENDBRANCH   1   4
BRANCH   3  13
ATOM     13  C   UNL A   1     -29.538 -12.597  26.877  0.00  0.00    +0.074 A 
ATOM     14  C   UNL A   1     -29.466 -13.948  26.773  0.00  0.00    +0.016 A 
ATOM     15  C   UNL A   1     -29.938 -14.590  25.561  0.00  0.00    +0.001 A 
ATOM     16  C   UNL A   1     -30.307 -13.761  24.478  0.00  0.00    +0.029 A 
ATOM     17  C   UNL A   1     -30.307 -12.387  24.602  0.00  0.00    +0.001 A 
ATOM     18  C   UNL A   1     -29.889 -11.838  25.765  0.00  0.00    +0.016 A 
BRANCH  16  19
ATOM     19  C   UNL A   1     -30.740 -14.375  23.175  0.00  0.00    +0.267 C 
ATOM     20  O   UNL A   1     -30.988 -15.493  22.958  0.00  0.00    -0.194 OA
BRANCH  19  21
ATOM     21  N   UNL A   1     -30.824 -13.506  22.111  0.00  0.00    -0.203 NA
BRANCH  21  22
ATOM     22  C   UNL A   1     -30.035 -13.682  20.931  0.00  0.00    +0.079 C 
ATOM     23  C   UNL A   1     -28.972 -13.012  20.952  0.00  0.00    -0.008 C 
ATOM     24  C   UNL A   1     -28.207 -12.624  20.286  0.00  0.00    +0.032 C 
ENDBRANCH  21  22
ENDBRANCH  19  21
ENDBRANCH  16  19
ENDBRANCH   3  13
TORSDOF 6
ENDMDL
ENDMDL
