MODEL 198
MODEL 1
REMARK VINA RESULT:    -4.687      0.000      0.000
REMARK INTER + INTRA:          -4.687
REMARK INTER:                  -4.687
REMARK INTRA:                   0.000
REMARK UNBOUND:                 0.000
REMARK  Name = No_198-gen_results/8p0m/2024-11-27-11-27-31/
REMARK  0 active torsions:
REMARK  status: ('A' for Active; 'I' for Inactive)
REMARK                            x       y       z     vdW  Elec       q    Type
REMARK                         _______ _______ _______ _____ _____    ______ ____
ROOT
ATOM      1  C   UNL A   1     -10.057  -9.779  18.288  0.00  0.00    +0.030 A 
ATOM      2  C   UNL A   1      -9.098 -10.199  18.170  0.00  0.00    +0.140 A 
ATOM      3  C   UNL A   1     -10.305  -9.085  19.608  0.00  0.00    +0.002 A 
ATOM      4  C   UNL A   1      -9.446  -9.101  20.455  0.00  0.00    +0.000 A 
ATOM      5  C   UNL A   1      -8.058 -10.245  18.980  0.00  0.00    +0.030 A 
ATOM      6  C   UNL A   1      -8.176  -9.678  20.225  0.00  0.00    +0.002 A 
ATOM      7  F   UNL A   1      -8.866 -10.810  16.877  0.00  0.00    -0.204 F 
ENDROOT
TORSDOF 0
ENDMDL
ENDMDL
