REMARK  Name = outputs/IAG933/test6/raw/output_199_IAG933_linker_design_.xyz
REMARK  14 active torsions:
REMARK  status: ('A' for Active; 'I' for Inactive)
REMARK    1  A    between atoms: C_1  and  C_2
REMARK    2  A    between atoms: C_1  and  C_8
REMARK    3  A    between atoms: C_1  and  C_42
REMARK    4  A    between atoms: C_13  and  N_34
REMARK    5  A    between atoms: C_14  and  C_15
REMARK    6  A    between atoms: C_21  and  O_22
REMARK    7  A    between atoms: O_22  and  C_23
REMARK    8  A    between atoms: C_23  and  C_24
REMARK    9  A    between atoms: C_28  and  C_32
REMARK   10  A    between atoms: C_28  and  C_37
REMARK   11  A    between atoms: C_29  and  C_33
REMARK   12  A    between atoms: C_29  and  C_40
REMARK   13  A    between atoms: C_33  and  C_37
REMARK   14  A    between atoms: C_40  and  C_42
REMARK                            x       y       z     vdW  Elec       q    Type
REMARK                         _______ _______ _______ _____ _____    ______ ____
ROOT
ATOM      1  O   UNL A   1     -22.602   0.152  29.895  0.00  0.00    -0.287 OA
ATOM      2  F   UNL A   1     -21.042   1.514  28.012  0.00  0.00    -0.219 F 
ATOM      3  N   UNL A   1     -24.513   1.343  27.234  0.00  0.00    -0.230 N 
ATOM      4  O   UNL A   1     -22.862   2.540  26.021  0.00  0.00    -0.271 OA
ATOM      5  C   UNL A   1     -22.280   0.909  27.718  0.00  0.00    +0.299 C 
ATOM      6  C   UNL A   1     -23.198   1.727  26.858  0.00  0.00    +0.274 C 
ATOM      7  C   UNL A   1     -24.551   0.528  28.431  0.00  0.00    +0.088 C 
ATOM      8  C   UNL A   1     -25.515  -0.108  29.104  0.00  0.00    -0.022 C 
ATOM      9  C   UNL A   1     -23.142   0.477  28.820  0.00  0.00    +0.228 C 
ENDROOT
BRANCH   3  10
ATOM     10  C   UNL A   1     -25.688   1.614  26.461  0.00  0.00    +0.096 C 
ATOM     11  C   UNL A   1     -26.250   2.920  26.395  0.00  0.00    +0.091 C 
ATOM     12  C   UNL A   1     -27.438   3.091  25.645  0.00  0.00    +0.108 C 
ATOM     13  N   UNL A   1     -28.075   2.089  25.003  0.00  0.00    -0.208 NA
ATOM     14  C   UNL A   1     -27.543   0.849  25.079  0.00  0.00    +0.255 C 
ATOM     15  C   UNL A   1     -26.354   0.576  25.777  0.00  0.00    +0.207 C 
ATOM     16  F   UNL A   1     -25.860  -0.681  25.795  0.00  0.00    -0.198 F 
BRANCH  11  17
ATOM     17  C   UNL A   1     -25.642   4.093  27.123  0.00  0.00    +0.268 C 
ATOM     18  N   UNL A   1     -25.614   5.252  26.449  0.00  0.00    -0.200 NA
ATOM     19  C   UNL A   1     -25.026   6.479  26.963  0.00  0.00    +0.139 C 
ATOM     20  O   UNL A   1     -25.143   3.966  28.243  0.00  0.00    -0.268 OA
ENDBRANCH  11  17
BRANCH  14  21
ATOM     21  O   UNL A   1     -28.193  -0.208  24.477  0.00  0.00    -0.456 OA
BRANCH  21  22
ATOM     22  C   UNL A   1     -29.460   0.005  23.866  0.00  0.00    +0.243 C 
BRANCH  22  23
ATOM     23  C   UNL A   1     -30.065  -1.377  23.573  0.00  0.00    +0.229 C 
ATOM     24  O   UNL A   1     -30.729  -1.878  24.721  0.00  0.00    -0.216 OA
ENDBRANCH  22  23
ENDBRANCH  21  22
ENDBRANCH  14  21
ENDBRANCH   3  10
BRANCH   8  25
ATOM     25  C   UNL A   1     -24.855  -1.012  30.143  0.00  0.00    +0.058 C 
BRANCH  25  26
ATOM     26  C   UNL A   1     -24.973  -2.505  29.788  0.00  0.00    -0.017 C 
ATOM     27  C   UNL A   1     -23.906  -3.173  29.146  0.00  0.00    -0.004 C 
ATOM     28  C   UNL A   1     -23.989  -4.549  28.853  0.00  0.00    -0.000 C 
ATOM     29  C   UNL A   1     -25.137  -5.280  29.205  0.00  0.00    -0.000 C 
ATOM     30  C   UNL A   1     -26.232  -4.611  29.784  0.00  0.00    -0.000 C 
ATOM     31  C   UNL A   1     -26.155  -3.232  30.065  0.00  0.00    -0.004 C 
ENDBRANCH  25  26
BRANCH  25  32
ATOM     32  C   UNL A   1     -25.387  -0.679  31.571  0.00  0.00    +0.081 C 
ATOM     33  C   UNL A   1     -25.189   0.773  32.028  0.00  0.00    +0.019 C 
ATOM     34  C   UNL A   1     -25.336   0.684  33.544  0.00  0.00    +0.020 C 
ATOM     35  C   UNL A   1     -24.829  -0.715  33.905  0.00  0.00    +0.089 C 
ATOM     36  N   UNL A   1     -24.758  -1.481  32.646  0.00  0.00    -0.219 NA
ENDBRANCH  25  32
ENDBRANCH   8  25
BRANCH   8  37
ATOM     37  C   UNL A   1     -26.994   0.163  28.751  0.00  0.00    +0.024 C 
BRANCH  37  38
ATOM     38  C   UNL A   1     -28.343   0.861  29.173  0.00  0.00    +0.004 C 
BRANCH  38  39
ATOM     39  C   UNL A   1     -29.121   1.898  28.387  0.00  0.00    +0.000 C 
BRANCH  39  40
ATOM     40  C   UNL A   1     -28.727   3.085  28.820  0.00  0.00    +0.003 C 
BRANCH  40  41
ATOM     41  C   UNL A   1     -28.922   3.886  30.120  0.00  0.00    +0.035 C 
BRANCH  41  42
ATOM     42  C   UNL A   1     -27.624   4.471  30.642  0.00  0.00    +0.182 C 
ATOM     43  O   UNL A   1     -27.053   3.417  31.395  0.00  0.00    -0.220 OA
ENDBRANCH  41  42
ENDBRANCH  40  41
ENDBRANCH  39  40
ENDBRANCH  38  39
ENDBRANCH  37  38
ENDBRANCH   8  37
TORSDOF 14
