MODEL 1990
MODEL 1
REMARK VINA RESULT:    -9.304      0.000      0.000
REMARK INTER + INTRA:         -13.477
REMARK INTER:                 -12.024
REMARK INTRA:                  -1.453
REMARK UNBOUND:                -1.453
REMARK  Name = No_1990-gen_results/8p0m/2024-11-27-11-27-31/
REMARK  5 active torsions:
REMARK  status: ('A' for Active; 'I' for Inactive)
REMARK    1  A    between atoms: C_5  and  C_12
REMARK    2  A    between atoms: C_19  and  C_20
REMARK    3  A    between atoms: C_21  and  O_26
REMARK    4  A    between atoms: O_26  and  C_27
REMARK    5  A    between atoms: C_27  and  C_28
REMARK                            x       y       z     vdW  Elec       q    Type
REMARK                         _______ _______ _______ _____ _____    ______ ____
ROOT
ATOM      1  C   UNL A   1     -22.330  -0.557  30.048  0.00  0.00    +0.120 C 
ATOM      2  C   UNL A   1     -22.552   0.104  29.060  0.00  0.00    -0.006 A 
ATOM      3  C   UNL A   1     -23.797   0.379  28.596  0.00  0.00    -0.019 A 
ATOM      4  C   UNL A   1     -24.086   1.187  27.390  0.00  0.00    -0.000 A 
ATOM      5  C   UNL A   1     -22.960   1.729  26.687  0.00  0.00    +0.071 A 
ATOM      6  C   UNL A   1     -21.685   1.480  27.243  0.00  0.00    +0.004 A 
ATOM      7  C   UNL A   1     -21.493   0.720  28.368  0.00  0.00    -0.003 A 
ATOM      8  N   UNL A   1     -23.215  -0.546  31.122  0.00  0.00    -0.276 N 
ATOM      9  C   UNL A   1     -23.304  -0.882  32.162  0.00  0.00    +0.226 C 
ATOM     10  O   UNL A   1     -22.309  -1.486  32.666  0.00  0.00    -0.275 OA
ATOM     11  C   UNL A   1     -24.264  -0.382  33.217  0.00  0.00    +0.085 C 
ATOM     12  C   UNL A   1     -25.095   0.508  32.980  0.00  0.00    +0.011 C 
ATOM     13  C   UNL A   1     -25.249   0.894  31.562  0.00  0.00    +0.021 C 
ATOM     14  C   UNL A   1     -24.299   0.564  30.654  0.00  0.00    +0.084 C 
ATOM     15  C   UNL A   1     -24.750   0.657  29.408  0.00  0.00    +0.066 C 
ENDROOT
BRANCH  15  16
ATOM     16  C   UNL A   1     -26.099   1.019  29.087  0.00  0.00    +0.019 A 
ATOM     17  C   UNL A   1     -27.016   0.260  28.651  0.00  0.00    +0.145 A 
ATOM     18  C   UNL A   1     -28.305   0.724  28.264  0.00  0.00    +0.038 A 
ATOM     19  C   UNL A   1     -26.600   2.362  29.361  0.00  0.00    +0.011 A 
ATOM     20  C   UNL A   1     -27.796   2.881  29.073  0.00  0.00    +0.058 A 
ATOM     21  C   UNL A   1     -28.733   2.035  28.532  0.00  0.00    +0.015 A 
ATOM     22 CL   UNL A   1     -28.239   4.508  29.392  0.00  0.00    -0.082 Cl
BRANCH  17  23
ATOM     23  O   UNL A   1     -26.766  -1.024  28.546  0.00  0.00    -0.421 OA
BRANCH  23  24
ATOM     24  C   UNL A   1     -26.729  -1.861  29.577  0.00  0.00    +0.346 C 
ATOM     25  O   UNL A   1     -27.340  -1.590  30.613  0.00  0.00    -0.244 OA
BRANCH  24  26
ATOM     26  C   UNL A   1     -25.948  -2.923  29.387  0.00  0.00    +0.076 A 
ATOM     27  C   UNL A   1     -24.796  -2.934  28.778  0.00  0.00    +0.006 A 
ATOM     28  C   UNL A   1     -23.945  -4.081  28.556  0.00  0.00    +0.000 A 
ATOM     29  C   UNL A   1     -24.486  -5.295  28.941  0.00  0.00    +0.000 A 
ATOM     30  C   UNL A   1     -25.677  -5.411  29.532  0.00  0.00    +0.000 A 
ATOM     31  C   UNL A   1     -26.417  -4.260  29.787  0.00  0.00    +0.006 A 
ENDBRANCH  24  26
ENDBRANCH  23  24
ENDBRANCH  17  23
ENDBRANCH  15  16
BRANCH   5  32
ATOM     32  C   UNL A   1     -23.114   2.537  25.522  0.00  0.00    +0.419 C 
ATOM     33  F   UNL A   1     -23.609   3.472  25.459  0.00  0.00    -0.166 F 
ATOM     34  F   UNL A   1     -23.766   1.652  24.478  0.00  0.00    -0.166 F 
ATOM     35  F   UNL A   1     -21.818   2.582  24.860  0.00  0.00    -0.166 F 
ENDBRANCH   5  32
TORSDOF 5
ENDMDL
ENDMDL
