REMARK  Name = outputs/IAG933/test6/raw/output_1990_IAG933_linker_design_.xyz
REMARK  15 active torsions:
REMARK  status: ('A' for Active; 'I' for Inactive)
REMARK    1  A    between atoms: C_1  and  C_2
REMARK    2  A    between atoms: C_1  and  C_8
REMARK    3  A    between atoms: C_1  and  C_31
REMARK    4  A    between atoms: C_13  and  C_37
REMARK    5  A    between atoms: C_14  and  C_15
REMARK    6  A    between atoms: C_21  and  O_22
REMARK    7  A    between atoms: O_22  and  C_23
REMARK    8  A    between atoms: C_23  and  C_24
REMARK    9  A    between atoms: C_30  and  C_32
REMARK   10  A    between atoms: C_30  and  C_40
REMARK   11  A    between atoms: C_32  and  C_34
REMARK   12  A    between atoms: C_34  and  C_35
REMARK   13  A    between atoms: C_36  and  C_38
REMARK   14  A    between atoms: C_36  and  C_40
REMARK   15  A    between atoms: C_38  and  C_46
REMARK                            x       y       z     vdW  Elec       q    Type
REMARK                         _______ _______ _______ _____ _____    ______ ____
ROOT
ATOM      1  C   UNL A   1     -22.445   1.077  27.755  0.00  0.00    +0.119 C 
ATOM      2  C   UNL A   1     -24.455  -0.238  28.839  0.00  0.00    +0.080 C 
ATOM      3  C   UNL A   1     -25.554   0.770  28.566  0.00  0.00    +0.087 C 
ATOM      4  C   UNL A   1     -24.709   1.414  27.284  0.00  0.00    -0.015 C 
ATOM      5  O   UNL A   1     -22.181  -0.415  29.727  0.00  0.00    -0.290 OA
ATOM      6  C   UNL A   1     -23.434   1.634  26.852  0.00  0.00    -0.006 C 
ATOM      7  C   UNL A   1     -22.955   0.161  28.855  0.00  0.00    +0.190 C 
ATOM      8  C   UNL A   1     -23.048   2.251  25.410  0.00  0.00    +0.032 C 
ATOM      9  N   UNL A   1     -21.094   1.376  27.612  0.00  0.00    -0.125 NA
ENDROOT
BRANCH   4  10
ATOM     10  C   UNL A   1     -25.688   1.614  26.461  0.00  0.00    +0.034 C 
ATOM     11  C   UNL A   1     -26.250   2.920  26.395  0.00  0.00    +0.076 C 
ATOM     12  C   UNL A   1     -27.438   3.091  25.645  0.00  0.00    +0.107 C 
ATOM     13  N   UNL A   1     -28.075   2.089  25.003  0.00  0.00    -0.208 NA
ATOM     14  C   UNL A   1     -27.543   0.849  25.079  0.00  0.00    +0.253 C 
ATOM     15  C   UNL A   1     -26.354   0.576  25.777  0.00  0.00    +0.193 C 
ATOM     16  F   UNL A   1     -25.860  -0.681  25.795  0.00  0.00    -0.199 F 
BRANCH  11  17
ATOM     17  C   UNL A   1     -25.642   4.093  27.123  0.00  0.00    +0.266 C 
ATOM     18  N   UNL A   1     -25.614   5.252  26.449  0.00  0.00    -0.200 NA
ATOM     19  C   UNL A   1     -25.026   6.479  26.963  0.00  0.00    +0.139 C 
ATOM     20  O   UNL A   1     -25.143   3.966  28.243  0.00  0.00    -0.268 OA
ENDBRANCH  11  17
BRANCH  14  21
ATOM     21  O   UNL A   1     -28.193  -0.208  24.477  0.00  0.00    -0.456 OA
BRANCH  21  22
ATOM     22  C   UNL A   1     -29.460   0.005  23.866  0.00  0.00    +0.243 C 
BRANCH  22  23
ATOM     23  C   UNL A   1     -30.065  -1.377  23.573  0.00  0.00    +0.229 C 
ATOM     24  O   UNL A   1     -30.729  -1.878  24.721  0.00  0.00    -0.216 OA
ENDBRANCH  22  23
ENDBRANCH  21  22
ENDBRANCH  14  21
ENDBRANCH   4  10
BRANCH   3  25
ATOM     25  C   UNL A   1     -26.984   0.471  29.092  0.00  0.00    +0.155 C 
ATOM     26  O   UNL A   1     -27.536  -0.660  28.988  0.00  0.00    -0.296 OA
BRANCH  25  27
ATOM     27  C   UNL A   1     -27.714   1.573  29.781  0.00  0.00    +0.065 C 
BRANCH  27  28
ATOM     28  C   UNL A   1     -28.809   1.296  30.781  0.00  0.00    +0.008 C 
BRANCH  28  29
ATOM     29  C   UNL A   1     -28.505   1.808  32.219  0.00  0.00    +0.001 C 
BRANCH  29  30
ATOM     30  C   UNL A   1     -28.804   0.975  33.264  0.00  0.00    +0.004 C 
BRANCH  30  31
ATOM     31  C   UNL A   1     -30.156   0.965  33.709  0.00  0.00    +0.022 C 
BRANCH  31  34
ATOM     32  C   UNL A   1     -31.930   2.240  32.418  0.00  0.00    +0.026 C 
ATOM     33  C   UNL A   1     -31.350  -0.173  31.928  0.00  0.00    -0.009 C 
ATOM     34  C   UNL A   1     -31.121   0.930  32.678  0.00  0.00    -0.044 C 
ENDBRANCH  31  34
ENDBRANCH  30  31
ENDBRANCH  29  30
ENDBRANCH  28  29
ENDBRANCH  27  28
ENDBRANCH  25  27
ENDBRANCH   3  25
BRANCH   2  35
ATOM     35  C   UNL A   1     -24.855  -1.012  30.143  0.00  0.00    +0.046 C 
BRANCH  35  36
ATOM     36  C   UNL A   1     -24.973  -2.505  29.788  0.00  0.00    -0.021 C 
ATOM     37  C   UNL A   1     -23.906  -3.173  29.146  0.00  0.00    -0.004 C 
ATOM     38  C   UNL A   1     -23.989  -4.549  28.853  0.00  0.00    -0.000 C 
ATOM     39  C   UNL A   1     -25.137  -5.280  29.205  0.00  0.00    -0.000 C 
ATOM     40  C   UNL A   1     -26.232  -4.611  29.784  0.00  0.00    -0.000 C 
ATOM     41  C   UNL A   1     -26.155  -3.232  30.065  0.00  0.00    -0.004 C 
ENDBRANCH  35  36
BRANCH  35  42
ATOM     42  C   UNL A   1     -25.387  -0.679  31.571  0.00  0.00    +0.077 C 
ATOM     43  C   UNL A   1     -25.189   0.773  32.028  0.00  0.00    +0.019 C 
ATOM     44  C   UNL A   1     -25.336   0.684  33.544  0.00  0.00    +0.020 C 
ATOM     45  C   UNL A   1     -24.829  -0.715  33.905  0.00  0.00    +0.089 C 
ATOM     46  N   UNL A   1     -24.758  -1.481  32.646  0.00  0.00    -0.219 NA
ENDBRANCH  35  42
ENDBRANCH   2  35
TORSDOF 15
