MODEL 1991
MODEL 1
REMARK VINA RESULT:    -5.289      0.000      0.000
REMARK INTER + INTRA:          -6.741
REMARK INTER:                  -6.216
REMARK INTRA:                  -0.525
REMARK UNBOUND:                -0.525
REMARK  Name = No_1991-gen_results/8p0m/2024-11-27-11-27-31/
REMARK  3 active torsions:
REMARK  status: ('A' for Active; 'I' for Inactive)
REMARK    1  A    between atoms: C_3  and  C_8
REMARK    2  A    between atoms: C_8  and  C_9
REMARK    3  A    between atoms: C_8  and  C_12
REMARK                            x       y       z     vdW  Elec       q    Type
REMARK                         _______ _______ _______ _____ _____    ______ ____
ROOT
ATOM      1  C   UNL A   1     -26.113  -4.495  29.602  0.00  0.00    +0.029 A 
ATOM      2  C   UNL A   1     -26.107  -3.354  30.001  0.00  0.00    -0.002 A 
ATOM      3  C   UNL A   1     -25.037  -2.506  29.738  0.00  0.00    -0.014 A 
ATOM      4  C   UNL A   1     -23.879  -2.975  29.020  0.00  0.00    -0.002 A 
ATOM      5  C   UNL A   1     -23.959  -4.314  28.617  0.00  0.00    +0.029 A 
ATOM      6  C   UNL A   1     -24.987  -5.079  28.906  0.00  0.00    +0.140 A 
ATOM      7  F   UNL A   1     -24.990  -6.332  28.492  0.00  0.00    -0.204 F 
ENDROOT
BRANCH   3   8
ATOM      8  C   UNL A   1     -24.922  -1.067  30.181  0.00  0.00    +0.096 C 
BRANCH   8   9
ATOM      9  C   UNL A   1     -23.769  -0.592  30.770  0.00  0.00    +0.234 C 
ATOM     10 CL   UNL A   1     -23.222  -1.193  32.175  0.00  0.00    -0.043 Cl
ATOM     11  O   UNL A   1     -23.161   0.444  30.276  0.00  0.00    -0.279 OA
ENDBRANCH   8   9
BRANCH   8  12
ATOM     12  C   UNL A   1     -26.063  -0.199  30.153  0.00  0.00    +0.013 C 
ATOM     13  C   UNL A   1     -26.633   0.071  31.441  0.00  0.00    +0.001 C 
ENDBRANCH   8  12
ENDBRANCH   3   8
TORSDOF 3
ENDMDL
ENDMDL
