MODEL 1992
MODEL 1
REMARK VINA RESULT:    -5.454      0.000      0.000
REMARK INTER + INTRA:          -5.454
REMARK INTER:                  -5.454
REMARK INTRA:                   0.000
REMARK UNBOUND:                 0.000
REMARK  Name = No_1992-gen_results/8p0m/2024-11-27-11-27-31/
REMARK  0 active torsions:
REMARK  status: ('A' for Active; 'I' for Inactive)
REMARK                            x       y       z     vdW  Elec       q    Type
REMARK                         _______ _______ _______ _____ _____    ______ ____
ROOT
ATOM      1  C   UNL A   1     -24.989  -5.291  29.010  0.00  0.00    +0.000 A 
ATOM      2  C   UNL A   1     -25.898  -4.940  29.411  0.00  0.00    +0.000 A 
ATOM      3  C   UNL A   1     -23.938  -4.232  28.758  0.00  0.00    +0.000 A 
ATOM      4  C   UNL A   1     -24.171  -2.910  29.193  0.00  0.00    +0.000 A 
ATOM      5  C   UNL A   1     -26.375  -3.655  29.972  0.00  0.00    +0.000 A 
ATOM      6  C   UNL A   1     -25.432  -2.658  29.764  0.00  0.00    +0.000 A 
ATOM      7  C   UNL A   1     -23.227  -1.870  28.967  0.00  0.00    +0.000 A 
ATOM      8  C   UNL A   1     -23.287  -0.834  29.353  0.00  0.00    +0.000 A 
ATOM      9  C   UNL A   1     -24.568  -0.435  30.031  0.00  0.00    +0.000 A 
ATOM     10  C   UNL A   1     -25.606  -1.298  30.164  0.00  0.00    +0.000 A 
ENDROOT
TORSDOF 0
ENDMDL
ENDMDL
