REMARK  Name = outputs/IAG933/test6/raw/output_1992_IAG933_linker_design_.xyz
REMARK  9 active torsions:
REMARK  status: ('A' for Active; 'I' for Inactive)
REMARK    1  A    between atoms: C_1  and  C_2
REMARK    2  A    between atoms: C_1  and  C_8
REMARK    3  A    between atoms: C_1  and  N_35
REMARK    4  A    between atoms: C_21  and  O_22
REMARK    5  A    between atoms: O_22  and  C_23
REMARK    6  A    between atoms: C_23  and  C_24
REMARK    7  A    between atoms: C_31  and  C_37
REMARK    8  A    between atoms: N_32  and  C_39
REMARK    9  A    between atoms: N_35  and  C_36
REMARK                            x       y       z     vdW  Elec       q    Type
REMARK                         _______ _______ _______ _____ _____    ______ ____
ROOT
ATOM      1  C   UNL A   1     -25.688   1.614  26.461  0.00  0.00    +0.026 C 
ATOM      2  C   UNL A   1     -26.250   2.920  26.395  0.00  0.00    +0.071 C 
ATOM      3  C   UNL A   1     -25.642   4.093  27.123  0.00  0.00    +0.230 C 
ATOM      4  N   UNL A   1     -25.614   5.252  26.449  0.00  0.00    -0.235 NA
ATOM      5  C   UNL A   1     -25.026   6.479  26.963  0.00  0.00    +0.155 C 
ATOM      6  O   UNL A   1     -25.143   3.966  28.243  0.00  0.00    -0.406 OA
ATOM      7  C   UNL A   1     -27.438   3.091  25.645  0.00  0.00    +0.106 C 
ATOM      8  N   UNL A   1     -28.075   2.089  25.003  0.00  0.00    -0.208 NA
ATOM      9  C   UNL A   1     -27.543   0.849  25.079  0.00  0.00    +0.253 C 
ATOM     10  C   UNL A   1     -26.354   0.576  25.777  0.00  0.00    +0.190 C 
ATOM     11  F   UNL A   1     -25.860  -0.681  25.795  0.00  0.00    -0.200 F 
ATOM     12  C   UNL A   1     -24.833   3.399  29.408  0.00  0.00    +0.325 C 
ATOM     13  C   UNL A   1     -23.586   2.471  29.701  0.00  0.00    +0.144 C 
ATOM     14  C   UNL A   1     -23.256   1.111  29.075  0.00  0.00    +0.180 C 
ATOM     15  C   UNL A   1     -24.443   1.490  27.211  0.00  0.00    +0.122 C 
ATOM     16  O   UNL A   1     -22.490   0.177  29.690  0.00  0.00    -0.221 OA
ATOM     17  C   UNL A   1     -24.270   0.427  28.218  0.00  0.00    +0.117 C 
ATOM     18  O   UNL A   1     -25.422   3.696  30.470  0.00  0.00    -0.250 OA
ENDROOT
BRANCH  15  21
ATOM     19  N   UNL A   1     -22.099   1.321  26.787  0.00  0.00    -0.092 N 
ATOM     20  O   UNL A   1     -23.306   2.957  25.681  0.00  0.00    -0.272 OA
ATOM     21  C   UNL A   1     -23.242   2.001  26.525  0.00  0.00    +0.259 C 
ATOM     22  F   UNL A   1     -21.288   1.543  25.827  0.00  0.00    -0.103 F 
BRANCH  19  23
ATOM     23  C   UNL A   1     -21.027   1.360  27.534  0.00  0.00    +0.310 C 
ATOM     24  O   UNL A   1     -20.178   1.499  28.179  0.00  0.00    -0.193 OA
ENDBRANCH  19  23
ENDBRANCH  15  21
BRANCH   9  25
ATOM     25  O   UNL A   1     -28.193  -0.208  24.477  0.00  0.00    -0.456 OA
BRANCH  25  26
ATOM     26  C   UNL A   1     -29.460   0.005  23.866  0.00  0.00    +0.243 C 
BRANCH  26  27
ATOM     27  C   UNL A   1     -30.065  -1.377  23.573  0.00  0.00    +0.229 C 
ATOM     28  O   UNL A   1     -30.729  -1.878  24.721  0.00  0.00    -0.216 OA
ENDBRANCH  26  27
ENDBRANCH  25  26
ENDBRANCH   9  25
BRANCH  17  29
ATOM     29  N   UNL A   1     -25.312  -0.069  29.128  0.00  0.00    -0.212 NA
BRANCH  29  30
ATOM     30  C   UNL A   1     -24.855  -1.012  30.143  0.00  0.00    +0.111 C 
BRANCH  30  31
ATOM     31  C   UNL A   1     -24.973  -2.505  29.788  0.00  0.00    -0.005 C 
ATOM     32  C   UNL A   1     -23.906  -3.173  29.146  0.00  0.00    -0.003 C 
ATOM     33  C   UNL A   1     -23.989  -4.549  28.853  0.00  0.00    -0.000 C 
ATOM     34  C   UNL A   1     -25.137  -5.280  29.205  0.00  0.00    -0.000 C 
ATOM     35  C   UNL A   1     -26.232  -4.611  29.784  0.00  0.00    -0.000 C 
ATOM     36  C   UNL A   1     -26.155  -3.232  30.065  0.00  0.00    -0.003 C 
ENDBRANCH  30  31
BRANCH  30  37
ATOM     37  C   UNL A   1     -25.387  -0.679  31.571  0.00  0.00    +0.093 C 
ATOM     38  C   UNL A   1     -25.189   0.773  32.028  0.00  0.00    +0.021 C 
ATOM     39  C   UNL A   1     -25.336   0.684  33.544  0.00  0.00    +0.020 C 
ATOM     40  C   UNL A   1     -24.829  -0.715  33.905  0.00  0.00    +0.089 C 
ATOM     41  N   UNL A   1     -24.758  -1.481  32.646  0.00  0.00    -0.218 NA
ENDBRANCH  30  37
ENDBRANCH  29  30
ENDBRANCH  17  29
TORSDOF 9
