MODEL 1993
MODEL 1
REMARK VINA RESULT:    -6.503      0.000      0.000
REMARK INTER + INTRA:          -7.789
REMARK INTER:                  -7.263
REMARK INTRA:                  -0.526
REMARK UNBOUND:                -0.526
REMARK  Name = No_1993-gen_results/8p0m/2024-11-27-11-27-31/
REMARK  2 active torsions:
REMARK  status: ('A' for Active; 'I' for Inactive)
REMARK    1  A    between atoms: C_3  and  C_4
REMARK    2  A    between atoms: C_4  and  C_8
REMARK                            x       y       z     vdW  Elec       q    Type
REMARK                         _______ _______ _______ _____ _____    ______ ____
ROOT
ATOM      1  C   UNL A   1     -24.694  -1.163  29.381  0.00  0.00    +0.053 C 
ENDROOT
BRANCH   1   4
ATOM      2  C   UNL A   1     -23.844  -3.484  28.591  0.00  0.00    -0.004 A 
ATOM      3  C   UNL A   1     -24.093  -4.508  28.612  0.00  0.00    -0.000 A 
ATOM      4  C   UNL A   1     -24.859  -2.622  29.197  0.00  0.00    -0.018 A 
ATOM      5  C   UNL A   1     -25.221  -5.283  29.108  0.00  0.00    -0.000 A 
ATOM      6  C   UNL A   1     -26.207  -4.504  29.677  0.00  0.00    -0.000 A 
ATOM      7  C   UNL A   1     -26.028  -3.175  29.782  0.00  0.00    -0.004 A 
ENDBRANCH   1   4
BRANCH   1   8
ATOM      8  C   UNL A   1     -23.983  -0.489  28.544  0.00  0.00    -0.018 A 
ATOM      9  C   UNL A   1     -24.677   0.007  27.334  0.00  0.00    -0.004 A 
ATOM     10  C   UNL A   1     -24.058   1.067  26.584  0.00  0.00    -0.000 A 
ATOM     11  C   UNL A   1     -22.788   1.549  26.986  0.00  0.00    -0.000 A 
ATOM     12  C   UNL A   1     -22.152   1.039  28.084  0.00  0.00    -0.000 A 
ATOM     13  C   UNL A   1     -22.736   0.059  28.880  0.00  0.00    -0.004 A 
ENDBRANCH   1   8
TORSDOF 2
ENDMDL
ENDMDL
