MODEL 1994
MODEL 1
REMARK VINA RESULT:    -8.107      0.000      0.000
REMARK INTER + INTRA:         -10.971
REMARK INTER:                 -10.003
REMARK INTRA:                  -0.968
REMARK UNBOUND:                -0.968
REMARK  Name = No_1994-gen_results/8p0m/2024-11-27-11-27-31/
REMARK  4 active torsions:
REMARK  status: ('A' for Active; 'I' for Inactive)
REMARK    1  A    between atoms: C_2  and  C_3
REMARK    2  A    between atoms: C_6  and  C_7
REMARK    3  A    between atoms: C_7  and  N_14
REMARK    4  A    between atoms: N_14  and  C_15
REMARK                            x       y       z     vdW  Elec       q    Type
REMARK                         _______ _______ _______ _____ _____    ______ ____
ROOT
ATOM      1  C   UNL A   1     -24.590   0.156  27.294  0.00  0.00    -0.003 A 
ATOM      2  C   UNL A   1     -24.687   1.028  26.462  0.00  0.00    -0.000 A 
ATOM      3  C   UNL A   1     -23.384   0.170  28.170  0.00  0.00    -0.001 A 
ATOM      4  C   UNL A   1     -22.363   1.102  27.770  0.00  0.00    -0.003 A 
ATOM      5  C   UNL A   1     -22.386   1.927  26.752  0.00  0.00    -0.000 A 
ATOM      6  C   UNL A   1     -23.541   1.964  26.052  0.00  0.00    -0.000 A 
ENDROOT
BRANCH   2   7
ATOM      7  C   UNL A   1     -25.762   1.196  25.606  0.00  0.00    -0.000 A 
ATOM      8  C   UNL A   1     -26.424   2.459  25.635  0.00  0.00    -0.000 A 
ATOM      9  C   UNL A   1     -27.510   2.736  24.883  0.00  0.00    -0.000 A 
ATOM     10  C   UNL A   1     -28.045   1.713  24.019  0.00  0.00    +0.000 A 
ATOM     11  C   UNL A   1     -27.462   0.479  23.945  0.00  0.00    -0.000 A 
ATOM     12  C   UNL A   1     -26.321   0.194  24.761  0.00  0.00    -0.000 A 
ENDBRANCH   2   7
BRANCH   3  13
ATOM     13  C   UNL A   1     -23.157  -0.830  29.185  0.00  0.00    +0.139 C 
BRANCH  13  14
ATOM     14  N   UNL A   1     -23.104  -2.089  28.912  0.00  0.00    -0.233 NA
BRANCH  14  15
ATOM     15  C   UNL A   1     -24.071  -3.020  29.148  0.00  0.00    +0.066 A 
ATOM     16  C   UNL A   1     -23.962  -4.178  28.857  0.00  0.00    +0.016 A 
ATOM     17  C   UNL A   1     -25.030  -5.195  28.970  0.00  0.00    +0.001 A 
ATOM     18  C   UNL A   1     -26.189  -4.770  29.594  0.00  0.00    +0.000 A 
ATOM     19  C   UNL A   1     -25.302  -2.515  29.770  0.00  0.00    +0.016 A 
ATOM     20  C   UNL A   1     -26.330  -3.421  29.984  0.00  0.00    +0.001 A 
ENDBRANCH  14  15
ENDBRANCH  13  14
ENDBRANCH   3  13
TORSDOF 4
ENDMDL
ENDMDL
