MODEL 1995
MODEL 1
REMARK VINA RESULT:    -4.490      0.000      0.000
REMARK INTER + INTRA:          -4.490
REMARK INTER:                  -4.490
REMARK INTRA:                   0.000
REMARK UNBOUND:                 0.000
REMARK  Name = No_1995-gen_results/8p0m/2024-11-27-11-27-31/
REMARK  0 active torsions:
REMARK  status: ('A' for Active; 'I' for Inactive)
REMARK                            x       y       z     vdW  Elec       q    Type
REMARK                         _______ _______ _______ _____ _____    ______ ____
ROOT
ATOM      1  C   UNL A   1     -24.072  -4.320  28.711  0.00  0.00    +0.030 A 
ATOM      2  C   UNL A   1     -24.937  -4.885  28.918  0.00  0.00    +0.140 A 
ATOM      3  C   UNL A   1     -24.157  -2.850  29.057  0.00  0.00    +0.002 A 
ATOM      4  C   UNL A   1     -25.289  -2.367  29.746  0.00  0.00    +0.000 A 
ATOM      5  C   UNL A   1     -26.204  -4.641  29.644  0.00  0.00    +0.030 A 
ATOM      6  C   UNL A   1     -26.315  -3.301  29.985  0.00  0.00    +0.002 A 
ATOM      7  F   UNL A   1     -24.845  -6.297  28.595  0.00  0.00    -0.204 F 
ENDROOT
TORSDOF 0
ENDMDL
ENDMDL
