MODEL 1996
MODEL 1
REMARK VINA RESULT:    -5.159      0.000      0.000
REMARK INTER + INTRA:          -5.503
REMARK INTER:                  -5.461
REMARK INTRA:                  -0.042
REMARK UNBOUND:                -0.042
REMARK  Name = No_1996-gen_results/8p0m/2024-11-27-11-27-31/
REMARK  1 active torsions:
REMARK  status: ('A' for Active; 'I' for Inactive)
REMARK    1  A    between atoms: C_2  and  C_8
REMARK                            x       y       z     vdW  Elec       q    Type
REMARK                         _______ _______ _______ _____ _____    ______ ____
ROOT
ATOM      1  C   UNL A   1     -28.914 -10.432  32.784  0.00  0.00    +0.007 A 
ATOM      2  C   UNL A   1     -28.185 -11.164  32.577  0.00  0.00    +0.080 A 
ATOM      3  C   UNL A   1     -29.793 -10.041  31.617  0.00  0.00    +0.007 A 
ATOM      4  C   UNL A   1     -29.688 -10.754  30.404  0.00  0.00    +0.035 A 
ATOM      5  C   UNL A   1     -27.894 -12.067  31.440  0.00  0.00    +0.007 A 
ATOM      6  C   UNL A   1     -28.687 -11.741  30.349  0.00  0.00    +0.007 A 
ATOM      7 BR   UNL A   1     -30.708 -10.321  28.952  0.00  0.00    -0.049 Br
ENDROOT
BRANCH   2   8
ATOM      8  C   UNL A   1     -27.231 -11.612  33.825  0.00  0.00    +0.388 C 
ATOM      9  O   UNL A   1     -27.025 -10.748  34.803  0.00  0.00    -0.241 OA
ATOM     10  O   UNL A   1     -26.834 -12.749  33.862  0.00  0.00    -0.241 OA
ENDBRANCH   2   8
TORSDOF 1
ENDMDL
ENDMDL
