REMARK  Name = outputs/IAG933/test6/raw/output_1996_IAG933_linker_design_.xyz
REMARK  11 active torsions:
REMARK  status: ('A' for Active; 'I' for Inactive)
REMARK    1  A    between atoms: C_1  and  C_2
REMARK    2  A    between atoms: C_1  and  C_8
REMARK    3  A    between atoms: C_1  and  C_29
REMARK    4  A    between atoms: C_13  and  C_37
REMARK    5  A    between atoms: C_14  and  C_15
REMARK    6  A    between atoms: C_21  and  O_22
REMARK    7  A    between atoms: O_22  and  C_23
REMARK    8  A    between atoms: C_23  and  C_24
REMARK    9  A    between atoms: C_36  and  C_39
REMARK   10  A    between atoms: C_39  and  N_41
REMARK   11  A    between atoms: C_40  and  N_41
REMARK                            x       y       z     vdW  Elec       q    Type
REMARK                         _______ _______ _______ _____ _____    ______ ____
ROOT
ATOM      1  C   UNL A   1     -23.553   1.529  27.252  0.00  0.00    +0.090 A 
ATOM      2  C   UNL A   1     -24.472  -0.162  29.377  0.00  0.00    +0.080 A 
ATOM      3  N   UNL A   1     -21.301   1.343  28.203  0.00  0.00    -0.106 NA
ATOM      4  C   UNL A   1     -22.661   1.046  28.241  0.00  0.00    +0.180 A 
ATOM      5  N   UNL A   1     -23.197   0.241  29.216  0.00  0.00    -0.230 NA
ATOM      6 CL   UNL A   1     -22.895   2.312  25.787  0.00  0.00    -0.080 Cl
ATOM      7  C   UNL A   1     -24.936   1.178  27.399  0.00  0.00    +0.014 A 
ATOM      8  C   UNL A   1     -25.512   0.315  28.429  0.00  0.00    +0.076 A 
ENDROOT
BRANCH   7   9
ATOM      9  C   UNL A   1     -25.688   1.614  26.461  0.00  0.00    +0.095 C 
ATOM     10  C   UNL A   1     -26.250   2.920  26.395  0.00  0.00    +0.059 C 
ATOM     11  C   UNL A   1     -27.438   3.091  25.645  0.00  0.00    +0.102 C 
ATOM     12  N   UNL A   1     -28.075   2.089  25.003  0.00  0.00    -0.212 NA
ATOM     13  C   UNL A   1     -27.543   0.849  25.079  0.00  0.00    +0.234 C 
ATOM     14  C   UNL A   1     -26.354   0.576  25.777  0.00  0.00    +0.244 C 
ATOM     15  F   UNL A   1     -25.860  -0.681  25.795  0.00  0.00    -0.227 F 
BRANCH  10  16
ATOM     16  C   UNL A   1     -25.642   4.093  27.123  0.00  0.00    +0.263 C 
ATOM     17  N   UNL A   1     -25.614   5.252  26.449  0.00  0.00    -0.200 NA
ATOM     18  C   UNL A   1     -25.026   6.479  26.963  0.00  0.00    +0.139 C 
ATOM     19  O   UNL A   1     -25.143   3.966  28.243  0.00  0.00    -0.269 OA
ENDBRANCH  10  16
BRANCH  13  20
ATOM     20  O   UNL A   1     -28.193  -0.208  24.477  0.00  0.00    -0.459 OA
BRANCH  20  21
ATOM     21  C   UNL A   1     -29.460   0.005  23.866  0.00  0.00    +0.242 C 
BRANCH  21  22
ATOM     22  C   UNL A   1     -30.065  -1.377  23.573  0.00  0.00    +0.229 C 
ATOM     23  O   UNL A   1     -30.729  -1.878  24.721  0.00  0.00    -0.216 OA
ENDBRANCH  21  22
ENDBRANCH  20  21
ENDBRANCH  13  20
ENDBRANCH   7   9
BRANCH   2  24
ATOM     24  C   UNL A   1     -24.855  -1.012  30.143  0.00  0.00    +0.080 C 
BRANCH  24  25
ATOM     25  C   UNL A   1     -24.973  -2.505  29.788  0.00  0.00    -0.015 C 
ATOM     26  C   UNL A   1     -23.906  -3.173  29.146  0.00  0.00    -0.004 C 
ATOM     27  C   UNL A   1     -23.989  -4.549  28.853  0.00  0.00    -0.000 C 
ATOM     28  C   UNL A   1     -25.137  -5.280  29.205  0.00  0.00    -0.000 C 
ATOM     29  C   UNL A   1     -26.232  -4.611  29.784  0.00  0.00    -0.000 C 
ATOM     30  C   UNL A   1     -26.155  -3.232  30.065  0.00  0.00    -0.004 C 
ENDBRANCH  24  25
BRANCH  24  31
ATOM     31  C   UNL A   1     -25.387  -0.679  31.571  0.00  0.00    +0.082 C 
ATOM     32  C   UNL A   1     -25.189   0.773  32.028  0.00  0.00    +0.020 C 
ATOM     33  C   UNL A   1     -25.336   0.684  33.544  0.00  0.00    +0.020 C 
ATOM     34  C   UNL A   1     -24.829  -0.715  33.905  0.00  0.00    +0.089 C 
ATOM     35  N   UNL A   1     -24.758  -1.481  32.646  0.00  0.00    -0.219 NA
ENDBRANCH  24  31
ENDBRANCH   2  24
BRANCH   8  36
ATOM     36  N   UNL A   1     -26.937  -0.388  28.729  0.00  0.00    -0.238 NA
BRANCH  36  38
ATOM     37  C   UNL A   1     -30.007  -1.373  28.660  0.00  0.00    +0.023 C 
ATOM     38  C   UNL A   1     -28.675  -0.614  28.386  0.00  0.00    +0.092 C 
BRANCH  38  41
ATOM     39  C   UNL A   1     -30.312   0.981  27.440  0.00  0.00    +0.002 C 
ATOM     40  C   UNL A   1     -29.053   1.319  30.165  0.00  0.00    +0.002 C 
ATOM     41  C   UNL A   1     -29.273   0.905  28.625  0.00  0.00    +0.020 C 
ENDBRANCH  38  41
ENDBRANCH  36  38
ENDBRANCH   8  36
TORSDOF 11
