MODEL 1997
MODEL 1
REMARK VINA RESULT:    -5.409      0.000      0.000
REMARK INTER + INTRA:          -5.809
REMARK INTER:                  -5.725
REMARK INTRA:                  -0.084
REMARK UNBOUND:                -0.084
REMARK  Name = No_1997-gen_results/8p0m/2024-11-27-11-27-31/
REMARK  1 active torsions:
REMARK  status: ('A' for Active; 'I' for Inactive)
REMARK    1  A    between atoms: C_2  and  C_3
REMARK                            x       y       z     vdW  Elec       q    Type
REMARK                         _______ _______ _______ _____ _____    ______ ____
ROOT
ATOM      1  C   UNL A   1     -24.061  -2.693  29.061  0.00  0.00    +0.055 A 
ATOM      2  C   UNL A   1     -23.985  -4.162  28.779  0.00  0.00    +0.005 A 
ATOM      3  C   UNL A   1     -24.919  -5.194  28.976  0.00  0.00    +0.000 A 
ATOM      4  C   UNL A   1     -26.143  -4.780  29.607  0.00  0.00    +0.000 A 
ATOM      5  C   UNL A   1     -26.347  -3.478  29.923  0.00  0.00    +0.000 A 
ATOM      6  C   UNL A   1     -25.450  -2.537  29.734  0.00  0.00    +0.005 A 
ENDROOT
BRANCH   1   8
ATOM      7  O   UNL A   1     -22.249  -1.545  29.061  0.00  0.00    -0.268 OA
ATOM      8  C   UNL A   1     -23.437  -1.869  28.952  0.00  0.00    +0.265 C 
ATOM      9  N   UNL A   1     -24.227  -0.694  28.172  0.00  0.00    -0.200 NA
ATOM     10  C   UNL A   1     -23.511   0.540  27.831  0.00  0.00    +0.139 C 
ENDBRANCH   1   8
TORSDOF 1
ENDMDL
ENDMDL
