MODEL 1998
MODEL 1
REMARK VINA RESULT:    -6.617      0.000      0.000
REMARK INTER + INTRA:          -8.139
REMARK INTER:                  -7.391
REMARK INTRA:                  -0.748
REMARK UNBOUND:                -0.748
REMARK  Name = No_1998-gen_results/8p0m/2024-11-27-11-27-31/
REMARK  2 active torsions:
REMARK  status: ('A' for Active; 'I' for Inactive)
REMARK    1  A    between atoms: C_3  and  C_7
REMARK    2  A    between atoms: C_11  and  C_13
REMARK                            x       y       z     vdW  Elec       q    Type
REMARK                         _______ _______ _______ _____ _____    ______ ____
ROOT
ATOM      1  C   UNL A   1     -24.319  -0.898  28.262  0.00  0.00    -0.000 A 
ATOM      2  C   UNL A   1     -24.788  -0.409  27.180  0.00  0.00    -0.000 A 
ATOM      3  C   UNL A   1     -24.168   0.830  26.684  0.00  0.00    -0.000 A 
ATOM      4  C   UNL A   1     -23.358   1.428  27.424  0.00  0.00    -0.000 A 
ATOM      5  C   UNL A   1     -23.316  -0.230  28.977  0.00  0.00    -0.000 A 
ATOM      6  C   UNL A   1     -22.854   0.918  28.606  0.00  0.00    -0.000 A 
ENDROOT
BRANCH   1   9
ATOM      7  C   UNL A   1     -24.125  -3.457  28.504  0.00  0.00    -0.000 A 
ATOM      8  C   UNL A   1     -24.603  -4.304  28.909  0.00  0.00    +0.000 A 
ATOM      9  C   UNL A   1     -24.856  -2.210  28.726  0.00  0.00    -0.000 A 
ATOM     10  C   UNL A   1     -26.040  -2.172  29.420  0.00  0.00    -0.000 A 
ATOM     11  C   UNL A   1     -25.824  -4.559  29.674  0.00  0.00    +0.000 A 
ATOM     12  C   UNL A   1     -26.538  -3.358  29.895  0.00  0.00    +0.000 A 
ENDBRANCH   1   9
BRANCH   5  13
ATOM     13  C   UNL A   1     -23.000  -0.948  30.242  0.00  0.00    -0.005 C 
ATOM     14  C   UNL A   1     -23.283  -0.532  31.521  0.00  0.00    -0.026 C 
ATOM     15  C   UNL A   1     -23.086  -1.342  32.610  0.00  0.00    +0.031 C 
ENDBRANCH   5  13
TORSDOF 2
ENDMDL
ENDMDL
