MODEL 19
MODEL 1
REMARK VINA RESULT:    -7.408      0.000      0.000
REMARK INTER + INTRA:          -9.453
REMARK INTER:                  -8.707
REMARK INTRA:                  -0.746
REMARK UNBOUND:                -0.746
REMARK  Name = No_19-gen_results/8p0m/2024-11-27-11-27-31/
REMARK  3 active torsions:
REMARK  status: ('A' for Active; 'I' for Inactive)
REMARK    1  A    between atoms: C_3  and  C_7
REMARK    2  A    between atoms: C_7  and  C_8
REMARK    3  A    between atoms: C_8  and  C_9
REMARK                            x       y       z     vdW  Elec       q    Type
REMARK                         _______ _______ _______ _____ _____    ______ ____
ROOT
ATOM      1  C   UNL A   1     -23.982  -0.713  30.085  0.00  0.00    +0.011 C 
ENDROOT
BRANCH   1   2
ATOM      2  C   UNL A   1     -23.174  -0.118  29.148  0.00  0.00    +0.069 C 
ATOM      3  C   UNL A   1     -21.768  -0.219  29.179  0.00  0.00    +0.031 C 
ATOM      4  C   UNL A   1     -20.937   0.458  28.193  0.00  0.00    -0.028 C 
ATOM      5  C   UNL A   1     -21.450   1.566  27.545  0.00  0.00    +0.009 C 
ATOM      6  C   UNL A   1     -22.807   1.761  27.574  0.00  0.00    +0.243 C 
ATOM      7  C   UNL A   1     -23.633   1.035  28.355  0.00  0.00    +0.297 C 
ATOM      8  F   UNL A   1     -23.606   1.983  29.094  0.00  0.00    -0.201 F 
ATOM      9  F   UNL A   1     -23.330   2.638  26.765  0.00  0.00    -0.227 F 
ATOM     10  F   UNL A   1     -23.686   0.067  27.212  0.00  0.00    -0.201 F 
ENDBRANCH   1   2
BRANCH   1  11
ATOM     11  C   UNL A   1     -25.211  -1.190  29.921  0.00  0.00    +0.029 C 
BRANCH  11  14
ATOM     12  C   UNL A   1     -24.145  -3.270  28.924  0.00  0.00    +0.136 A 
ATOM     13  C   UNL A   1     -24.158  -4.317  28.802  0.00  0.00    +0.029 A 
ATOM     14  C   UNL A   1     -25.254  -2.701  29.634  0.00  0.00    +0.005 A 
ATOM     15  C   UNL A   1     -26.334  -3.406  29.986  0.00  0.00    -0.002 A 
ATOM     16  C   UNL A   1     -26.296  -4.747  29.720  0.00  0.00    -0.000 A 
ATOM     17  C   UNL A   1     -25.195  -5.280  29.104  0.00  0.00    +0.002 A 
ATOM     18  F   UNL A   1     -24.419  -2.855  27.819  0.00  0.00    -0.204 F 
ENDBRANCH  11  14
ENDBRANCH   1  11
TORSDOF 3
ENDMDL
ENDMDL
