MODEL 1
MODEL 1
REMARK VINA RESULT:    -4.282      0.000      0.000
REMARK INTER + INTRA:          -4.282
REMARK INTER:                  -4.282
REMARK INTRA:                   0.000
REMARK UNBOUND:                 0.000
REMARK  Name = No_1-gen_results/8p0m/2024-11-27-11-27-31/
REMARK  0 active torsions:
REMARK  status: ('A' for Active; 'I' for Inactive)
REMARK                            x       y       z     vdW  Elec       q    Type
REMARK                         _______ _______ _______ _____ _____    ______ ____
ROOT
ATOM      1  C   UNL A   1     -26.084  -4.801  29.655  0.00  0.00    +0.000 A 
ATOM      2  C   UNL A   1     -26.192  -3.598  29.706  0.00  0.00    +0.000 A 
ATOM      3  C   UNL A   1     -25.200  -2.723  29.305  0.00  0.00    +0.000 A 
ATOM      4  C   UNL A   1     -24.003  -3.274  28.768  0.00  0.00    +0.000 A 
ATOM      5  C   UNL A   1     -23.998  -4.613  28.574  0.00  0.00    +0.000 A 
ATOM      6  C   UNL A   1     -25.011  -5.369  28.952  0.00  0.00    +0.000 A 
ENDROOT
TORSDOF 0
ENDMDL
ENDMDL
