REMARK  Name = No_2-gen_results/8p0m/2024-11-27-11-27-31/
REMARK  2 active torsions:
REMARK  status: ('A' for Active; 'I' for Inactive)
REMARK    1  A    between atoms: C_3  and  C_8
REMARK    2  A    between atoms: C_8  and  C_9
REMARK                            x       y       z     vdW  Elec       q    Type
REMARK                         _______ _______ _______ _____ _____    ______ ____
ROOT
ATOM      1  C   UNL A   1     -28.016  -0.814  28.878  0.00  0.00    +0.011 A 
ATOM      2  C   UNL A   1     -27.064  -0.119  28.608  0.00  0.00    -0.003 A 
ATOM      3  C   UNL A   1     -25.765  -0.390  29.036  0.00  0.00    -0.014 A 
ATOM      4  C   UNL A   1     -25.530  -1.530  29.901  0.00  0.00    -0.003 A 
ATOM      5  C   UNL A   1     -26.689  -2.289  30.181  0.00  0.00    +0.011 A 
ATOM      6  C   UNL A   1     -27.873  -1.951  29.737  0.00  0.00    +0.058 A 
ATOM      7 CL   UNL A   1     -29.194  -2.923  30.219  0.00  0.00    -0.082 Cl
ENDROOT
BRANCH   3   8
ATOM      8  C   UNL A   1     -24.533   0.419  28.725  0.00  0.00    +0.105 C 
BRANCH   8   9
ATOM      9  C   UNL A   1     -24.093   1.408  29.563  0.00  0.00    +0.223 C 
ATOM     10  N   UNL A   1     -23.020   2.143  29.148  0.00  0.00    -0.120 NA
ATOM     11  F   UNL A   1     -24.704   1.704  30.610  0.00  0.00    -0.186 F 
ENDBRANCH   8   9
ENDBRANCH   3   8
TORSDOF 2
