REMARK  Name = No_20-gen_results/8p0m/2024-11-27-11-27-31/
REMARK  5 active torsions:
REMARK  status: ('A' for Active; 'I' for Inactive)
REMARK    1  A    between atoms: C_1  and  C_2
REMARK    2  A    between atoms: C_1  and  N_8
REMARK    3  A    between atoms: C_5  and  C_23
REMARK    4  A    between atoms: C_10  and  C_26
REMARK    5  A    between atoms: C_15  and  C_16
REMARK                            x       y       z     vdW  Elec       q    Type
REMARK                         _______ _______ _______ _____ _____    ______ ____
ROOT
ATOM      1  N   UNL A   1     -28.700  -0.644  30.077  0.00  0.00    -0.262 NA
ATOM      2  C   UNL A   1     -29.803  -1.365  30.506  0.00  0.00    +0.106 C 
ATOM      3  C   UNL A   1     -30.375  -2.179  29.745  0.00  0.00    +0.074 C 
ATOM      4  C   UNL A   1     -30.458  -3.517  30.221  0.00  0.00    +0.003 C 
ATOM      5  C   UNL A   1     -29.657  -4.082  30.422  0.00  0.00    -0.002 C 
ATOM      6  C   UNL A   1     -28.222  -3.623  30.493  0.00  0.00    +0.007 C 
ATOM      7  C   UNL A   1     -28.059  -2.384  31.116  0.00  0.00    +0.190 C 
ATOM      8  C   UNL A   1     -28.607  -1.264  31.028  0.00  0.00    +0.111 C 
ATOM      9  O   UNL A   1     -26.699  -2.333  31.662  0.00  0.00    -0.217 OA
ENDROOT
BRANCH   8  10
ATOM     10  C   UNL A   1     -28.332  -0.536  32.307  0.00  0.00    +0.106 C 
ATOM     11  C   UNL A   1     -27.033  -0.054  32.524  0.00  0.00    -0.010 C 
ATOM     12  C   UNL A   1     -26.625   0.644  33.600  0.00  0.00    -0.004 C 
ATOM     13  C   UNL A   1     -27.524   1.111  34.512  0.00  0.00    -0.005 C 
ATOM     14  C   UNL A   1     -28.849   0.732  34.359  0.00  0.00    -0.025 C 
ATOM     15  C   UNL A   1     -29.273  -0.081  33.292  0.00  0.00    +0.047 C 
ATOM     16 CL   UNL A   1     -27.811  -0.755  33.236  0.00  0.00    -0.110 Cl
ENDBRANCH   8  10
BRANCH   3  17
ATOM     17  C   UNL A   1     -31.207  -1.729  28.636  0.00  0.00    +0.385 C 
ATOM     18  O   UNL A   1     -31.161  -0.607  28.211  0.00  0.00    -0.241 OA
ATOM     19  O   UNL A   1     -31.997  -2.519  28.049  0.00  0.00    -0.241 OA
ENDBRANCH   3  17
BRANCH   1  20
ATOM     20  C   UNL A   1     -28.016  -0.814  28.878  0.00  0.00    +0.100 C 
BRANCH  20  21
ATOM     21  C   UNL A   1     -27.064  -0.119  28.608  0.00  0.00    -0.006 A 
ATOM     22  C   UNL A   1     -26.929   1.171  29.008  0.00  0.00    -0.003 A 
ATOM     23  C   UNL A   1     -25.770   2.034  28.688  0.00  0.00    +0.006 A 
ATOM     24  C   UNL A   1     -24.714   1.443  27.919  0.00  0.00    +0.080 A 
ATOM     25  C   UNL A   1     -24.859   0.078  27.584  0.00  0.00    +0.006 A 
ATOM     26  C   UNL A   1     -25.965  -0.661  27.916  0.00  0.00    -0.003 A 
BRANCH  24  27
ATOM     27  C   UNL A   1     -23.523   2.163  27.605  0.00  0.00    +0.388 C 
ATOM     28  O   UNL A   1     -22.822   2.514  28.389  0.00  0.00    -0.241 OA
ATOM     29  O   UNL A   1     -23.333   2.305  26.256  0.00  0.00    -0.241 OA
ENDBRANCH  24  27
ENDBRANCH  20  21
ENDBRANCH   1  20
TORSDOF 5
