REMARK  Name = No_200-gen_results/8p0m/2024-11-27-11-27-31/
REMARK  8 active torsions:
REMARK  status: ('A' for Active; 'I' for Inactive)
REMARK    1  A    between atoms: C_2  and  C_16
REMARK    2  A    between atoms: C_3  and  C_4
REMARK    3  A    between atoms: C_4  and  C_8
REMARK    4  A    between atoms: C_8  and  C_9
REMARK    5  A    between atoms: C_12  and  O_20
REMARK    6  A    between atoms: O_20  and  C_21
REMARK    7  A    between atoms: C_31  and  C_33
REMARK    8  A    between atoms: C_33  and  C_34
REMARK                            x       y       z     vdW  Elec       q    Type
REMARK                         _______ _______ _______ _____ _____    ______ ____
ROOT
ATOM      1  C   UNL A   1     -25.626   1.472  26.819  0.00  0.00    +0.000 A 
ATOM      2  C   UNL A   1     -24.816   1.966  27.965  0.00  0.00    +0.001 A 
ATOM      3  C   UNL A   1     -24.427   3.354  28.018  0.00  0.00    +0.037 A 
ATOM      4  C   UNL A   1     -24.793   4.146  26.905  0.00  0.00    +0.139 A 
ATOM      5  C   UNL A   1     -25.385   3.655  25.743  0.00  0.00    +0.037 A 
ATOM      6  C   UNL A   1     -25.773   2.366  25.768  0.00  0.00    +0.001 A 
ENDROOT
BRANCH   1   7
ATOM      7  C   UNL A   1     -25.926   0.282  26.744  0.00  0.00    +0.163 C 
ATOM      8 CL   UNL A   1     -26.163  -0.508  25.214  0.00  0.00    -0.102 Cl
BRANCH   7   9
ATOM      9  C   UNL A   1     -25.654  -0.660  27.719  0.00  0.00    +0.192 C 
ATOM     10  O   UNL A   1     -24.617  -1.319  27.825  0.00  0.00    -0.290 OA
BRANCH   9  13
ATOM     11  C   UNL A   1     -28.016  -0.814  28.878  0.00  0.00    +0.009 A 
ATOM     12  C   UNL A   1     -28.469  -0.785  29.829  0.00  0.00    +0.080 A 
ATOM     13  C   UNL A   1     -26.504  -0.778  28.877  0.00  0.00    +0.036 A 
ATOM     14  C   UNL A   1     -27.918  -0.937  31.182  0.00  0.00    +0.007 A 
ATOM     15  C   UNL A   1     -26.542  -0.940  31.261  0.00  0.00    +0.000 A 
ATOM     16  C   UNL A   1     -25.783  -0.893  30.120  0.00  0.00    +0.003 A 
BRANCH  12  17
ATOM     17  C   UNL A   1     -30.054  -0.755  29.867  0.00  0.00    +0.388 C 
ATOM     18  O   UNL A   1     -30.632  -1.723  30.151  0.00  0.00    -0.241 OA
ATOM     19  O   UNL A   1     -30.608   0.319  29.459  0.00  0.00    -0.241 OA
ENDBRANCH  12  17
ENDBRANCH   9  13
ENDBRANCH   7   9
ENDBRANCH   1   7
BRANCH   4  20
ATOM     20  O   UNL A   1     -24.350   5.454  26.981  0.00  0.00    -0.477 OA
BRANCH  20  21
ATOM     21  C   UNL A   1     -25.007   6.451  26.298  0.00  0.00    +0.190 C 
ATOM     22  C   UNL A   1     -25.184   7.590  27.363  0.00  0.00    +0.142 C 
ATOM     23  N   UNL A   1     -25.950   7.305  28.379  0.00  0.00    -0.255 N 
ATOM     24  C   UNL A   1     -26.797   6.508  28.554  0.00  0.00    +0.050 A 
ATOM     25  C   UNL A   1     -27.349   6.193  29.378  0.00  0.00    +0.015 A 
ATOM     26  C   UNL A   1     -28.362   5.114  29.592  0.00  0.00    +0.001 A 
ATOM     27  C   UNL A   1     -28.575   4.391  28.407  0.00  0.00    -0.000 A 
ATOM     28  C   UNL A   1     -27.940   4.672  27.276  0.00  0.00    -0.003 A 
ATOM     29  C   UNL A   1     -27.052   5.685  27.268  0.00  0.00    -0.005 A 
ATOM     30  C   UNL A   1     -26.482   6.149  26.047  0.00  0.00    +0.073 C 
ATOM     31  C   UNL A   1     -25.418   8.096  29.614  0.00  0.00    +0.234 C 
ATOM     32  O   UNL A   1     -26.039   7.760  30.681  0.00  0.00    -0.274 OA
BRANCH  31  33
ATOM     33  C   UNL A   1     -24.423   9.067  29.510  0.00  0.00    +0.112 C 
BRANCH  33  34
ATOM     34  C   UNL A   1     -23.441   8.973  30.464  0.00  0.00    -0.017 C 
ATOM     35  C   UNL A   1     -23.460   8.354  31.645  0.00  0.00    -0.004 C 
ENDBRANCH  33  34
ENDBRANCH  31  33
ENDBRANCH  20  21
ENDBRANCH   4  20
TORSDOF 8
