MODEL 2000
MODEL 1
REMARK VINA RESULT:    -3.943      0.000      0.000
REMARK INTER + INTRA:          -4.524
REMARK INTER:                  -4.404
REMARK INTRA:                  -0.120
REMARK UNBOUND:                -0.120
REMARK  Name = No_2000-gen_results/8p0m/2024-11-27-11-27-31/
REMARK  2 active torsions:
REMARK  status: ('A' for Active; 'I' for Inactive)
REMARK    1  A    between atoms: C_2  and  C_3
REMARK    2  A    between atoms: C_4  and  C_5
REMARK                            x       y       z     vdW  Elec       q    Type
REMARK                         _______ _______ _______ _____ _____    ______ ____
ROOT
ATOM      1  C   UNL A   1     -27.988 -12.020  31.095  0.00  0.00    -0.002 C 
ATOM      2  C   UNL A   1     -27.288 -12.395  32.308  0.00  0.00    +0.009 C 
ENDROOT
BRANCH   1   4
ATOM      3  C   UNL A   1     -29.677 -10.737  30.214  0.00  0.00    -0.026 C 
ATOM      4  C   UNL A   1     -29.033 -11.100  31.172  0.00  0.00    -0.005 C 
ATOM      5  C   UNL A   1     -29.442 -11.299  28.918  0.00  0.00    +0.031 C 
ENDBRANCH   1   4
BRANCH   2   6
ATOM      6  C   UNL A   1     -27.800 -11.793  33.479  0.00  0.00    +0.208 C 
ATOM      7  O   UNL A   1     -27.365 -12.356  34.624  0.00  0.00    -0.215 OA
ENDBRANCH   2   6
TORSDOF 2
ENDMDL
ENDMDL
