REMARK  Name = No_2000-gen_results/8p0m/2024-11-27-11-27-31/
REMARK  2 active torsions:
REMARK  status: ('A' for Active; 'I' for Inactive)
REMARK    1  A    between atoms: C_2  and  C_3
REMARK    2  A    between atoms: C_4  and  C_5
REMARK                            x       y       z     vdW  Elec       q    Type
REMARK                         _______ _______ _______ _____ _____    ______ ____
ROOT
ATOM      1  C   UNL A   1     -25.765  -0.390  29.036  0.00  0.00    -0.002 C 
ATOM      2  C   UNL A   1     -25.530  -1.530  29.901  0.00  0.00    +0.009 C 
ENDROOT
BRANCH   1   4
ATOM      3  C   UNL A   1     -28.016  -0.814  28.878  0.00  0.00    -0.026 C 
ATOM      4  C   UNL A   1     -27.064  -0.119  28.608  0.00  0.00    -0.005 C 
ATOM      5  C   UNL A   1     -27.873  -1.951  29.737  0.00  0.00    +0.031 C 
ENDBRANCH   1   4
BRANCH   2   6
ATOM      6  C   UNL A   1     -26.689  -2.289  30.181  0.00  0.00    +0.208 C 
ATOM      7  O   UNL A   1     -26.451  -3.426  30.866  0.00  0.00    -0.215 OA
ENDBRANCH   2   6
TORSDOF 2
