REMARK  Name = outputs/IAG933/test6/raw/output_2001_IAG933_linker_design_.xyz
REMARK  17 active torsions:
REMARK  status: ('A' for Active; 'I' for Inactive)
REMARK    1  A    between atoms: C_1  and  C_2
REMARK    2  A    between atoms: C_1  and  C_8
REMARK    3  A    between atoms: C_1  and  N_39
REMARK    4  A    between atoms: C_13  and  C_41
REMARK    5  A    between atoms: C_14  and  C_15
REMARK    6  A    between atoms: C_21  and  O_22
REMARK    7  A    between atoms: O_22  and  C_23
REMARK    8  A    between atoms: C_23  and  C_24
REMARK    9  A    between atoms: C_28  and  C_34
REMARK   10  A    between atoms: O_29  and  C_45
REMARK   11  A    between atoms: O_29  and  C_47
REMARK   12  A    between atoms: C_30  and  C_37
REMARK   13  A    between atoms: C_30  and  C_45
REMARK   14  A    between atoms: C_32  and  C_38
REMARK   15  A    between atoms: C_34  and  C_47
REMARK   16  A    between atoms: C_37  and  C_46
REMARK   17  A    between atoms: N_42  and  C_44
REMARK                            x       y       z     vdW  Elec       q    Type
REMARK                         _______ _______ _______ _____ _____    ______ ____
ROOT
ATOM      1  C   UNL A   1     -23.097   0.098  29.335  0.00  0.00    +0.075 C 
ATOM      2  C   UNL A   1     -23.393   1.369  27.359  0.00  0.00    +0.085 C 
ATOM      3  N   UNL A   1     -24.757  -0.048  29.147  0.00  0.00    -0.253 NA
ATOM      4  C   UNL A   1     -22.521   1.310  28.618  0.00  0.00    +0.034 C 
ATOM      5  C   UNL A   1     -24.812   1.361  27.596  0.00  0.00    +0.058 C 
ATOM      6  C   UNL A   1     -25.605   0.944  28.670  0.00  0.00    +0.157 C 
ATOM      7 CL   UNL A   1     -22.440   1.883  26.031  0.00  0.00    -0.115 Cl
ENDROOT
BRANCH   5   8
ATOM      8  C   UNL A   1     -25.688   1.614  26.461  0.00  0.00    +0.074 C 
ATOM      9  C   UNL A   1     -26.250   2.920  26.395  0.00  0.00    +0.055 C 
ATOM     10  C   UNL A   1     -27.438   3.091  25.645  0.00  0.00    +0.102 C 
ATOM     11  N   UNL A   1     -28.075   2.089  25.003  0.00  0.00    -0.212 NA
ATOM     12  C   UNL A   1     -27.543   0.849  25.079  0.00  0.00    +0.234 C 
ATOM     13  C   UNL A   1     -26.354   0.576  25.777  0.00  0.00    +0.240 C 
ATOM     14  F   UNL A   1     -25.860  -0.681  25.795  0.00  0.00    -0.227 F 
BRANCH   9  15
ATOM     15  C   UNL A   1     -25.642   4.093  27.123  0.00  0.00    +0.262 C 
ATOM     16  N   UNL A   1     -25.614   5.252  26.449  0.00  0.00    -0.200 NA
ATOM     17  C   UNL A   1     -25.026   6.479  26.963  0.00  0.00    +0.139 C 
ATOM     18  O   UNL A   1     -25.143   3.966  28.243  0.00  0.00    -0.269 OA
ENDBRANCH   9  15
BRANCH  12  19
ATOM     19  O   UNL A   1     -28.193  -0.208  24.477  0.00  0.00    -0.459 OA
BRANCH  19  20
ATOM     20  C   UNL A   1     -29.460   0.005  23.866  0.00  0.00    +0.242 C 
BRANCH  20  21
ATOM     21  C   UNL A   1     -30.065  -1.377  23.573  0.00  0.00    +0.229 C 
ATOM     22  O   UNL A   1     -30.729  -1.878  24.721  0.00  0.00    -0.216 OA
ENDBRANCH  20  21
ENDBRANCH  19  20
ENDBRANCH  12  19
ENDBRANCH   5   8
BRANCH   6  24
ATOM     23  C   UNL A   1     -28.241   1.876  29.473  0.00  0.00    +0.266 C 
ATOM     24  N   UNL A   1     -26.801   1.675  29.174  0.00  0.00    -0.187 NA
ATOM     25  O   UNL A   1     -28.984   1.023  29.077  0.00  0.00    -0.268 OA
BRANCH  23  27
ATOM     26  C   UNL A   1     -30.230   3.970  30.039  0.00  0.00    +0.065 C 
ATOM     27  C   UNL A   1     -28.704   3.181  30.189  0.00  0.00    +0.062 C 
BRANCH  26  29
ATOM     28  O   UNL A   1     -29.332   5.387  31.756  0.00  0.00    -0.241 OA
ATOM     29  C   UNL A   1     -29.950   5.430  30.719  0.00  0.00    +0.384 C 
ATOM     30  O   UNL A   1     -30.394   6.724  30.352  0.00  0.00    -0.241 OA
ENDBRANCH  26  29
BRANCH  26  31
ATOM     31  C   UNL A   1     -31.711   4.371  29.591  0.00  0.00    +0.065 C 
BRANCH  31  32
ATOM     32  C   UNL A   1     -31.854   5.266  28.342  0.00  0.00    +0.147 C 
BRANCH  32  33
ATOM     33  O   UNL A   1     -31.710   4.468  27.206  0.00  0.00    -0.353 OA
BRANCH  33  34
ATOM     34  C   UNL A   1     -31.645   5.026  25.881  0.00  0.00    +0.142 C 
BRANCH  34  35
ATOM     35  C   UNL A   1     -31.065   3.841  25.065  0.00  0.00    +0.032 C 
BRANCH  35  36
ATOM     36  C   UNL A   1     -31.634   2.462  25.517  0.00  0.00    +0.003 C 
ATOM     37  C   UNL A   1     -31.070   1.646  26.696  0.00  0.00    +0.000 C 
ENDBRANCH  35  36
ENDBRANCH  34  35
ENDBRANCH  33  34
ENDBRANCH  32  33
ENDBRANCH  31  32
ENDBRANCH  26  31
ENDBRANCH  23  27
ENDBRANCH   6  24
BRANCH   3  38
ATOM     38  C   UNL A   1     -24.855  -1.012  30.143  0.00  0.00    +0.098 C 
BRANCH  38  39
ATOM     39  C   UNL A   1     -24.973  -2.505  29.788  0.00  0.00    -0.006 C 
ATOM     40  C   UNL A   1     -23.906  -3.173  29.146  0.00  0.00    -0.003 C 
ATOM     41  C   UNL A   1     -23.989  -4.549  28.853  0.00  0.00    -0.000 C 
ATOM     42  C   UNL A   1     -25.137  -5.280  29.205  0.00  0.00    -0.000 C 
ATOM     43  C   UNL A   1     -26.232  -4.611  29.784  0.00  0.00    -0.000 C 
ATOM     44  C   UNL A   1     -26.155  -3.232  30.065  0.00  0.00    -0.003 C 
ENDBRANCH  38  39
BRANCH  38  45
ATOM     45  C   UNL A   1     -25.387  -0.679  31.571  0.00  0.00    +0.092 C 
ATOM     46  C   UNL A   1     -25.189   0.773  32.028  0.00  0.00    +0.021 C 
ATOM     47  C   UNL A   1     -25.336   0.684  33.544  0.00  0.00    +0.020 C 
ATOM     48  C   UNL A   1     -24.829  -0.715  33.905  0.00  0.00    +0.089 C 
ATOM     49  N   UNL A   1     -24.758  -1.481  32.646  0.00  0.00    -0.218 NA
ENDBRANCH  38  45
ENDBRANCH   3  38
TORSDOF 17
