MODEL 2002
MODEL 1
REMARK VINA RESULT:    -6.987      0.000      0.000
REMARK INTER + INTRA:          -9.715
REMARK INTER:                  -8.621
REMARK INTRA:                  -1.093
REMARK UNBOUND:                -1.093
REMARK  Name = No_2002-gen_results/8p0m/2024-11-27-11-27-31/
REMARK  4 active torsions:
REMARK  status: ('A' for Active; 'I' for Inactive)
REMARK    1  A    between atoms: C_1  and  C_2
REMARK    2  A    between atoms: C_1  and  C_8
REMARK    3  A    between atoms: C_8  and  C_9
REMARK    4  A    between atoms: C_8  and  C_20
REMARK                            x       y       z     vdW  Elec       q    Type
REMARK                         _______ _______ _______ _____ _____    ______ ____
ROOT
ATOM      1  C   UNL A   1      -9.062   0.526  35.351  0.00  0.00    +0.040 C 
ENDROOT
BRANCH   1   2
ATOM      2  C   UNL A   1      -9.476   0.495  36.487  0.00  0.00    -0.021 A 
ATOM      3  C   UNL A   1      -8.835   1.100  37.551  0.00  0.00    -0.004 A 
ATOM      4  C   UNL A   1      -8.985   0.614  38.848  0.00  0.00    -0.000 A 
ATOM      5  C   UNL A   1      -9.812  -0.319  39.079  0.00  0.00    -0.000 A 
ATOM      6  C   UNL A   1     -10.560  -0.996  38.107  0.00  0.00    -0.004 A 
ATOM      7  C   UNL A   1     -10.260  -0.598  36.823  0.00  0.00    -0.005 A 
ATOM      8  C   UNL A   1     -11.452  -2.106  38.494  0.00  0.00    -0.022 A 
ATOM      9  C   UNL A   1     -11.955  -2.931  37.610  0.00  0.00    +0.031 C 
ATOM     10  C   UNL A   1     -11.846  -2.180  39.906  0.00  0.00    -0.004 A 
ATOM     11  C   UNL A   1     -11.537  -1.312  40.905  0.00  0.00    -0.000 A 
ATOM     12  C   UNL A   1     -10.451  -0.354  40.594  0.00  0.00    -0.000 A 
ENDBRANCH   1   2
BRANCH   1  13
ATOM     13  C   UNL A   1      -9.653   1.675  34.595  0.00  0.00    +0.106 C 
BRANCH  13  14
ATOM     14  C   UNL A   1     -10.834   1.741  34.435  0.00  0.00    -0.013 A 
ATOM     15  C   UNL A   1     -11.610   2.807  35.149  0.00  0.00    -0.004 A 
ATOM     16  C   UNL A   1     -13.045   2.965  35.001  0.00  0.00    -0.000 A 
ATOM     17  C   UNL A   1     -13.613   2.386  34.328  0.00  0.00    -0.000 A 
ATOM     18  C   UNL A   1     -13.027   1.321  33.421  0.00  0.00    -0.000 A 
ATOM     19  C   UNL A   1     -11.653   1.112  33.486  0.00  0.00    -0.004 A 
ENDBRANCH  13  14
BRANCH  13  20
ATOM     20  C   UNL A   1      -8.633   2.743  34.161  0.00  0.00    +0.265 C 
ATOM     21  O   UNL A   1      -7.807   3.148  34.844  0.00  0.00    -0.271 OA
ATOM     22  N   UNL A   1      -8.664   3.090  32.811  0.00  0.00    -0.087 NA
ENDBRANCH  13  20
ENDBRANCH   1  13
TORSDOF 4
ENDMDL
ENDMDL
