REMARK  Name = No_2005-gen_results/8p0m/2024-11-27-11-27-31/
REMARK  5 active torsions:
REMARK  status: ('A' for Active; 'I' for Inactive)
REMARK    1  A    between atoms: C_3  and  C_8
REMARK    2  A    between atoms: C_6  and  O_7
REMARK    3  A    between atoms: O_7  and  C_14
REMARK    4  A    between atoms: C_15  and  C_16
REMARK    5  A    between atoms: C_17  and  C_18
REMARK                            x       y       z     vdW  Elec       q    Type
REMARK                         _______ _______ _______ _____ _____    ______ ____
ROOT
ATOM      1  C   UNL A   1     -28.016  -0.814  28.878  0.00  0.00    +0.037 A 
ATOM      2  C   UNL A   1     -27.064  -0.119  28.608  0.00  0.00    +0.003 A 
ATOM      3  C   UNL A   1     -25.792  -0.430  29.076  0.00  0.00    +0.000 A 
ATOM      4  C   UNL A   1     -25.576  -1.565  29.936  0.00  0.00    +0.003 A 
ATOM      5  C   UNL A   1     -26.735  -2.300  30.217  0.00  0.00    +0.037 A 
ATOM      6  C   UNL A   1     -27.918  -1.954  29.763  0.00  0.00    +0.145 A 
ENDROOT
BRANCH   3   7
ATOM      7  C   UNL A   1     -24.529   0.349  28.800  0.00  0.00    +0.000 A 
ATOM      8  C   UNL A   1     -24.117   1.337  29.665  0.00  0.00    +0.000 A 
ATOM      9  C   UNL A   1     -22.966   2.099  29.366  0.00  0.00    +0.000 A 
ATOM     10  C   UNL A   1     -22.199   1.819  28.189  0.00  0.00    +0.000 A 
ATOM     11  C   UNL A   1     -22.701   0.923  27.291  0.00  0.00    +0.000 A 
ATOM     12  C   UNL A   1     -23.812   0.212  27.579  0.00  0.00    +0.000 A 
ENDBRANCH   3   7
BRANCH   6  13
ATOM     13  O   UNL A   1     -29.000  -2.701  30.115  0.00  0.00    -0.450 OA
BRANCH  13  14
ATOM     14  C   UNL A   1     -30.122  -2.130  30.573  0.00  0.00    +0.179 C 
ATOM     15  C   UNL A   1     -30.208  -1.140  31.061  0.00  0.00    +0.041 C 
BRANCH  15  16
ATOM     16  C   UNL A   1     -30.701  -0.382  31.569  0.00  0.00    +0.003 C 
ATOM     17  C   UNL A   1     -30.297   0.991  32.021  0.00  0.00    +0.000 C 
BRANCH  17  18
ATOM     18  C   UNL A   1     -29.021   1.380  31.676  0.00  0.00    +0.000 C 
ATOM     19  C   UNL A   1     -28.181   0.489  31.133  0.00  0.00    +0.000 C 
ENDBRANCH  17  18
ENDBRANCH  15  16
ENDBRANCH  13  14
ENDBRANCH   6  13
TORSDOF 5
