MODEL 2005
MODEL 1
REMARK VINA RESULT:    -6.187      0.000      0.000
REMARK INTER + INTRA:          -9.156
REMARK INTER:                  -7.995
REMARK INTRA:                  -1.160
REMARK UNBOUND:                -1.160
REMARK  Name = No_2005-gen_results/8p0m/2024-11-27-11-27-31/
REMARK  5 active torsions:
REMARK  status: ('A' for Active; 'I' for Inactive)
REMARK    1  A    between atoms: C_3  and  C_8
REMARK    2  A    between atoms: C_6  and  O_7
REMARK    3  A    between atoms: O_7  and  C_14
REMARK    4  A    between atoms: C_15  and  C_16
REMARK    5  A    between atoms: C_17  and  C_18
REMARK                            x       y       z     vdW  Elec       q    Type
REMARK                         _______ _______ _______ _____ _____    ______ ____
ROOT
ATOM      1  C   UNL A   1     -23.463  -0.133  30.491  0.00  0.00    +0.037 A 
ATOM      2  C   UNL A   1     -24.528  -0.651  30.735  0.00  0.00    +0.003 A 
ATOM      3  C   UNL A   1     -24.907  -1.838  30.119  0.00  0.00    +0.000 A 
ATOM      4  C   UNL A   1     -24.062  -2.466  29.136  0.00  0.00    +0.003 A 
ATOM      5  C   UNL A   1     -22.860  -1.787  28.897  0.00  0.00    +0.037 A 
ATOM      6  C   UNL A   1     -22.556  -0.658  29.494  0.00  0.00    +0.145 A 
ENDROOT
BRANCH   3   7
ATOM      7  C   UNL A   1     -26.199  -2.584  30.347  0.00  0.00    +0.000 A 
ATOM      8  C   UNL A   1     -26.349  -3.874  29.891  0.00  0.00    +0.000 A 
ATOM      9  C   UNL A   1     -27.583  -4.540  30.058  0.00  0.00    +0.000 A 
ATOM     10  C   UNL A   1     -28.666  -3.897  30.741  0.00  0.00    +0.000 A 
ATOM     11  C   UNL A   1     -28.529  -2.580  31.068  0.00  0.00    +0.000 A 
ATOM     12  C   UNL A   1     -27.351  -1.947  30.888  0.00  0.00    +0.000 A 
ENDBRANCH   3   7
BRANCH   6  13
ATOM     13  O   UNL A   1     -21.384  -0.042  29.176  0.00  0.00    -0.450 OA
BRANCH  13  14
ATOM     14  C   UNL A   1     -21.281   0.748  28.099  0.00  0.00    +0.179 C 
ATOM     15  C   UNL A   1     -22.090   1.351  27.642  0.00  0.00    +0.041 C 
BRANCH  15  16
ATOM     16  C   UNL A   1     -22.513   1.962  26.919  0.00  0.00    +0.003 C 
ATOM     17  C   UNL A   1     -23.783   1.893  26.122  0.00  0.00    +0.000 C 
BRANCH  17  18
ATOM     18  C   UNL A   1     -24.608   0.827  26.408  0.00  0.00    +0.000 C 
ATOM     19  C   UNL A   1     -25.136   0.110  25.407  0.00  0.00    +0.000 C 
ENDBRANCH  17  18
ENDBRANCH  15  16
ENDBRANCH  13  14
ENDBRANCH   6  13
TORSDOF 5
ENDMDL
ENDMDL
