REMARK  Name = outputs/IAG933/test6/raw/output_2007_IAG933_linker_design_.xyz
REMARK  20 active torsions:
REMARK  status: ('A' for Active; 'I' for Inactive)
REMARK    1  A    between atoms: C_1  and  C_2
REMARK    2  A    between atoms: C_1  and  C_8
REMARK    3  A    between atoms: C_9  and  C_30
REMARK    4  A    between atoms: C_14  and  C_15
REMARK    5  A    between atoms: C_15  and  O_18
REMARK    6  A    between atoms: O_18  and  C_42
REMARK    7  A    between atoms: C_21  and  O_22
REMARK    8  A    between atoms: O_22  and  C_23
REMARK    9  A    between atoms: C_23  and  C_24
REMARK   10  A    between atoms: O_28  and  C_36
REMARK   11  A    between atoms: C_30  and  S_41
REMARK   12  A    between atoms: C_30  and  C_49
REMARK   13  A    between atoms: C_31  and  C_42
REMARK   14  A    between atoms: C_31  and  C_49
REMARK   15  A    between atoms: C_33  and  C_40
REMARK   16  A    between atoms: C_33  and  C_42
REMARK   17  A    between atoms: C_36  and  O_37
REMARK   18  A    between atoms: O_37  and  C_39
REMARK   19  A    between atoms: C_39  and  C_45
REMARK   20  A    between atoms: S_41  and  C_48
REMARK                            x       y       z     vdW  Elec       q    Type
REMARK                         _______ _______ _______ _____ _____    ______ ____
ROOT
ATOM      1  C   UNL A   1     -25.667   1.961  31.434  0.00  0.00    +0.049 C 
ENDROOT
BRANCH   1   3
ATOM      2  C   UNL A   1     -25.387  -0.679  31.571  0.00  0.00    +0.078 C 
ATOM      3  C   UNL A   1     -25.189   0.773  32.028  0.00  0.00    +0.028 C 
ATOM      4  C   UNL A   1     -25.336   0.684  33.544  0.00  0.00    +0.021 C 
ATOM      5  C   UNL A   1     -24.829  -0.715  33.905  0.00  0.00    +0.089 C 
ATOM      6  N   UNL A   1     -24.758  -1.481  32.646  0.00  0.00    -0.219 NA
BRANCH   2   7
ATOM      7  C   UNL A   1     -24.855  -1.012  30.143  0.00  0.00    +0.044 C 
BRANCH   7   8
ATOM      8  C   UNL A   1     -24.973  -2.505  29.788  0.00  0.00    -0.021 C 
ATOM      9  C   UNL A   1     -23.906  -3.173  29.146  0.00  0.00    -0.004 C 
ATOM     10  C   UNL A   1     -23.989  -4.549  28.853  0.00  0.00    -0.000 C 
ATOM     11  C   UNL A   1     -25.137  -5.280  29.205  0.00  0.00    -0.000 C 
ATOM     12  C   UNL A   1     -26.232  -4.611  29.784  0.00  0.00    -0.000 C 
ATOM     13  C   UNL A   1     -26.155  -3.232  30.065  0.00  0.00    -0.004 C 
ENDBRANCH   7   8
ENDBRANCH   2   7
ENDBRANCH   1   3
BRANCH   1  14
ATOM     14  C   UNL A   1     -25.562   2.237  30.101  0.00  0.00    +0.015 C 
BRANCH  14  15
ATOM     15  C   UNL A   1     -24.113   2.115  29.619  0.00  0.00    +0.044 C 
BRANCH  15  16
ATOM     16  C   UNL A   1     -24.006   3.019  28.364  0.00  0.00    +0.170 C 
BRANCH  16  17
ATOM     17  C   UNL A   1     -23.015   2.423  27.246  0.00  0.00    +0.079 C 
BRANCH  17  18
ATOM     18  C   UNL A   1     -21.917   1.713  27.965  0.00  0.00    +0.186 C 
ATOM     19  O   UNL A   1     -22.175   0.566  28.764  0.00  0.00    -0.220 OA
ENDBRANCH  17  18
ENDBRANCH  16  17
BRANCH  16  20
ATOM     20  O   UNL A   1     -25.143   3.966  28.243  0.00  0.00    -0.464 OA
BRANCH  20  21
ATOM     21  C   UNL A   1     -25.642   4.093  27.123  0.00  0.00    +0.222 C 
ATOM     22  N   UNL A   1     -25.614   5.252  26.449  0.00  0.00    -0.236 NA
ATOM     23  C   UNL A   1     -25.026   6.479  26.963  0.00  0.00    +0.155 C 
BRANCH  21  25
ATOM     24  C   UNL A   1     -25.688   1.614  26.461  0.00  0.00    +0.041 C 
ATOM     25  C   UNL A   1     -26.250   2.920  26.395  0.00  0.00    +0.074 C 
ATOM     26  C   UNL A   1     -27.438   3.091  25.645  0.00  0.00    +0.107 C 
ATOM     27  N   UNL A   1     -28.075   2.089  25.003  0.00  0.00    -0.208 NA
ATOM     28  C   UNL A   1     -27.543   0.849  25.079  0.00  0.00    +0.253 C 
ATOM     29  C   UNL A   1     -26.354   0.576  25.777  0.00  0.00    +0.193 C 
ATOM     30  F   UNL A   1     -25.860  -0.681  25.795  0.00  0.00    -0.199 F 
BRANCH  28  31
ATOM     31  O   UNL A   1     -28.193  -0.208  24.477  0.00  0.00    -0.456 OA
BRANCH  31  32
ATOM     32  C   UNL A   1     -29.460   0.005  23.866  0.00  0.00    +0.243 C 
BRANCH  32  33
ATOM     33  C   UNL A   1     -30.065  -1.377  23.573  0.00  0.00    +0.229 C 
ATOM     34  O   UNL A   1     -30.729  -1.878  24.721  0.00  0.00    -0.216 OA
ENDBRANCH  32  33
ENDBRANCH  31  32
ENDBRANCH  28  31
ENDBRANCH  21  25
ENDBRANCH  20  21
ENDBRANCH  16  20
ENDBRANCH  15  16
ENDBRANCH  14  15
ENDBRANCH   1  14
BRANCH   1  35
ATOM     35  S   UNL A   1     -26.285   3.230  32.531  0.00  0.00    -0.139 S 
BRANCH  35  43
ATOM     36  C   UNL A   1     -26.407   7.311  30.282  0.00  0.00    +0.041 C 
ATOM     37  O   UNL A   1     -27.313   7.699  32.422  0.00  0.00    -0.333 OA
ATOM     38  C   UNL A   1     -25.069   5.327  33.944  0.00  0.00    +0.156 C 
ATOM     39  O   UNL A   1     -25.503   6.654  34.070  0.00  0.00    -0.330 OA
ATOM     40  C   UNL A   1     -26.421   6.906  33.061  0.00  0.00    +0.236 C 
ATOM     41  C   UNL A   1     -26.325   6.024  30.748  0.00  0.00    +0.107 C 
ATOM     42  C   UNL A   1     -25.784   5.686  32.008  0.00  0.00    +0.080 C 
ATOM     43  C   UNL A   1     -25.576   4.677  32.884  0.00  0.00    +0.083 C 
ATOM     44  C   UNL A   1     -27.031   8.145  31.142  0.00  0.00    +0.118 C 
ATOM     45  C   UNL A   1     -27.223   9.673  30.865  0.00  0.00    +0.032 C 
BRANCH  41  47
ATOM     46  O   UNL A   1     -27.648   4.797  28.919  0.00  0.00    -0.250 OA
ATOM     47  C   UNL A   1     -27.496   5.201  30.181  0.00  0.00    +0.319 C 
BRANCH  47  48
ATOM     48  O   UNL A   1     -28.319   5.407  30.856  0.00  0.00    -0.419 OA
BRANCH  48  49
ATOM     49  C   UNL A   1     -29.473   4.160  30.680  0.00  0.00    +0.363 C 
BRANCH  49  50
ATOM     50  O   UNL A   1     -29.094   3.430  30.546  0.00  0.00    -0.313 OA
ATOM     51  C   UNL A   1     -29.568   3.621  29.383  0.00  0.00    +0.178 C 
ENDBRANCH  49  50
ENDBRANCH  48  49
ENDBRANCH  47  48
ENDBRANCH  41  47
ENDBRANCH  35  43
ENDBRANCH   1  35
TORSDOF 20
