MODEL 2007
MODEL 1
REMARK VINA RESULT:    -7.804      0.000      0.000
REMARK INTER + INTRA:          -8.595
REMARK INTER:                  -8.260
REMARK INTRA:                  -0.334
REMARK UNBOUND:                -0.334
REMARK  Name = No_2007-gen_results/8p0m/2024-11-27-11-27-31/
REMARK  1 active torsions:
REMARK  status: ('A' for Active; 'I' for Inactive)
REMARK    1  A    between atoms: C_3  and  C_11
REMARK                            x       y       z     vdW  Elec       q    Type
REMARK                         _______ _______ _______ _____ _____    ______ ____
ROOT
ATOM      1  C   UNL A   1     -26.477  -0.949  30.684  0.00  0.00    +0.000 A 
ATOM      2  C   UNL A   1     -25.590  -0.446  30.033  0.00  0.00    +0.000 A 
ATOM      3  C   UNL A   1     -24.683  -1.140  29.251  0.00  0.00    +0.000 A 
ATOM      4  C   UNL A   1     -24.831  -2.557  29.188  0.00  0.00    +0.000 A 
ATOM      5  C   UNL A   1     -23.948  -3.309  28.525  0.00  0.00    +0.000 A 
ATOM      6  C   UNL A   1     -26.847  -2.310  30.388  0.00  0.00    +0.000 A 
ATOM      7  C   UNL A   1     -25.916  -3.098  29.771  0.00  0.00    +0.000 A 
ATOM      8  C   UNL A   1     -26.144  -4.533  29.689  0.00  0.00    +0.000 A 
ATOM      9  C   UNL A   1     -25.186  -5.370  29.117  0.00  0.00    +0.000 A 
ATOM     10  C   UNL A   1     -24.019  -4.757  28.447  0.00  0.00    +0.000 A 
ENDROOT
BRANCH   3  11
ATOM     11  C   UNL A   1     -23.437  -0.471  28.679  0.00  0.00    +0.000 A 
ATOM     12  C   UNL A   1     -23.687   0.644  27.751  0.00  0.00    +0.000 A 
ATOM     13  C   UNL A   1     -22.508   1.399  27.510  0.00  0.00    +0.000 A 
ATOM     14  C   UNL A   1     -21.243   0.927  27.856  0.00  0.00    +0.000 A 
ATOM     15  C   UNL A   1     -22.136  -0.678  29.123  0.00  0.00    +0.000 A 
ATOM     16  C   UNL A   1     -21.078  -0.007  28.722  0.00  0.00    +0.000 A 
ENDBRANCH   3  11
TORSDOF 1
ENDMDL
ENDMDL
