REMARK  Name = outputs/IAG933/test6/raw/output_2008_IAG933_linker_design_.xyz
REMARK  6 active torsions:
REMARK  status: ('A' for Active; 'I' for Inactive)
REMARK    1  A    between atoms: C_1  and  C_2
REMARK    2  A    between atoms: C_13  and  N_30
REMARK    3  A    between atoms: C_14  and  C_15
REMARK    4  A    between atoms: C_21  and  O_22
REMARK    5  A    between atoms: O_22  and  C_23
REMARK    6  A    between atoms: C_23  and  C_24
REMARK                            x       y       z     vdW  Elec       q    Type
REMARK                         _______ _______ _______ _____ _____    ______ ____
ROOT
ATOM      1  C   UNL A   1     -24.855  -1.012  30.143  0.00  0.00    +0.072 C 
ATOM      2  C   UNL A   1     -25.387  -0.679  31.571  0.00  0.00    +0.081 C 
ATOM      3  C   UNL A   1     -25.189   0.773  32.028  0.00  0.00    +0.034 C 
ATOM      4  C   UNL A   1     -25.336   0.684  33.544  0.00  0.00    +0.022 C 
ATOM      5  C   UNL A   1     -24.829  -0.715  33.905  0.00  0.00    +0.089 C 
ATOM      6  N   UNL A   1     -24.758  -1.481  32.646  0.00  0.00    -0.219 NA
ATOM      7 CL   UNL A   1     -23.008   2.393  25.283  0.00  0.00    -0.064 Cl
ATOM      8  C   UNL A   1     -23.175   0.685  28.782  0.00  0.00    +0.247 C 
ATOM      9  N   UNL A   1     -24.674   1.411  27.271  0.00  0.00    -0.259 N 
ATOM     10  N   UNL A   1     -25.339   1.922  29.785  0.00  0.00    -0.199 NA
ATOM     11  F   UNL A   1     -21.083   1.344  27.525  0.00  0.00    -0.204 F 
ATOM     12  F   UNL A   1     -22.462  -0.154  29.519  0.00  0.00    -0.227 F 
ATOM     13  C   UNL A   1     -25.284  -0.351  28.837  0.00  0.00    +0.192 C 
ATOM     14  O   UNL A   1     -26.671  -0.246  28.733  0.00  0.00    -0.219 OA
ATOM     15  C   UNL A   1     -24.602   0.977  28.802  0.00  0.00    +0.188 C 
ATOM     16  C   UNL A   1     -25.346   1.860  31.093  0.00  0.00    +0.076 C 
ATOM     17  C   UNL A   1     -25.370   3.179  31.765  0.00  0.00    +0.019 C 
ATOM     18  C   UNL A   1     -23.278   1.556  26.793  0.00  0.00    +0.138 C 
ATOM     19  C   UNL A   1     -22.438   1.188  27.658  0.00  0.00    +0.177 C 
ENDROOT
BRANCH   9  20
ATOM     20  C   UNL A   1     -25.688   1.614  26.461  0.00  0.00    +0.092 C 
ATOM     21  C   UNL A   1     -26.250   2.920  26.395  0.00  0.00    +0.090 C 
ATOM     22  C   UNL A   1     -27.438   3.091  25.645  0.00  0.00    +0.108 C 
ATOM     23  N   UNL A   1     -28.075   2.089  25.003  0.00  0.00    -0.208 NA
ATOM     24  C   UNL A   1     -27.543   0.849  25.079  0.00  0.00    +0.255 C 
ATOM     25  C   UNL A   1     -26.354   0.576  25.777  0.00  0.00    +0.207 C 
ATOM     26  F   UNL A   1     -25.860  -0.681  25.795  0.00  0.00    -0.198 F 
BRANCH  21  27
ATOM     27  C   UNL A   1     -25.642   4.093  27.123  0.00  0.00    +0.268 C 
ATOM     28  N   UNL A   1     -25.614   5.252  26.449  0.00  0.00    -0.200 NA
ATOM     29  C   UNL A   1     -25.026   6.479  26.963  0.00  0.00    +0.139 C 
ATOM     30  O   UNL A   1     -25.143   3.966  28.243  0.00  0.00    -0.268 OA
ENDBRANCH  21  27
BRANCH  24  31
ATOM     31  O   UNL A   1     -28.193  -0.208  24.477  0.00  0.00    -0.456 OA
BRANCH  31  32
ATOM     32  C   UNL A   1     -29.460   0.005  23.866  0.00  0.00    +0.243 C 
BRANCH  32  33
ATOM     33  C   UNL A   1     -30.065  -1.377  23.573  0.00  0.00    +0.229 C 
ATOM     34  O   UNL A   1     -30.729  -1.878  24.721  0.00  0.00    -0.216 OA
ENDBRANCH  32  33
ENDBRANCH  31  32
ENDBRANCH  24  31
ENDBRANCH   9  20
BRANCH   1  35
ATOM     35  C   UNL A   1     -24.973  -2.505  29.788  0.00  0.00    -0.019 C 
ATOM     36  C   UNL A   1     -23.906  -3.173  29.146  0.00  0.00    -0.004 C 
ATOM     37  C   UNL A   1     -23.989  -4.549  28.853  0.00  0.00    -0.000 C 
ATOM     38  C   UNL A   1     -25.137  -5.280  29.205  0.00  0.00    -0.000 C 
ATOM     39  C   UNL A   1     -26.232  -4.611  29.784  0.00  0.00    -0.000 C 
ATOM     40  C   UNL A   1     -26.155  -3.232  30.065  0.00  0.00    -0.004 C 
ENDBRANCH   1  35
TORSDOF 6
