MODEL 2008
MODEL 1
REMARK VINA RESULT:    -6.941      0.000      0.000
REMARK INTER + INTRA:          -8.279
REMARK INTER:                  -7.753
REMARK INTRA:                  -0.526
REMARK UNBOUND:                -0.526
REMARK  Name = No_2008-gen_results/8p0m/2024-11-27-11-27-31/
REMARK  2 active torsions:
REMARK  status: ('A' for Active; 'I' for Inactive)
REMARK    1  A    between atoms: C_3  and  C_7
REMARK    2  A    between atoms: C_8  and  C_9
REMARK                            x       y       z     vdW  Elec       q    Type
REMARK                         _______ _______ _______ _____ _____    ______ ____
ROOT
ATOM      1  C   UNL A   1     -22.934  -0.711  28.875  0.00  0.00    -0.060 C 
ATOM      2  C   UNL A   1     -23.121  -1.530  29.480  0.00  0.00    -0.060 C 
ENDROOT
BRANCH   1   5
ATOM      3  C   UNL A   1     -24.620  -0.023  27.077  0.00  0.00    +0.008 A 
ATOM      4  C   UNL A   1     -24.903   0.682  26.347  0.00  0.00    +0.001 A 
ATOM      5  C   UNL A   1     -23.424   0.211  27.790  0.00  0.00    +0.042 A 
ATOM      6  C   UNL A   1     -22.631   1.315  27.544  0.00  0.00    +0.008 A 
ATOM      7  C   UNL A   1     -23.081   2.194  26.573  0.00  0.00    +0.001 A 
ATOM      8  C   UNL A   1     -24.272   1.942  25.923  0.00  0.00    +0.000 A 
ENDBRANCH   1   5
BRANCH   2   9
ATOM      9  C   UNL A   1     -24.152  -2.537  29.321  0.00  0.00    +0.042 A 
ATOM     10  C   UNL A   1     -25.380  -2.606  30.040  0.00  0.00    +0.008 A 
ATOM     11  C   UNL A   1     -26.343  -3.584  29.794  0.00  0.00    +0.001 A 
ATOM     12  C   UNL A   1     -25.766  -4.786  29.324  0.00  0.00    +0.000 A 
ATOM     13  C   UNL A   1     -23.930  -3.906  28.883  0.00  0.00    +0.008 A 
ATOM     14  C   UNL A   1     -24.666  -4.931  28.860  0.00  0.00    +0.001 A 
ENDBRANCH   2   9
TORSDOF 2
ENDMDL
ENDMDL
