REMARK  Name = No_2009-gen_results/8p0m/2024-11-27-11-27-31/
REMARK  2 active torsions:
REMARK  status: ('A' for Active; 'I' for Inactive)
REMARK    1  A    between atoms: C_3  and  C_7
REMARK    2  A    between atoms: C_6  and  C_13
REMARK                            x       y       z     vdW  Elec       q    Type
REMARK                         _______ _______ _______ _____ _____    ______ ____
ROOT
ATOM      1  C   UNL A   1     -28.016  -0.814  28.878  0.00  0.00    +0.004 A 
ATOM      2  C   UNL A   1     -27.064  -0.119  28.608  0.00  0.00    +0.000 A 
ATOM      3  C   UNL A   1     -25.765  -0.390  29.036  0.00  0.00    +0.000 A 
ATOM      4  C   UNL A   1     -25.530  -1.530  29.901  0.00  0.00    +0.000 A 
ATOM      5  C   UNL A   1     -26.658  -2.292  30.203  0.00  0.00    +0.004 A 
ATOM      6  C   UNL A   1     -27.686  -1.920  29.699  0.00  0.00    +0.054 A 
ENDROOT
BRANCH   6   7
ATOM      7  C   UNL A   1     -28.970  -2.829  30.141  0.00  0.00    +0.249 C 
ATOM      8  O   UNL A   1     -28.846  -4.053  30.170  0.00  0.00    -0.270 OA
ATOM      9  N   UNL A   1     -30.139  -2.287  30.373  0.00  0.00    -0.276 N 
ATOM     10  C   UNL A   1     -31.281  -3.079  30.723  0.00  0.00    +0.094 C 
ATOM     11  C   UNL A   1     -32.237  -3.078  29.737  0.00  0.00    +0.022 C 
ATOM     12  C   UNL A   1     -32.432  -1.947  29.007  0.00  0.00    +0.004 C 
ATOM     13  C   UNL A   1     -31.521  -0.866  29.098  0.00  0.00    +0.022 C 
ATOM     14  C   UNL A   1     -30.427  -1.007  29.801  0.00  0.00    +0.094 C 
ENDBRANCH   6   7
BRANCH   3  15
ATOM     15  C   UNL A   1     -24.536   0.444  28.750  0.00  0.00    +0.000 A 
ATOM     16  C   UNL A   1     -24.479   1.244  27.735  0.00  0.00    +0.000 A 
ATOM     17  C   UNL A   1     -23.280   1.964  27.403  0.00  0.00    +0.000 A 
ATOM     18  C   UNL A   1     -22.082   1.712  28.012  0.00  0.00    +0.000 A 
ATOM     19  C   UNL A   1     -23.283   0.150  29.461  0.00  0.00    +0.000 A 
ATOM     20  C   UNL A   1     -22.084   0.824  29.073  0.00  0.00    +0.000 A 
ENDBRANCH   3  15
TORSDOF 2
