MODEL 2009
MODEL 1
REMARK VINA RESULT:    -7.110      0.000      0.000
REMARK INTER + INTRA:          -8.393
REMARK INTER:                  -7.942
REMARK INTRA:                  -0.451
REMARK UNBOUND:                -0.451
REMARK  Name = No_2009-gen_results/8p0m/2024-11-27-11-27-31/
REMARK  2 active torsions:
REMARK  status: ('A' for Active; 'I' for Inactive)
REMARK    1  A    between atoms: C_3  and  C_7
REMARK    2  A    between atoms: C_6  and  C_13
REMARK                            x       y       z     vdW  Elec       q    Type
REMARK                         _______ _______ _______ _____ _____    ______ ____
ROOT
ATOM      1  C   UNL A   1     -25.949   2.321  25.737  0.00  0.00    +0.004 A 
ATOM      2  C   UNL A   1     -27.030   2.018  25.288  0.00  0.00    +0.000 A 
ATOM      3  C   UNL A   1     -27.290   0.801  24.659  0.00  0.00    +0.000 A 
ATOM      4  C   UNL A   1     -26.206  -0.143  24.471  0.00  0.00    +0.000 A 
ATOM      5  C   UNL A   1     -24.973   0.255  24.987  0.00  0.00    +0.004 A 
ATOM      6  C   UNL A   1     -24.961   1.326  25.537  0.00  0.00    +0.054 A 
ENDROOT
BRANCH   6   7
ATOM      7  C   UNL A   1     -23.474   1.747  26.067  0.00  0.00    +0.249 C 
ATOM      8  O   UNL A   1     -22.659   2.186  25.255  0.00  0.00    -0.270 OA
ATOM      9  N   UNL A   1     -23.111   1.541  27.307  0.00  0.00    -0.276 N 
ATOM     10  C   UNL A   1     -21.796   1.870  27.773  0.00  0.00    +0.094 C 
ATOM     11  C   UNL A   1     -21.061   0.753  28.089  0.00  0.00    +0.022 C 
ATOM     12  C   UNL A   1     -21.693  -0.320  28.637  0.00  0.00    +0.004 C 
ATOM     13  C   UNL A   1     -23.107  -0.382  28.671  0.00  0.00    +0.022 C 
ATOM     14  C   UNL A   1     -23.805   0.547  28.069  0.00  0.00    +0.094 C 
ENDBRANCH   6   7
BRANCH   3  15
ATOM     15  C   UNL A   1     -28.610   0.367  24.060  0.00  0.00    +0.000 A 
ATOM     16  C   UNL A   1     -29.578   1.204  23.871  0.00  0.00    +0.000 A 
ATOM     17  C   UNL A   1     -30.866   0.779  23.395  0.00  0.00    +0.000 A 
ATOM     18  C   UNL A   1     -31.210  -0.540  23.294  0.00  0.00    +0.000 A 
ATOM     19  C   UNL A   1     -28.912  -1.067  23.944  0.00  0.00    +0.000 A 
ATOM     20  C   UNL A   1     -30.220  -1.475  23.536  0.00  0.00    +0.000 A 
ENDBRANCH   3  15
TORSDOF 2
ENDMDL
ENDMDL
