MODEL 200
MODEL 1
REMARK VINA RESULT:    -7.920      0.000      0.000
REMARK INTER + INTRA:         -13.199
REMARK INTER:                 -11.624
REMARK INTRA:                  -1.575
REMARK UNBOUND:                -1.575
REMARK  Name = No_200-gen_results/8p0m/2024-11-27-11-27-31/
REMARK  8 active torsions:
REMARK  status: ('A' for Active; 'I' for Inactive)
REMARK    1  A    between atoms: C_2  and  C_16
REMARK    2  A    between atoms: C_3  and  C_4
REMARK    3  A    between atoms: C_4  and  C_8
REMARK    4  A    between atoms: C_8  and  C_9
REMARK    5  A    between atoms: C_12  and  O_20
REMARK    6  A    between atoms: O_20  and  C_21
REMARK    7  A    between atoms: C_31  and  C_33
REMARK    8  A    between atoms: C_33  and  C_34
REMARK                            x       y       z     vdW  Elec       q    Type
REMARK                         _______ _______ _______ _____ _____    ______ ____
ROOT
ATOM      1  C   UNL A   1     -24.123   0.825  27.377  0.00  0.00    +0.000 A 
ATOM      2  C   UNL A   1     -24.924  -0.151  26.590  0.00  0.00    +0.001 A 
ATOM      3  C   UNL A   1     -26.171   0.264  25.996  0.00  0.00    +0.037 A 
ATOM      4  C   UNL A   1     -26.586   1.586  26.278  0.00  0.00    +0.139 A 
ATOM      5  C   UNL A   1     -25.942   2.447  27.165  0.00  0.00    +0.037 A 
ATOM      6  C   UNL A   1     -24.757   2.029  27.650  0.00  0.00    +0.001 A 
ENDROOT
BRANCH   1   7
ATOM      7  C   UNL A   1     -23.081   0.469  27.922  0.00  0.00    +0.163 C 
ATOM      8 CL   UNL A   1     -21.567   1.267  27.614  0.00  0.00    -0.102 Cl
BRANCH   7   9
ATOM      9  C   UNL A   1     -23.015  -0.209  29.126  0.00  0.00    +0.192 C 
ATOM     10  O   UNL A   1     -22.323   0.101  30.099  0.00  0.00    -0.290 OA
BRANCH   9  13
ATOM     11  C   UNL A   1     -23.839  -2.712  29.118  0.00  0.00    +0.009 A 
ATOM     12  C   UNL A   1     -24.692  -3.298  29.315  0.00  0.00    +0.080 A 
ATOM     13  C   UNL A   1     -23.973  -1.240  29.436  0.00  0.00    +0.036 A 
ATOM     14  C   UNL A   1     -25.931  -3.009  30.048  0.00  0.00    +0.007 A 
ATOM     15  C   UNL A   1     -26.115  -1.688  30.398  0.00  0.00    +0.000 A 
ATOM     16  C   UNL A   1     -25.138  -0.761  30.137  0.00  0.00    +0.003 A 
BRANCH  12  17
ATOM     17  C   UNL A   1     -24.610  -4.835  28.933  0.00  0.00    +0.388 C 
ATOM     18  O   UNL A   1     -25.256  -5.600  29.523  0.00  0.00    -0.241 OA
ATOM     19  O   UNL A   1     -23.733  -5.154  28.064  0.00  0.00    -0.241 OA
ENDBRANCH  12  17
ENDBRANCH   9  13
ENDBRANCH   7   9
ENDBRANCH   1   7
BRANCH   4  20
ATOM     20  O   UNL A   1     -27.812   1.916  25.730  0.00  0.00    -0.477 OA
BRANCH  20  21
ATOM     21  C   UNL A   1     -27.885   2.467  24.472  0.00  0.00    +0.190 C 
ATOM     22  C   UNL A   1     -29.342   3.046  24.393  0.00  0.00    +0.142 C 
ATOM     23  N   UNL A   1     -30.306   2.169  24.442  0.00  0.00    -0.255 N 
ATOM     24  C   UNL A   1     -30.360   1.014  24.223  0.00  0.00    +0.050 A 
ATOM     25  C   UNL A   1     -31.083   0.277  24.350  0.00  0.00    +0.015 A 
ATOM     26  C   UNL A   1     -31.096  -1.204  24.144  0.00  0.00    +0.001 A 
ATOM     27  C   UNL A   1     -29.844  -1.653  23.693  0.00  0.00    -0.000 A 
ATOM     28  C   UNL A   1     -28.822  -0.831  23.489  0.00  0.00    -0.003 A 
ATOM     29  C   UNL A   1     -28.992   0.483  23.731  0.00  0.00    -0.005 A 
ATOM     30  C   UNL A   1     -27.996   1.431  23.356  0.00  0.00    +0.073 C 
ATOM     31  C   UNL A   1     -31.531   2.845  25.131  0.00  0.00    +0.234 C 
ATOM     32  O   UNL A   1     -32.470   2.001  25.336  0.00  0.00    -0.274 OA
BRANCH  31  33
ATOM     33  C   UNL A   1     -31.568   4.208  25.424  0.00  0.00    +0.112 C 
BRANCH  33  34
ATOM     34  C   UNL A   1     -32.326   4.528  26.522  0.00  0.00    -0.017 C 
ATOM     35  C   UNL A   1     -33.056   5.617  26.763  0.00  0.00    -0.004 C 
ENDBRANCH  33  34
ENDBRANCH  31  33
ENDBRANCH  20  21
ENDBRANCH   4  20
TORSDOF 8
ENDMDL
ENDMDL
