REMARK  Name = outputs/IAG933/test6/raw/output_201_IAG933_linker_design_.xyz
REMARK  13 active torsions:
REMARK  status: ('A' for Active; 'I' for Inactive)
REMARK    1  A    between atoms: C_1  and  C_2
REMARK    2  A    between atoms: C_1  and  C_8
REMARK    3  A    between atoms: C_1  and  C_43
REMARK    4  A    between atoms: C_13  and  C_29
REMARK    5  A    between atoms: C_14  and  C_15
REMARK    6  A    between atoms: C_21  and  O_22
REMARK    7  A    between atoms: O_22  and  C_23
REMARK    8  A    between atoms: C_23  and  C_24
REMARK    9  A    between atoms: C_29  and  C_34
REMARK   10  A    between atoms: C_29  and  C_44
REMARK   11  A    between atoms: C_30  and  C_32
REMARK   12  A    between atoms: C_31  and  C_37
REMARK   13  A    between atoms: C_43  and  C_44
REMARK                            x       y       z     vdW  Elec       q    Type
REMARK                         _______ _______ _______ _____ _____    ______ ____
ROOT
ATOM      1  C   UNL A   1     -24.671   1.141  27.151  0.00  0.00    +0.052 C 
ENDROOT
BRANCH   1   2
ATOM      2  C   UNL A   1     -25.688   1.614  26.461  0.00  0.00    +0.020 C 
ATOM      3  C   UNL A   1     -26.250   2.920  26.395  0.00  0.00    +0.073 C 
ATOM      4  C   UNL A   1     -27.438   3.091  25.645  0.00  0.00    +0.106 C 
ATOM      5  N   UNL A   1     -28.075   2.089  25.003  0.00  0.00    -0.208 NA
ATOM      6  C   UNL A   1     -27.543   0.849  25.079  0.00  0.00    +0.253 C 
ATOM      7  C   UNL A   1     -26.354   0.576  25.777  0.00  0.00    +0.189 C 
ATOM      8  F   UNL A   1     -25.860  -0.681  25.795  0.00  0.00    -0.200 F 
BRANCH   3   9
ATOM      9  C   UNL A   1     -25.642   4.093  27.123  0.00  0.00    +0.266 C 
ATOM     10  N   UNL A   1     -25.614   5.252  26.449  0.00  0.00    -0.200 NA
ATOM     11  C   UNL A   1     -25.026   6.479  26.963  0.00  0.00    +0.139 C 
ATOM     12  O   UNL A   1     -25.143   3.966  28.243  0.00  0.00    -0.268 OA
ENDBRANCH   3   9
BRANCH   6  13
ATOM     13  O   UNL A   1     -28.193  -0.208  24.477  0.00  0.00    -0.456 OA
BRANCH  13  14
ATOM     14  C   UNL A   1     -29.460   0.005  23.866  0.00  0.00    +0.243 C 
BRANCH  14  15
ATOM     15  C   UNL A   1     -30.065  -1.377  23.573  0.00  0.00    +0.229 C 
ATOM     16  O   UNL A   1     -30.729  -1.878  24.721  0.00  0.00    -0.216 OA
ENDBRANCH  14  15
ENDBRANCH  13  14
ENDBRANCH   6  13
ENDBRANCH   1   2
BRANCH   1  18
ATOM     17  F   UNL A   1     -23.066   1.919  24.376  0.00  0.00    -0.160 F 
ATOM     18  C   UNL A   1     -23.345   1.379  26.729  0.00  0.00    +0.068 C 
ATOM     19  C   UNL A   1     -22.504   1.201  27.715  0.00  0.00    +0.290 C 
ATOM     20  C   UNL A   1     -22.702   1.929  25.636  0.00  0.00    +0.316 C 
ATOM     21  O   UNL A   1     -21.269   1.592  27.312  0.00  0.00    -0.157 OA
ATOM     22  O   UNL A   1     -21.359   2.129  25.989  0.00  0.00    -0.303 OA
BRANCH  19  23
ATOM     23  C   UNL A   1     -23.018   0.771  28.877  0.00  0.00    +0.400 C 
ATOM     24  O   UNL A   1     -23.856   1.673  29.227  0.00  0.00    -0.242 OA
ATOM     25  O   UNL A   1     -22.428  -0.033  29.710  0.00  0.00    -0.242 OA
ENDBRANCH  19  23
ENDBRANCH   1  18
BRANCH   1  26
ATOM     26  C   UNL A   1     -24.667  -0.020  27.972  0.00  0.00    +0.012 C 
BRANCH  26  30
ATOM     27  C   UNL A   1     -26.346   1.073  29.241  0.00  0.00    +0.066 C 
ATOM     28  O   UNL A   1     -28.030  -0.818  28.279  0.00  0.00    -0.223 OA
ATOM     29  C   UNL A   1     -27.133   0.013  28.468  0.00  0.00    +0.155 C 
ATOM     30  C   UNL A   1     -25.629  -0.086  29.125  0.00  0.00    +0.039 C 
BRANCH  27  31
ATOM     31  C   UNL A   1     -27.320   1.845  30.110  0.00  0.00    +0.185 C 
ATOM     32  O   UNL A   1     -26.441   2.823  30.664  0.00  0.00    -0.220 OA
ENDBRANCH  27  31
BRANCH  30  33
ATOM     33  C   UNL A   1     -24.855  -1.012  30.143  0.00  0.00    +0.041 C 
BRANCH  33  34
ATOM     34  C   UNL A   1     -24.973  -2.505  29.788  0.00  0.00    -0.021 C 
ATOM     35  C   UNL A   1     -23.906  -3.173  29.146  0.00  0.00    -0.004 C 
ATOM     36  C   UNL A   1     -23.989  -4.549  28.853  0.00  0.00    -0.000 C 
ATOM     37  C   UNL A   1     -25.137  -5.280  29.205  0.00  0.00    -0.000 C 
ATOM     38  C   UNL A   1     -26.232  -4.611  29.784  0.00  0.00    -0.000 C 
ATOM     39  C   UNL A   1     -26.155  -3.232  30.065  0.00  0.00    -0.004 C 
ENDBRANCH  33  34
BRANCH  33  40
ATOM     40  C   UNL A   1     -25.387  -0.679  31.571  0.00  0.00    +0.077 C 
ATOM     41  C   UNL A   1     -25.189   0.773  32.028  0.00  0.00    +0.019 C 
ATOM     42  C   UNL A   1     -25.336   0.684  33.544  0.00  0.00    +0.020 C 
ATOM     43  C   UNL A   1     -24.829  -0.715  33.905  0.00  0.00    +0.089 C 
ATOM     44  N   UNL A   1     -24.758  -1.481  32.646  0.00  0.00    -0.219 NA
ENDBRANCH  33  40
ENDBRANCH  30  33
ENDBRANCH  26  30
ENDBRANCH   1  26
TORSDOF 13
