REMARK  Name = No_2010-gen_results/8p0m/2024-11-27-11-27-31/
REMARK  8 active torsions:
REMARK  status: ('A' for Active; 'I' for Inactive)
REMARK    1  A    between atoms: C_1  and  C_27
REMARK    2  A    between atoms: C_4  and  C_5
REMARK    3  A    between atoms: C_8  and  C_10
REMARK    4  A    between atoms: C_11  and  C_32
REMARK    5  A    between atoms: C_13  and  C_14
REMARK    6  A    between atoms: N_18  and  C_19
REMARK    7  A    between atoms: C_19  and  C_20
REMARK    8  A    between atoms: C_20  and  C_21
REMARK                            x       y       z     vdW  Elec       q    Type
REMARK                         _______ _______ _______ _____ _____    ______ ____
ROOT
ATOM      1  C   UNL A   1     -28.794   3.442  26.623  0.00  0.00    +0.004 A 
ATOM      2  C   UNL A   1     -29.486   4.162  27.100  0.00  0.00    +0.055 A 
ATOM      3  C   UNL A   1     -29.421   4.975  28.279  0.00  0.00    +0.009 A 
ATOM      4  C   UNL A   1     -28.290   4.762  29.049  0.00  0.00    +0.055 A 
ATOM      5  C   UNL A   1     -27.484   3.469  27.608  0.00  0.00    +0.000 A 
ATOM      6  C   UNL A   1     -27.310   4.169  28.698  0.00  0.00    +0.005 A 
ENDROOT
BRANCH   2   7
ATOM      7  C   UNL A   1     -30.901   4.369  26.415  0.00  0.00    +0.265 C 
ATOM      8  O   UNL A   1     -31.106   3.984  25.428  0.00  0.00    -0.268 OA
ATOM      9  N   UNL A   1     -31.881   5.124  27.084  0.00  0.00    -0.200 NA
ATOM     10  C   UNL A   1     -33.152   5.326  26.492  0.00  0.00    +0.139 C 
ENDBRANCH   2   7
BRANCH   1  12
ATOM     11  C   UNL A   1     -28.144   1.432  25.488  0.00  0.00    -0.020 C 
ATOM     12  C   UNL A   1     -28.532   2.615  25.477  0.00  0.00    -0.004 C 
ATOM     13  C   UNL A   1     -27.637   0.803  24.269  0.00  0.00    +0.031 C 
BRANCH  11  17
ATOM     14  C   UNL A   1     -28.016  -0.814  28.878  0.00  0.00    +0.074 A 
ATOM     15  C   UNL A   1     -27.064  -0.119  28.608  0.00  0.00    +0.004 A 
ATOM     16  C   UNL A   1     -27.001   0.691  27.491  0.00  0.00    +0.002 A 
ATOM     17  C   UNL A   1     -28.137   0.736  26.635  0.00  0.00    +0.024 A 
ATOM     18  C   UNL A   1     -29.280  -0.552  28.248  0.00  0.00    +0.034 A 
ATOM     19  C   UNL A   1     -29.255   0.095  27.045  0.00  0.00    +0.140 A 
ATOM     20  F   UNL A   1     -30.395   0.234  26.452  0.00  0.00    -0.204 F 
BRANCH  14  21
ATOM     21  C   UNL A   1     -28.088  -1.632  30.172  0.00  0.00    +0.419 C 
ATOM     22  F   UNL A   1     -28.577  -1.213  31.144  0.00  0.00    -0.166 F 
ATOM     23  F   UNL A   1     -28.672  -2.835  29.866  0.00  0.00    -0.166 F 
ATOM     24  F   UNL A   1     -26.744  -2.095  30.363  0.00  0.00    -0.166 F 
ENDBRANCH  14  21
ENDBRANCH  11  17
ENDBRANCH   1  12
BRANCH   4  25
ATOM     25  C   UNL A   1     -28.076   5.399  30.324  0.00  0.00    +0.265 C 
ATOM     26  O   UNL A   1     -28.930   6.010  30.941  0.00  0.00    -0.268 OA
ATOM     27  N   UNL A   1     -26.858   5.232  30.988  0.00  0.00    -0.201 NA
BRANCH  27  28
ATOM     28  C   UNL A   1     -26.613   5.750  32.311  0.00  0.00    +0.120 C 
BRANCH  28  29
ATOM     29  C   UNL A   1     -25.303   5.203  32.783  0.00  0.00    +0.050 C 
BRANCH  29  30
ATOM     30  C   UNL A   1     -25.414   3.852  33.273  0.00  0.00    -0.020 A 
ATOM     31  C   UNL A   1     -26.302   3.623  34.178  0.00  0.00    -0.004 A 
ATOM     32  C   UNL A   1     -26.763   2.222  34.300  0.00  0.00    -0.000 A 
ATOM     33  C   UNL A   1     -26.161   1.246  33.520  0.00  0.00    -0.000 A 
ATOM     34  C   UNL A   1     -25.253   1.581  32.501  0.00  0.00    -0.000 A 
ATOM     35  C   UNL A   1     -24.942   2.932  32.328  0.00  0.00    -0.004 A 
ENDBRANCH  29  30
ENDBRANCH  28  29
ENDBRANCH  27  28
ENDBRANCH   4  25
TORSDOF 8
