MODEL 2010
MODEL 1
REMARK VINA RESULT:    -7.582      0.000      0.000
REMARK INTER + INTRA:         -13.100
REMARK INTER:                 -11.128
REMARK INTRA:                  -1.972
REMARK UNBOUND:                -1.972
REMARK  Name = No_2010-gen_results/8p0m/2024-11-27-11-27-31/
REMARK  8 active torsions:
REMARK  status: ('A' for Active; 'I' for Inactive)
REMARK    1  A    between atoms: C_1  and  C_27
REMARK    2  A    between atoms: C_4  and  C_5
REMARK    3  A    between atoms: C_8  and  C_10
REMARK    4  A    between atoms: C_11  and  C_32
REMARK    5  A    between atoms: C_13  and  C_14
REMARK    6  A    between atoms: N_18  and  C_19
REMARK    7  A    between atoms: C_19  and  C_20
REMARK    8  A    between atoms: C_20  and  C_21
REMARK                            x       y       z     vdW  Elec       q    Type
REMARK                         _______ _______ _______ _____ _____    ______ ____
ROOT
ATOM      1  C   UNL A   1     -24.493   1.790  25.905  0.00  0.00    +0.004 A 
ATOM      2  C   UNL A   1     -25.439   2.366  25.913  0.00  0.00    +0.055 A 
ATOM      3  C   UNL A   1     -26.772   2.098  25.460  0.00  0.00    +0.009 A 
ATOM      4  C   UNL A   1     -26.908   0.898  24.784  0.00  0.00    +0.055 A 
ATOM      5  C   UNL A   1     -24.924   0.369  25.211  0.00  0.00    +0.000 A 
ATOM      6  C   UNL A   1     -26.100   0.013  24.768  0.00  0.00    +0.005 A 
ENDROOT
BRANCH   2   7
ATOM      7  C   UNL A   1     -25.385   3.838  26.501  0.00  0.00    +0.265 C 
ATOM      8  O   UNL A   1     -24.642   4.546  26.170  0.00  0.00    -0.268 OA
ATOM      9  N   UNL A   1     -26.285   4.200  27.520  0.00  0.00    -0.200 NA
ATOM     10  C   UNL A   1     -26.255   5.508  28.064  0.00  0.00    +0.139 C 
ENDBRANCH   2   7
BRANCH   1  12
ATOM     11  C   UNL A   1     -22.708   1.246  27.411  0.00  0.00    -0.020 C 
ATOM     12  C   UNL A   1     -23.126   1.731  26.343  0.00  0.00    -0.004 C 
ATOM     13  C   UNL A   1     -21.343   1.510  27.865  0.00  0.00    +0.031 C 
BRANCH  11  17
ATOM     14  C   UNL A   1     -25.298  -0.998  29.603  0.00  0.00    +0.074 A 
ATOM     15  C   UNL A   1     -24.459  -1.564  28.942  0.00  0.00    +0.004 A 
ATOM     16  C   UNL A   1     -23.523  -0.905  28.169  0.00  0.00    +0.002 A 
ATOM     17  C   UNL A   1     -23.526   0.518  28.185  0.00  0.00    +0.024 A 
ATOM     18  C   UNL A   1     -25.131   0.395  29.911  0.00  0.00    +0.034 A 
ATOM     19  C   UNL A   1     -24.350   1.131  29.064  0.00  0.00    +0.140 A 
ATOM     20  F   UNL A   1     -24.292   2.400  29.305  0.00  0.00    -0.204 F 
BRANCH  14  21
ATOM     21  C   UNL A   1     -26.264  -1.757  30.519  0.00  0.00    +0.419 C 
ATOM     22  F   UNL A   1     -26.450  -1.438  31.625  0.00  0.00    -0.166 F 
ATOM     23  F   UNL A   1     -27.471  -1.833  29.872  0.00  0.00    -0.166 F 
ATOM     24  F   UNL A   1     -25.866  -3.128  30.380  0.00  0.00    -0.166 F 
ENDBRANCH  14  21
ENDBRANCH  11  17
ENDBRANCH   1  12
BRANCH   4  25
ATOM     25  C   UNL A   1     -28.138   0.483  24.158  0.00  0.00    +0.265 C 
ATOM     26  O   UNL A   1     -28.445  -0.676  23.944  0.00  0.00    -0.268 OA
ATOM     27  N   UNL A   1     -29.122   1.431  23.866  0.00  0.00    -0.201 NA
BRANCH  27  28
ATOM     28  C   UNL A   1     -30.416   1.074  23.339  0.00  0.00    +0.120 C 
BRANCH  28  29
ATOM     29  C   UNL A   1     -30.940   2.249  22.574  0.00  0.00    +0.050 C 
BRANCH  29  30
ATOM     30  C   UNL A   1     -31.873   1.865  21.545  0.00  0.00    -0.020 A 
ATOM     31  C   UNL A   1     -32.704   0.921  21.824  0.00  0.00    -0.004 A 
ATOM     32  C   UNL A   1     -33.943   0.882  21.015  0.00  0.00    -0.000 A 
ATOM     33  C   UNL A   1     -34.091   1.780  19.969  0.00  0.00    -0.000 A 
ATOM     34  C   UNL A   1     -33.178   2.830  19.772  0.00  0.00    -0.000 A 
ATOM     35  C   UNL A   1     -32.088   2.913  20.642  0.00  0.00    -0.004 A 
ENDBRANCH  29  30
ENDBRANCH  28  29
ENDBRANCH  27  28
ENDBRANCH   4  25
TORSDOF 8
ENDMDL
ENDMDL
