MODEL 2011
MODEL 1
REMARK VINA RESULT:    -6.940      0.000      0.000
REMARK INTER + INTRA:          -8.295
REMARK INTER:                  -7.752
REMARK INTRA:                  -0.544
REMARK UNBOUND:                -0.544
REMARK  Name = No_2011-gen_results/8p0m/2024-11-27-11-27-31/
REMARK  2 active torsions:
REMARK  status: ('A' for Active; 'I' for Inactive)
REMARK    1  A    between atoms: C_5  and  C_11
REMARK    2  A    between atoms: C_7  and  C_14
REMARK                            x       y       z     vdW  Elec       q    Type
REMARK                         _______ _______ _______ _____ _____    ______ ____
ROOT
ATOM      1  C   UNL A   1     -24.490   1.332  30.270  0.00  0.00    +0.000 A 
ATOM      2  C   UNL A   1     -24.529   0.142  30.061  0.00  0.00    +0.000 A 
ATOM      3  C   UNL A   1     -25.192  -0.766  30.886  0.00  0.00    +0.000 A 
ATOM      4  C   UNL A   1     -25.280  -2.229  30.714  0.00  0.00    +0.007 A 
ATOM      5  C   UNL A   1     -24.807  -2.737  29.466  0.00  0.00    +0.080 A 
ATOM      6  C   UNL A   1     -24.175  -1.852  28.586  0.00  0.00    +0.007 A 
ATOM      7  C   UNL A   1     -24.048  -0.528  28.831  0.00  0.00    +0.000 A 
ATOM      8  C   UNL A   1     -24.616   1.803  31.684  0.00  0.00    +0.000 A 
ATOM      9  C   UNL A   1     -25.502   1.042  32.528  0.00  0.00    +0.000 A 
ATOM     10  C   UNL A   1     -25.650  -0.320  32.219  0.00  0.00    +0.000 A 
ENDROOT
BRANCH   7  11
ATOM     11  C   UNL A   1     -23.501   0.348  27.778  0.00  0.00    +0.000 A 
ATOM     12  C   UNL A   1     -22.279   0.743  27.979  0.00  0.00    +0.000 A 
ATOM     13  C   UNL A   1     -24.235   0.690  26.675  0.00  0.00    +0.000 A 
ATOM     14  C   UNL A   1     -24.093   1.860  25.924  0.00  0.00    +0.000 A 
ATOM     15  C   UNL A   1     -21.862   1.895  27.059  0.00  0.00    +0.000 A 
ATOM     16  C   UNL A   1     -22.710   2.282  26.021  0.00  0.00    +0.000 A 
ENDBRANCH   7  11
BRANCH   5  17
ATOM     17  C   UNL A   1     -24.935  -4.199  29.235  0.00  0.00    +0.388 C 
ATOM     18  O   UNL A   1     -23.899  -4.827  28.843  0.00  0.00    -0.241 OA
ATOM     19  O   UNL A   1     -26.057  -4.742  29.608  0.00  0.00    -0.241 OA
ENDBRANCH   5  17
TORSDOF 2
ENDMDL
ENDMDL
