REMARK  Name = outputs/IAG933/test6/raw/output_2012_IAG933_linker_design_.xyz
REMARK  12 active torsions:
REMARK  status: ('A' for Active; 'I' for Inactive)
REMARK    1  A    between atoms: C_1  and  C_2
REMARK    2  A    between atoms: C_1  and  C_8
REMARK    3  A    between atoms: C_1  and  C_42
REMARK    4  A    between atoms: C_13  and  C_36
REMARK    5  A    between atoms: C_14  and  C_15
REMARK    6  A    between atoms: C_21  and  O_22
REMARK    7  A    between atoms: O_22  and  C_23
REMARK    8  A    between atoms: C_23  and  C_24
REMARK    9  A    between atoms: C_31  and  C_34
REMARK   10  A    between atoms: C_37  and  N_40
REMARK   11  A    between atoms: N_40  and  C_42
REMARK   12  A    between atoms: N_41  and  C_42
REMARK                            x       y       z     vdW  Elec       q    Type
REMARK                         _______ _______ _______ _____ _____    ______ ____
ROOT
ATOM      1  F   UNL A   1     -23.458   1.520  24.366  0.00  0.00    -0.204 F 
ATOM      2  C   UNL A   1     -22.606   0.838  28.177  0.00  0.00    +0.155 C 
ATOM      3  C   UNL A   1     -23.244   1.701  25.673  0.00  0.00    +0.138 C 
ATOM      4  F   UNL A   1     -22.283   0.129  29.267  0.00  0.00    -0.203 F 
ATOM      5  C   UNL A   1     -21.959   1.915  26.145  0.00  0.00    +0.032 C 
ATOM      6  C   UNL A   1     -24.297   1.423  26.578  0.00  0.00    +0.029 C 
ATOM      7  C   UNL A   1     -23.978   0.764  27.742  0.00  0.00    +0.093 C 
ATOM      8  C   UNL A   1     -21.642   1.519  27.463  0.00  0.00    +0.033 C 
ENDROOT
BRANCH   6   9
ATOM      9  C   UNL A   1     -25.688   1.614  26.461  0.00  0.00    +0.096 C 
ATOM     10  C   UNL A   1     -26.250   2.920  26.395  0.00  0.00    +0.059 C 
ATOM     11  C   UNL A   1     -27.438   3.091  25.645  0.00  0.00    +0.102 C 
ATOM     12  N   UNL A   1     -28.075   2.089  25.003  0.00  0.00    -0.212 NA
ATOM     13  C   UNL A   1     -27.543   0.849  25.079  0.00  0.00    +0.234 C 
ATOM     14  C   UNL A   1     -26.354   0.576  25.777  0.00  0.00    +0.244 C 
ATOM     15  F   UNL A   1     -25.860  -0.681  25.795  0.00  0.00    -0.227 F 
BRANCH  10  16
ATOM     16  C   UNL A   1     -25.642   4.093  27.123  0.00  0.00    +0.263 C 
ATOM     17  N   UNL A   1     -25.614   5.252  26.449  0.00  0.00    -0.200 NA
ATOM     18  C   UNL A   1     -25.026   6.479  26.963  0.00  0.00    +0.139 C 
ATOM     19  O   UNL A   1     -25.143   3.966  28.243  0.00  0.00    -0.269 OA
ENDBRANCH  10  16
BRANCH  13  20
ATOM     20  O   UNL A   1     -28.193  -0.208  24.477  0.00  0.00    -0.459 OA
BRANCH  20  21
ATOM     21  C   UNL A   1     -29.460   0.005  23.866  0.00  0.00    +0.242 C 
BRANCH  21  22
ATOM     22  C   UNL A   1     -30.065  -1.377  23.573  0.00  0.00    +0.229 C 
ATOM     23  O   UNL A   1     -30.729  -1.878  24.721  0.00  0.00    -0.216 OA
ENDBRANCH  21  22
ENDBRANCH  20  21
ENDBRANCH  13  20
ENDBRANCH   6   9
BRANCH   7  24
ATOM     24  N   UNL A   1     -24.967   0.006  28.141  0.00  0.00    -0.215 NA
BRANCH  24  25
ATOM     25  C   UNL A   1     -25.595  -0.102  29.227  0.00  0.00    +0.192 C 
BRANCH  25  28
ATOM     26  C   UNL A   1     -27.946   0.298  29.211  0.00  0.00    +0.277 C 
ATOM     27  O   UNL A   1     -28.253  -0.863  28.901  0.00  0.00    -0.270 OA
ATOM     28  N   UNL A   1     -26.697   0.667  29.496  0.00  0.00    -0.183 NA
BRANCH  26  29
ATOM     29  C   UNL A   1     -28.932   1.423  29.487  0.00  0.00    +0.268 C 
ATOM     30  O   UNL A   1     -28.320   2.071  30.712  0.00  0.00    -0.210 OA
ENDBRANCH  26  29
ENDBRANCH  25  28
BRANCH  25  31
ATOM     31  C   UNL A   1     -24.855  -1.012  30.143  0.00  0.00    +0.079 C 
BRANCH  31  32
ATOM     32  C   UNL A   1     -24.973  -2.505  29.788  0.00  0.00    -0.018 C 
ATOM     33  C   UNL A   1     -23.906  -3.173  29.146  0.00  0.00    -0.004 C 
ATOM     34  C   UNL A   1     -23.989  -4.549  28.853  0.00  0.00    -0.000 C 
ATOM     35  C   UNL A   1     -25.137  -5.280  29.205  0.00  0.00    -0.000 C 
ATOM     36  C   UNL A   1     -26.232  -4.611  29.784  0.00  0.00    -0.000 C 
ATOM     37  C   UNL A   1     -26.155  -3.232  30.065  0.00  0.00    -0.004 C 
ENDBRANCH  31  32
BRANCH  31  38
ATOM     38  C   UNL A   1     -25.387  -0.679  31.571  0.00  0.00    +0.080 C 
ATOM     39  C   UNL A   1     -25.189   0.773  32.028  0.00  0.00    +0.019 C 
ATOM     40  C   UNL A   1     -25.336   0.684  33.544  0.00  0.00    +0.020 C 
ATOM     41  C   UNL A   1     -24.829  -0.715  33.905  0.00  0.00    +0.089 C 
ATOM     42  N   UNL A   1     -24.758  -1.481  32.646  0.00  0.00    -0.219 NA
ENDBRANCH  31  38
ENDBRANCH  25  31
ENDBRANCH  24  25
ENDBRANCH   7  24
TORSDOF 12
