MODEL 2012
MODEL 1
REMARK VINA RESULT:    -5.315      0.000      0.000
REMARK INTER + INTRA:          -5.776
REMARK INTER:                  -5.626
REMARK INTRA:                  -0.150
REMARK UNBOUND:                -0.150
REMARK  Name = No_2012-gen_results/8p0m/2024-11-27-11-27-31/
REMARK  1 active torsions:
REMARK  status: ('A' for Active; 'I' for Inactive)
REMARK    1  A    between atoms: C_4  and  C_7
REMARK                            x       y       z     vdW  Elec       q    Type
REMARK                         _______ _______ _______ _____ _____    ______ ____
ROOT
ATOM      1  C   UNL A   1     -26.619  -3.983  29.830  0.00  0.00    -0.000 A 
ATOM      2  C   UNL A   1     -26.102  -4.876  29.619  0.00  0.00    -0.000 A 
ATOM      3  C   UNL A   1     -25.844  -2.709  29.582  0.00  0.00    -0.000 A 
ATOM      4  C   UNL A   1     -24.575  -2.779  28.969  0.00  0.00    -0.000 A 
ATOM      5  C   UNL A   1     -24.822  -5.220  28.959  0.00  0.00    -0.000 A 
ATOM      6  C   UNL A   1     -24.083  -4.072  28.709  0.00  0.00    -0.000 A 
ENDROOT
BRANCH   4   7
ATOM      7  C   UNL A   1     -23.793  -1.615  28.728  0.00  0.00    -0.005 C 
ATOM      8  C   UNL A   1     -22.726  -1.338  29.353  0.00  0.00    -0.026 C 
ATOM      9  C   UNL A   1     -21.855  -0.203  29.000  0.00  0.00    +0.031 C 
ENDBRANCH   4   7
TORSDOF 1
ENDMDL
ENDMDL
