REMARK  Name = outputs/IAG933/test6/raw/output_2013_IAG933_linker_design_.xyz
REMARK  11 active torsions:
REMARK  status: ('A' for Active; 'I' for Inactive)
REMARK    1  A    between atoms: C_1  and  C_2
REMARK    2  A    between atoms: C_1  and  C_8
REMARK    3  A    between atoms: C_1  and  N_46
REMARK    4  A    between atoms: C_13  and  C_30
REMARK    5  A    between atoms: C_14  and  C_15
REMARK    6  A    between atoms: C_21  and  O_22
REMARK    7  A    between atoms: O_22  and  C_23
REMARK    8  A    between atoms: C_23  and  C_24
REMARK    9  A    between atoms: C_31  and  N_46
REMARK   10  A    between atoms: C_32  and  C_39
REMARK   11  A    between atoms: C_32  and  N_46
REMARK                            x       y       z     vdW  Elec       q    Type
REMARK                         _______ _______ _______ _____ _____    ______ ____
ROOT
ATOM      1  C   UNL A   1     -21.826   1.028  28.755  0.00  0.00    +0.042 C 
ATOM      2  C   UNL A   1     -24.399   1.307  27.050  0.00  0.00    +0.062 C 
ATOM      3  C   UNL A   1     -24.357   0.583  28.373  0.00  0.00    +0.052 C 
ATOM      4  O   UNL A   1     -21.993   1.879  26.555  0.00  0.00    -0.439 OA
ATOM      5 CL   UNL A   1     -23.551   2.068  24.535  0.00  0.00    -0.042 Cl
ATOM      6  C   UNL A   1     -23.274   1.690  26.212  0.00  0.00    +0.204 C 
ATOM      7  C   UNL A   1     -21.375   1.809  27.706  0.00  0.00    +0.181 C 
ATOM      8  C   UNL A   1     -23.101   0.401  29.055  0.00  0.00    +0.018 C 
ENDROOT
BRANCH   2   9
ATOM      9  C   UNL A   1     -25.688   1.614  26.461  0.00  0.00    +0.043 C 
ATOM     10  C   UNL A   1     -26.250   2.920  26.395  0.00  0.00    +0.077 C 
ATOM     11  C   UNL A   1     -27.438   3.091  25.645  0.00  0.00    +0.107 C 
ATOM     12  N   UNL A   1     -28.075   2.089  25.003  0.00  0.00    -0.208 NA
ATOM     13  C   UNL A   1     -27.543   0.849  25.079  0.00  0.00    +0.253 C 
ATOM     14  C   UNL A   1     -26.354   0.576  25.777  0.00  0.00    +0.193 C 
ATOM     15  F   UNL A   1     -25.860  -0.681  25.795  0.00  0.00    -0.199 F 
BRANCH  10  16
ATOM     16  C   UNL A   1     -25.642   4.093  27.123  0.00  0.00    +0.266 C 
ATOM     17  N   UNL A   1     -25.614   5.252  26.449  0.00  0.00    -0.200 NA
ATOM     18  C   UNL A   1     -25.026   6.479  26.963  0.00  0.00    +0.139 C 
ATOM     19  O   UNL A   1     -25.143   3.966  28.243  0.00  0.00    -0.268 OA
ENDBRANCH  10  16
BRANCH  13  20
ATOM     20  O   UNL A   1     -28.193  -0.208  24.477  0.00  0.00    -0.456 OA
BRANCH  20  21
ATOM     21  C   UNL A   1     -29.460   0.005  23.866  0.00  0.00    +0.243 C 
BRANCH  21  22
ATOM     22  C   UNL A   1     -30.065  -1.377  23.573  0.00  0.00    +0.229 C 
ATOM     23  O   UNL A   1     -30.729  -1.878  24.721  0.00  0.00    -0.216 OA
ENDBRANCH  21  22
ENDBRANCH  20  21
ENDBRANCH  13  20
ENDBRANCH   2   9
BRANCH   3  24
ATOM     24  N   UNL A   1     -25.492   0.016  29.134  0.00  0.00    -0.296 N 
BRANCH  24  25
ATOM     25  C   UNL A   1     -24.855  -1.012  30.143  0.00  0.00    +0.112 C 
BRANCH  25  26
ATOM     26  C   UNL A   1     -24.973  -2.505  29.788  0.00  0.00    -0.003 C 
ATOM     27  C   UNL A   1     -23.906  -3.173  29.146  0.00  0.00    -0.003 C 
ATOM     28  C   UNL A   1     -23.989  -4.549  28.853  0.00  0.00    -0.000 C 
ATOM     29  C   UNL A   1     -25.137  -5.280  29.205  0.00  0.00    -0.000 C 
ATOM     30  C   UNL A   1     -26.232  -4.611  29.784  0.00  0.00    -0.000 C 
ATOM     31  C   UNL A   1     -26.155  -3.232  30.065  0.00  0.00    -0.003 C 
ENDBRANCH  25  26
BRANCH  25  32
ATOM     32  C   UNL A   1     -25.387  -0.679  31.571  0.00  0.00    +0.095 C 
ATOM     33  C   UNL A   1     -25.189   0.773  32.028  0.00  0.00    +0.021 C 
ATOM     34  C   UNL A   1     -25.336   0.684  33.544  0.00  0.00    +0.020 C 
ATOM     35  C   UNL A   1     -24.829  -0.715  33.905  0.00  0.00    +0.089 C 
ATOM     36  N   UNL A   1     -24.758  -1.481  32.646  0.00  0.00    -0.217 NA
ENDBRANCH  25  32
ENDBRANCH  24  25
BRANCH  24  37
ATOM     37  C   UNL A   1     -26.664   1.169  29.155  0.00  0.00    +0.177 C 
BRANCH  37  43
ATOM     38  N   UNL A   1     -29.185   0.928  29.685  0.00  0.00    -0.275 N 
ATOM     39  C   UNL A   1     -29.234   1.697  32.101  0.00  0.00    +0.094 C 
ATOM     40  C   UNL A   1     -27.649   3.450  32.238  0.00  0.00    +0.090 C 
ATOM     41  C   UNL A   1     -29.963   0.920  30.998  0.00  0.00    +0.111 C 
ATOM     42  C   UNL A   1     -29.566   3.292  30.394  0.00  0.00    +0.094 C 
ATOM     43  C   UNL A   1     -27.959   0.454  28.959  0.00  0.00    +0.246 C 
ATOM     44  N   UNL A   1     -28.917   3.107  31.674  0.00  0.00    -0.269 NA
ATOM     45  C   UNL A   1     -29.394   2.348  29.158  0.00  0.00    +0.111 C 
ATOM     46  O   UNL A   1     -28.185  -0.489  28.221  0.00  0.00    -0.273 OA
ENDBRANCH  37  43
ENDBRANCH  24  37
ENDBRANCH   3  24
TORSDOF 11
