MODEL 2015
MODEL 1
REMARK VINA RESULT:    -4.478      0.000      0.000
REMARK INTER + INTRA:          -4.478
REMARK INTER:                  -4.478
REMARK INTRA:                   0.000
REMARK UNBOUND:                 0.000
REMARK  Name = No_2015-gen_results/8p0m/2024-11-27-11-27-31/
REMARK  0 active torsions:
REMARK  status: ('A' for Active; 'I' for Inactive)
REMARK                            x       y       z     vdW  Elec       q    Type
REMARK                         _______ _______ _______ _____ _____    ______ ____
ROOT
ATOM      1  F   UNL A   1     -24.954  -6.186  28.665  0.00  0.00    -0.204 F 
ATOM      2  C   UNL A   1     -25.108  -5.106  29.011  0.00  0.00    +0.140 A 
ATOM      3  C   UNL A   1     -26.140  -4.668  29.581  0.00  0.00    +0.030 A 
ATOM      4  C   UNL A   1     -23.925  -4.173  28.722  0.00  0.00    +0.030 A 
ATOM      5  C   UNL A   1     -24.061  -2.776  29.081  0.00  0.00    +0.002 A 
ATOM      6  C   UNL A   1     -26.275  -3.208  29.928  0.00  0.00    +0.002 A 
ATOM      7  C   UNL A   1     -25.227  -2.329  29.662  0.00  0.00    +0.000 A 
ENDROOT
TORSDOF 0
ENDMDL
ENDMDL
