MODEL 2016
MODEL 1
REMARK VINA RESULT:    -5.849      0.000      0.000
REMARK INTER + INTRA:          -6.944
REMARK INTER:                  -6.874
REMARK INTRA:                  -0.069
REMARK UNBOUND:                -0.069
REMARK  Name = No_2016-gen_results/8p0m/2024-11-27-11-27-31/
REMARK  3 active torsions:
REMARK  status: ('A' for Active; 'I' for Inactive)
REMARK    1  A    between atoms: C_2  and  C_3
REMARK    2  A    between atoms: N_4  and  C_11
REMARK    3  A    between atoms: C_12  and  C_13
REMARK                            x       y       z     vdW  Elec       q    Type
REMARK                         _______ _______ _______ _____ _____    ______ ____
ROOT
ATOM      1  O   UNL A   1     -23.509   1.829  30.620  0.00  0.00    -0.270 OA
ATOM      2  C   UNL A   1     -23.397   1.018  29.809  0.00  0.00    +0.253 C 
ATOM      3  N   UNL A   1     -23.240  -0.417  30.110  0.00  0.00    -0.252 N 
ATOM      4  C   UNL A   1     -23.174  -0.792  31.510  0.00  0.00    +0.120 C 
ENDROOT
BRANCH   2   5
ATOM      5  C   UNL A   1     -23.545   1.313  28.469  0.00  0.00    +0.054 A 
ATOM      6  C   UNL A   1     -24.709   1.016  27.889  0.00  0.00    +0.004 A 
ATOM      7  C   UNL A   1     -22.476   1.918  27.721  0.00  0.00    +0.004 A 
ATOM      8  C   UNL A   1     -24.846   1.179  26.382  0.00  0.00    +0.000 A 
ATOM      9  C   UNL A   1     -22.628   2.155  26.329  0.00  0.00    +0.000 A 
ATOM     10  C   UNL A   1     -23.799   1.749  25.679  0.00  0.00    +0.000 A 
ENDBRANCH   2   5
BRANCH   3  11
ATOM     11  C   UNL A   1     -23.172  -1.394  29.132  0.00  0.00    +0.068 C 
ATOM     12  C   UNL A   1     -23.613  -2.409  29.257  0.00  0.00    +0.016 C 
BRANCH  12  13
ATOM     13  C   UNL A   1     -23.886  -3.347  28.888  0.00  0.00    +0.001 C 
ATOM     14  C   UNL A   1     -24.187  -4.612  28.474  0.00  0.00    +0.000 C 
ENDBRANCH  12  13
ENDBRANCH   3  11
TORSDOF 3
ENDMDL
ENDMDL
