REMARK  Name = No_2016-gen_results/8p0m/2024-11-27-11-27-31/
REMARK  3 active torsions:
REMARK  status: ('A' for Active; 'I' for Inactive)
REMARK    1  A    between atoms: C_2  and  C_3
REMARK    2  A    between atoms: N_4  and  C_11
REMARK    3  A    between atoms: C_12  and  C_13
REMARK                            x       y       z     vdW  Elec       q    Type
REMARK                         _______ _______ _______ _____ _____    ______ ____
ROOT
ATOM      1  O   UNL A   1     -28.123  -1.335  28.487  0.00  0.00    -0.270 OA
ATOM      2  C   UNL A   1     -27.481  -0.404  28.709  0.00  0.00    +0.253 C 
ATOM      3  N   UNL A   1     -27.666   0.447  29.899  0.00  0.00    -0.252 N 
ATOM      4  C   UNL A   1     -28.754   0.100  30.793  0.00  0.00    +0.120 C 
ENDROOT
BRANCH   2   5
ATOM      5  C   UNL A   1     -26.380  -0.087  27.939  0.00  0.00    +0.054 A 
ATOM      6  C   UNL A   1     -25.177  -0.439  28.395  0.00  0.00    +0.004 A 
ATOM      7  C   UNL A   1     -26.526   0.604  26.687  0.00  0.00    +0.004 A 
ATOM      8  C   UNL A   1     -23.937   0.037  27.652  0.00  0.00    +0.000 A 
ATOM      9  C   UNL A   1     -25.375   0.975  25.941  0.00  0.00    +0.000 A 
ATOM     10  C   UNL A   1     -24.100   0.714  26.456  0.00  0.00    +0.000 A 
ENDBRANCH   2   5
BRANCH   3  11
ATOM     11  C   UNL A   1     -26.850   1.526  30.194  0.00  0.00    +0.068 C 
ATOM     12  C   UNL A   1     -26.142   1.533  31.053  0.00  0.00    +0.016 C 
BRANCH  12  13
ATOM     13  C   UNL A   1     -25.364   1.962  31.603  0.00  0.00    +0.001 C 
ATOM     14  C   UNL A   1     -24.329   2.435  32.355  0.00  0.00    +0.000 C 
ENDBRANCH  12  13
ENDBRANCH   3  11
TORSDOF 3
