MODEL 2017
MODEL 1
REMARK VINA RESULT:    -5.932      0.000      0.000
REMARK INTER + INTRA:          -6.333
REMARK INTER:                  -6.279
REMARK INTRA:                  -0.053
REMARK UNBOUND:                -0.053
REMARK  Name = No_2017-gen_results/8p0m/2024-11-27-11-27-31/
REMARK  1 active torsions:
REMARK  status: ('A' for Active; 'I' for Inactive)
REMARK    1  A    between atoms: C_2  and  C_5
REMARK                            x       y       z     vdW  Elec       q    Type
REMARK                         _______ _______ _______ _____ _____    ______ ____
ROOT
ATOM      1  C   UNL A   1     -27.913 -12.033  31.341  0.00  0.00    +0.003 A 
ATOM      2  C   UNL A   1     -28.004 -11.754  32.353  0.00  0.00    +0.042 A 
ATOM      3  C   UNL A   1     -28.908 -11.392  30.399  0.00  0.00    +0.000 A 
ATOM      4  C   UNL A   1     -29.092 -11.711  29.005  0.00  0.00    +0.000 A 
ATOM      5  C   UNL A   1     -30.132 -10.960  28.293  0.00  0.00    +0.000 A 
ATOM      6  C   UNL A   1     -30.835  -9.958  28.919  0.00  0.00    +0.000 A 
ATOM      7  C   UNL A   1     -30.656  -9.660  30.224  0.00  0.00    +0.000 A 
ATOM      8  C   UNL A   1     -29.721 -10.303  30.945  0.00  0.00    +0.000 A 
ATOM      9  C   UNL A   1     -28.810 -10.622  32.979  0.00  0.00    +0.003 A 
ATOM     10  C   UNL A   1     -29.604  -9.984  32.318  0.00  0.00    +0.000 A 
ENDROOT
BRANCH   2  11
ATOM     11  C   UNL A   1     -27.056 -12.338  33.401  0.00  0.00    +0.234 C 
ATOM     12  O   UNL A   1     -27.435 -12.321  34.484  0.00  0.00    -0.283 OA
ENDBRANCH   2  11
TORSDOF 1
ENDMDL
ENDMDL
