MODEL 2018
MODEL 1
REMARK VINA RESULT:    -4.480      0.000      0.000
REMARK INTER + INTRA:          -4.480
REMARK INTER:                  -4.480
REMARK INTRA:                   0.000
REMARK UNBOUND:                 0.000
REMARK  Name = No_2018-gen_results/8p0m/2024-11-27-11-27-31/
REMARK  0 active torsions:
REMARK  status: ('A' for Active; 'I' for Inactive)
REMARK                            x       y       z     vdW  Elec       q    Type
REMARK                         _______ _______ _______ _____ _____    ______ ____
ROOT
ATOM      1  C   UNL A   1     -26.122  -3.375  29.969  0.00  0.00    +0.002 A 
ATOM      2  C   UNL A   1     -26.102  -4.534  29.624  0.00  0.00    +0.030 A 
ATOM      3  C   UNL A   1     -25.030  -5.121  28.953  0.00  0.00    +0.140 A 
ATOM      4  C   UNL A   1     -23.892  -4.300  28.588  0.00  0.00    +0.030 A 
ATOM      5  C   UNL A   1     -23.965  -2.967  28.988  0.00  0.00    +0.002 A 
ATOM      6  C   UNL A   1     -25.025  -2.491  29.611  0.00  0.00    +0.000 A 
ATOM      7  F   UNL A   1     -24.980  -6.382  28.540  0.00  0.00    -0.204 F 
ENDROOT
TORSDOF 0
ENDMDL
ENDMDL
