MODEL 2019
MODEL 1
REMARK VINA RESULT:    -5.693      0.000      0.000
REMARK INTER + INTRA:          -5.693
REMARK INTER:                  -5.693
REMARK INTRA:                   0.000
REMARK UNBOUND:                 0.000
REMARK  Name = No_2019-gen_results/8p0m/2024-11-27-11-27-31/
REMARK  0 active torsions:
REMARK  status: ('A' for Active; 'I' for Inactive)
REMARK                            x       y       z     vdW  Elec       q    Type
REMARK                         _______ _______ _______ _____ _____    ______ ____
ROOT
ATOM      1  C   UNL A   1     -24.912  -5.188  28.939  0.00  0.00    +0.000 A 
ATOM      2  C   UNL A   1     -24.066  -4.342  28.764  0.00  0.00    +0.000 A 
ATOM      3  C   UNL A   1     -24.201  -3.018  29.182  0.00  0.00    +0.002 A 
ATOM      4  C   UNL A   1     -25.439  -2.599  29.810  0.00  0.00    +0.000 A 
ATOM      5  C   UNL A   1     -26.384  -3.638  29.972  0.00  0.00    +0.000 A 
ATOM      6  C   UNL A   1     -26.169  -4.855  29.540  0.00  0.00    +0.000 A 
ATOM      7  C   UNL A   1     -23.202  -1.931  29.013  0.00  0.00    +0.030 A 
ATOM      8  C   UNL A   1     -23.326  -0.733  29.534  0.00  0.00    +0.140 A 
ATOM      9  C   UNL A   1     -24.564  -0.481  30.291  0.00  0.00    +0.030 A 
ATOM     10  C   UNL A   1     -25.572  -1.340  30.407  0.00  0.00    +0.002 A 
ATOM     11  F   UNL A   1     -22.464   0.232  29.443  0.00  0.00    -0.204 F 
ENDROOT
TORSDOF 0
ENDMDL
ENDMDL
