REMARK  Name = outputs/IAG933/test6/raw/output_2019_IAG933_linker_design_.xyz
REMARK  10 active torsions:
REMARK  status: ('A' for Active; 'I' for Inactive)
REMARK    1  A    between atoms: C_1  and  C_2
REMARK    2  A    between atoms: C_1  and  C_8
REMARK    3  A    between atoms: C_1  and  C_45
REMARK    4  A    between atoms: C_13  and  C_47
REMARK    5  A    between atoms: C_14  and  C_15
REMARK    6  A    between atoms: C_21  and  O_22
REMARK    7  A    between atoms: O_22  and  C_23
REMARK    8  A    between atoms: C_23  and  C_24
REMARK    9  A    between atoms: C_30  and  C_34
REMARK   10  A    between atoms: C_33  and  N_39
REMARK                            x       y       z     vdW  Elec       q    Type
REMARK                         _______ _______ _______ _____ _____    ______ ____
ROOT
ATOM      1  C   UNL A   1     -24.945   1.112  28.690  0.00  0.00    +0.103 C 
ATOM      2  C   UNL A   1     -22.741   0.381  28.268  0.00  0.00    +0.097 C 
ATOM      3  O   UNL A   1     -22.992   2.695  25.408  0.00  0.00    -0.236 OA
ATOM      4  F   UNL A   1     -21.209   1.924  26.260  0.00  0.00    -0.143 F 
ATOM      5  C   UNL A   1     -22.515   2.010  26.259  0.00  0.00    +0.394 C 
ATOM      6  N   UNL A   1     -23.244   1.295  27.215  0.00  0.00    -0.250 N 
ATOM      7  C   UNL A   1     -24.009  -0.110  29.078  0.00  0.00    +0.036 C 
ATOM      8  C   UNL A   1     -24.555   1.126  27.211  0.00  0.00    +0.111 C 
ENDROOT
BRANCH   8   9
ATOM      9  C   UNL A   1     -25.688   1.614  26.461  0.00  0.00    +0.034 C 
ATOM     10  C   UNL A   1     -26.250   2.920  26.395  0.00  0.00    +0.074 C 
ATOM     11  C   UNL A   1     -27.438   3.091  25.645  0.00  0.00    +0.106 C 
ATOM     12  N   UNL A   1     -28.075   2.089  25.003  0.00  0.00    -0.208 NA
ATOM     13  C   UNL A   1     -27.543   0.849  25.079  0.00  0.00    +0.253 C 
ATOM     14  C   UNL A   1     -26.354   0.576  25.777  0.00  0.00    +0.191 C 
ATOM     15  F   UNL A   1     -25.860  -0.681  25.795  0.00  0.00    -0.200 F 
BRANCH  10  16
ATOM     16  C   UNL A   1     -25.642   4.093  27.123  0.00  0.00    +0.266 C 
ATOM     17  N   UNL A   1     -25.614   5.252  26.449  0.00  0.00    -0.200 NA
ATOM     18  C   UNL A   1     -25.026   6.479  26.963  0.00  0.00    +0.139 C 
ATOM     19  O   UNL A   1     -25.143   3.966  28.243  0.00  0.00    -0.268 OA
ENDBRANCH  10  16
BRANCH  13  20
ATOM     20  O   UNL A   1     -28.193  -0.208  24.477  0.00  0.00    -0.456 OA
BRANCH  20  21
ATOM     21  C   UNL A   1     -29.460   0.005  23.866  0.00  0.00    +0.243 C 
BRANCH  21  22
ATOM     22  C   UNL A   1     -30.065  -1.377  23.573  0.00  0.00    +0.229 C 
ATOM     23  O   UNL A   1     -30.729  -1.878  24.721  0.00  0.00    -0.216 OA
ENDBRANCH  21  22
ENDBRANCH  20  21
ENDBRANCH  13  20
ENDBRANCH   8   9
BRANCH   1  24
ATOM     24  C   UNL A   1     -26.401   0.827  28.991  0.00  0.00    +0.244 C 
ATOM     25  N   UNL A   1     -27.110   1.878  29.700  0.00  0.00    -0.190 NA
ATOM     26  O   UNL A   1     -27.055  -0.132  28.687  0.00  0.00    -0.273 OA
BRANCH  25  29
ATOM     27  C   UNL A   1     -25.944   3.974  31.230  0.00  0.00    +0.154 C 
ATOM     28  O   UNL A   1     -24.897   3.545  30.904  0.00  0.00    -0.296 OA
ATOM     29  C   UNL A   1     -27.991   2.741  30.630  0.00  0.00    +0.162 C 
ATOM     30  C   UNL A   1     -29.284   0.706  31.125  0.00  0.00    +0.091 C 
ATOM     31  N   UNL A   1     -28.984   2.186  31.400  0.00  0.00    -0.255 NA
ATOM     32  C   UNL A   1     -29.593   3.031  32.197  0.00  0.00    +0.074 C 
ATOM     33  C   UNL A   1     -26.628   5.075  31.609  0.00  0.00    +0.075 C 
ATOM     34  C   UNL A   1     -27.469   3.918  31.383  0.00  0.00    +0.092 C 
ATOM     35  C   UNL A   1     -28.696   4.030  32.361  0.00  0.00    +0.028 C 
ENDBRANCH  25  29
ENDBRANCH   1  24
BRANCH   7  36
ATOM     36  C   UNL A   1     -24.855  -1.012  30.143  0.00  0.00    +0.041 C 
BRANCH  36  37
ATOM     37  C   UNL A   1     -24.973  -2.505  29.788  0.00  0.00    -0.021 C 
ATOM     38  C   UNL A   1     -23.906  -3.173  29.146  0.00  0.00    -0.004 C 
ATOM     39  C   UNL A   1     -23.989  -4.549  28.853  0.00  0.00    -0.000 C 
ATOM     40  C   UNL A   1     -25.137  -5.280  29.205  0.00  0.00    -0.000 C 
ATOM     41  C   UNL A   1     -26.232  -4.611  29.784  0.00  0.00    -0.000 C 
ATOM     42  C   UNL A   1     -26.155  -3.232  30.065  0.00  0.00    -0.004 C 
ENDBRANCH  36  37
BRANCH  36  43
ATOM     43  C   UNL A   1     -25.387  -0.679  31.571  0.00  0.00    +0.077 C 
ATOM     44  C   UNL A   1     -25.189   0.773  32.028  0.00  0.00    +0.019 C 
ATOM     45  C   UNL A   1     -25.336   0.684  33.544  0.00  0.00    +0.020 C 
ATOM     46  C   UNL A   1     -24.829  -0.715  33.905  0.00  0.00    +0.089 C 
ATOM     47  N   UNL A   1     -24.758  -1.481  32.646  0.00  0.00    -0.219 NA
ENDBRANCH  36  43
ENDBRANCH   7  36
TORSDOF 10
