MODEL 201
MODEL 1
REMARK VINA RESULT:    -4.474      0.000      0.000
REMARK INTER + INTRA:          -4.474
REMARK INTER:                  -4.474
REMARK INTRA:                   0.000
REMARK UNBOUND:                 0.000
REMARK  Name = No_201-gen_results/8p0m/2024-11-27-11-27-31/
REMARK  0 active torsions:
REMARK  status: ('A' for Active; 'I' for Inactive)
REMARK                            x       y       z     vdW  Elec       q    Type
REMARK                         _______ _______ _______ _____ _____    ______ ____
ROOT
ATOM      1  F   UNL A   1      -9.153 -10.946  16.877  0.00  0.00    -0.204 F 
ATOM      2  C   UNL A   1      -9.235 -10.437  17.900  0.00  0.00    +0.140 A 
ATOM      3  C   UNL A   1     -10.251  -9.836  18.331  0.00  0.00    +0.030 A 
ATOM      4  C   UNL A   1      -7.966 -10.532  18.758  0.00  0.00    +0.030 A 
ATOM      5  C   UNL A   1      -7.969  -9.868  20.046  0.00  0.00    +0.002 A 
ATOM      6  C   UNL A   1     -10.231  -9.132  19.663  0.00  0.00    +0.002 A 
ATOM      7  C   UNL A   1      -9.088  -9.182  20.460  0.00  0.00    +0.000 A 
ENDROOT
TORSDOF 0
ENDMDL
ENDMDL
