REMARK  Name = outputs/IAG933/test6/raw/output_202_IAG933_linker_design_.xyz
REMARK  11 active torsions:
REMARK  status: ('A' for Active; 'I' for Inactive)
REMARK    1  A    between atoms: C_1  and  C_2
REMARK    2  A    between atoms: C_1  and  C_8
REMARK    3  A    between atoms: C_1  and  C_44
REMARK    4  A    between atoms: C_13  and  C_34
REMARK    5  A    between atoms: C_14  and  C_15
REMARK    6  A    between atoms: C_21  and  O_22
REMARK    7  A    between atoms: O_22  and  C_23
REMARK    8  A    between atoms: C_23  and  C_24
REMARK    9  A    between atoms: N_32  and  C_39
REMARK   10  A    between atoms: C_39  and  C_42
REMARK   11  A    between atoms: C_41  and  C_43
REMARK                            x       y       z     vdW  Elec       q    Type
REMARK                         _______ _______ _______ _____ _____    ______ ____
ROOT
ATOM      1  O   UNL A   1     -27.494  -0.086  28.583  0.00  0.00    -0.270 OA
ATOM      2  C   UNL A   1     -24.650   1.299  27.542  0.00  0.00    +0.050 A 
ATOM      3  C   UNL A   1     -23.194   0.395  28.809  0.00  0.00    -0.009 A 
ATOM      4  N   UNL A   1     -25.411   0.817  28.668  0.00  0.00    -0.284 N 
ATOM      5  C   UNL A   1     -22.008  -0.068  29.619  0.00  0.00    +0.032 C 
ATOM      6  C   UNL A   1     -26.859   0.802  29.085  0.00  0.00    +0.261 C 
ATOM      7  C   UNL A   1     -23.313   1.209  27.746  0.00  0.00    +0.035 A 
ATOM      8  C   UNL A   1     -24.461  -0.001  29.200  0.00  0.00    +0.045 A 
ENDROOT
BRANCH   2   9
ATOM      9  C   UNL A   1     -25.688   1.614  26.461  0.00  0.00    +0.108 C 
ATOM     10  C   UNL A   1     -26.250   2.920  26.395  0.00  0.00    +0.060 C 
ATOM     11  C   UNL A   1     -27.438   3.091  25.645  0.00  0.00    +0.102 C 
ATOM     12  N   UNL A   1     -28.075   2.089  25.003  0.00  0.00    -0.212 NA
ATOM     13  C   UNL A   1     -27.543   0.849  25.079  0.00  0.00    +0.234 C 
ATOM     14  C   UNL A   1     -26.354   0.576  25.777  0.00  0.00    +0.245 C 
ATOM     15  F   UNL A   1     -25.860  -0.681  25.795  0.00  0.00    -0.227 F 
BRANCH  10  16
ATOM     16  C   UNL A   1     -25.642   4.093  27.123  0.00  0.00    +0.263 C 
ATOM     17  N   UNL A   1     -25.614   5.252  26.449  0.00  0.00    -0.200 NA
ATOM     18  C   UNL A   1     -25.026   6.479  26.963  0.00  0.00    +0.139 C 
ATOM     19  O   UNL A   1     -25.143   3.966  28.243  0.00  0.00    -0.269 OA
ENDBRANCH  10  16
BRANCH  13  20
ATOM     20  O   UNL A   1     -28.193  -0.208  24.477  0.00  0.00    -0.459 OA
BRANCH  20  21
ATOM     21  C   UNL A   1     -29.460   0.005  23.866  0.00  0.00    +0.242 C 
BRANCH  21  22
ATOM     22  C   UNL A   1     -30.065  -1.377  23.573  0.00  0.00    +0.229 C 
ATOM     23  O   UNL A   1     -30.729  -1.878  24.721  0.00  0.00    -0.216 OA
ENDBRANCH  21  22
ENDBRANCH  20  21
ENDBRANCH  13  20
ENDBRANCH   2   9
BRANCH   7  26
ATOM     24  F   UNL A   1     -21.001   1.385  27.704  0.00  0.00    -0.214 F 
ATOM     25 CL   UNL A   1     -22.004   2.568  25.721  0.00  0.00    -0.072 Cl
ATOM     26  C   UNL A   1     -22.120   1.717  27.142  0.00  0.00    +0.263 C 
ENDBRANCH   7  26
BRANCH   6  28
ATOM     27  C   UNL A   1     -29.103   2.050  29.649  0.00  0.00    +0.034 C 
ATOM     28  C   UNL A   1     -27.645   1.844  30.117  0.00  0.00    +0.174 C 
BRANCH  28  30
ATOM     29  C   UNL A   1     -26.510   5.340  31.541  0.00  0.00    +0.096 C 
ATOM     30  N   UNL A   1     -27.147   3.284  30.402  0.00  0.00    -0.198 NA
ATOM     31  O   UNL A   1     -28.325   4.136  32.369  0.00  0.00    -0.273 OA
ATOM     32  C   UNL A   1     -27.437   4.206  31.525  0.00  0.00    +0.242 C 
ENDBRANCH  28  30
ENDBRANCH   6  28
BRANCH   8  33
ATOM     33  C   UNL A   1     -24.855  -1.012  30.143  0.00  0.00    +0.077 C 
BRANCH  33  34
ATOM     34  C   UNL A   1     -24.973  -2.505  29.788  0.00  0.00    -0.016 C 
ATOM     35  C   UNL A   1     -23.906  -3.173  29.146  0.00  0.00    -0.004 C 
ATOM     36  C   UNL A   1     -23.989  -4.549  28.853  0.00  0.00    -0.000 C 
ATOM     37  C   UNL A   1     -25.137  -5.280  29.205  0.00  0.00    -0.000 C 
ATOM     38  C   UNL A   1     -26.232  -4.611  29.784  0.00  0.00    -0.000 C 
ATOM     39  C   UNL A   1     -26.155  -3.232  30.065  0.00  0.00    -0.004 C 
ENDBRANCH  33  34
BRANCH  33  40
ATOM     40  C   UNL A   1     -25.387  -0.679  31.571  0.00  0.00    +0.082 C 
ATOM     41  C   UNL A   1     -25.189   0.773  32.028  0.00  0.00    +0.020 C 
ATOM     42  C   UNL A   1     -25.336   0.684  33.544  0.00  0.00    +0.020 C 
ATOM     43  C   UNL A   1     -24.829  -0.715  33.905  0.00  0.00    +0.089 C 
ATOM     44  N   UNL A   1     -24.758  -1.481  32.646  0.00  0.00    -0.219 NA
ENDBRANCH  33  40
ENDBRANCH   8  33
TORSDOF 11
