REMARK  Name = outputs/IAG933/test6/raw/output_2022_IAG933_linker_design_.xyz
REMARK  12 active torsions:
REMARK  status: ('A' for Active; 'I' for Inactive)
REMARK    1  A    between atoms: C_1  and  C_2
REMARK    2  A    between atoms: C_1  and  C_8
REMARK    3  A    between atoms: C_1  and  C_33
REMARK    4  A    between atoms: C_13  and  C_44
REMARK    5  A    between atoms: C_14  and  C_15
REMARK    6  A    between atoms: C_21  and  O_22
REMARK    7  A    between atoms: O_22  and  C_23
REMARK    8  A    between atoms: C_23  and  C_24
REMARK    9  A    between atoms: C_34  and  N_37
REMARK   10  A    between atoms: N_35  and  C_42
REMARK   11  A    between atoms: N_35  and  C_47
REMARK   12  A    between atoms: C_43  and  C_47
REMARK                            x       y       z     vdW  Elec       q    Type
REMARK                         _______ _______ _______ _____ _____    ______ ____
ROOT
ATOM      1  C   UNL A   1     -22.851   0.162  29.187  0.00  0.00    +0.028 C 
ATOM      2  C   UNL A   1     -24.274   0.082  29.356  0.00  0.00    +0.001 C 
ATOM      3  C   UNL A   1     -25.181   0.931  28.636  0.00  0.00    +0.071 C 
ATOM      4  F   UNL A   1     -20.989   1.064  27.931  0.00  0.00    -0.203 F 
ATOM      5  C   UNL A   1     -23.239   1.518  27.193  0.00  0.00    +0.086 C 
ATOM      6 CL   UNL A   1     -22.550   2.346  25.781  0.00  0.00    -0.080 Cl
ATOM      7  C   UNL A   1     -24.627   1.387  27.406  0.00  0.00    +0.030 C 
ATOM      8  C   UNL A   1     -22.346   0.907  28.114  0.00  0.00    +0.150 C 
ENDROOT
BRANCH   7   9
ATOM      9  C   UNL A   1     -25.688   1.614  26.461  0.00  0.00    +0.040 C 
ATOM     10  C   UNL A   1     -26.250   2.920  26.395  0.00  0.00    +0.077 C 
ATOM     11  C   UNL A   1     -27.438   3.091  25.645  0.00  0.00    +0.107 C 
ATOM     12  N   UNL A   1     -28.075   2.089  25.003  0.00  0.00    -0.208 NA
ATOM     13  C   UNL A   1     -27.543   0.849  25.079  0.00  0.00    +0.253 C 
ATOM     14  C   UNL A   1     -26.354   0.576  25.777  0.00  0.00    +0.193 C 
ATOM     15  F   UNL A   1     -25.860  -0.681  25.795  0.00  0.00    -0.199 F 
BRANCH  10  16
ATOM     16  C   UNL A   1     -25.642   4.093  27.123  0.00  0.00    +0.266 C 
ATOM     17  N   UNL A   1     -25.614   5.252  26.449  0.00  0.00    -0.200 NA
ATOM     18  C   UNL A   1     -25.026   6.479  26.963  0.00  0.00    +0.139 C 
ATOM     19  O   UNL A   1     -25.143   3.966  28.243  0.00  0.00    -0.268 OA
ENDBRANCH  10  16
BRANCH  13  20
ATOM     20  O   UNL A   1     -28.193  -0.208  24.477  0.00  0.00    -0.456 OA
BRANCH  20  21
ATOM     21  C   UNL A   1     -29.460   0.005  23.866  0.00  0.00    +0.243 C 
BRANCH  21  22
ATOM     22  C   UNL A   1     -30.065  -1.377  23.573  0.00  0.00    +0.229 C 
ATOM     23  O   UNL A   1     -30.729  -1.878  24.721  0.00  0.00    -0.216 OA
ENDBRANCH  21  22
ENDBRANCH  20  21
ENDBRANCH  13  20
ENDBRANCH   7   9
BRANCH   3  25
ATOM     24  O   UNL A   1     -27.460  -0.842  29.214  0.00  0.00    -0.271 OA
ATOM     25  N   UNL A   1     -26.533   1.317  29.088  0.00  0.00    -0.178 NA
ATOM     26  C   UNL A   1     -27.647   0.355  29.065  0.00  0.00    +0.271 C 
BRANCH  26  27
ATOM     27  C   UNL A   1     -29.173   0.718  28.927  0.00  0.00    +0.222 C 
BRANCH  27  29
ATOM     28  O   UNL A   1     -28.602   3.051  29.525  0.00  0.00    -0.084 OA
ATOM     29  N   UNL A   1     -29.496   2.172  28.784  0.00  0.00    -0.197 N 
BRANCH  29  34
ATOM     30  C   UNL A   1     -31.225   2.572  25.500  0.00  0.00    +0.002 C 
ATOM     31  C   UNL A   1     -29.924   4.085  27.442  0.00  0.00    +0.019 C 
ATOM     32  C   UNL A   1     -30.919   3.919  25.245  0.00  0.00    +0.000 C 
ATOM     33  C   UNL A   1     -30.276   4.673  26.227  0.00  0.00    +0.002 C 
ATOM     34  C   UNL A   1     -30.112   2.710  27.665  0.00  0.00    +0.086 C 
ATOM     35  C   UNL A   1     -30.831   1.942  26.711  0.00  0.00    +0.019 C 
ENDBRANCH  29  34
ENDBRANCH  27  29
ENDBRANCH  26  27
ENDBRANCH   3  25
BRANCH   2  36
ATOM     36  C   UNL A   1     -24.855  -1.012  30.143  0.00  0.00    +0.062 C 
BRANCH  36  37
ATOM     37  C   UNL A   1     -24.973  -2.505  29.788  0.00  0.00    -0.017 C 
ATOM     38  C   UNL A   1     -23.906  -3.173  29.146  0.00  0.00    -0.004 C 
ATOM     39  C   UNL A   1     -23.989  -4.549  28.853  0.00  0.00    -0.000 C 
ATOM     40  C   UNL A   1     -25.137  -5.280  29.205  0.00  0.00    -0.000 C 
ATOM     41  C   UNL A   1     -26.232  -4.611  29.784  0.00  0.00    -0.000 C 
ATOM     42  C   UNL A   1     -26.155  -3.232  30.065  0.00  0.00    -0.004 C 
ENDBRANCH  36  37
BRANCH  36  43
ATOM     43  C   UNL A   1     -25.387  -0.679  31.571  0.00  0.00    +0.081 C 
ATOM     44  C   UNL A   1     -25.189   0.773  32.028  0.00  0.00    +0.019 C 
ATOM     45  C   UNL A   1     -25.336   0.684  33.544  0.00  0.00    +0.020 C 
ATOM     46  C   UNL A   1     -24.829  -0.715  33.905  0.00  0.00    +0.089 C 
ATOM     47  N   UNL A   1     -24.758  -1.481  32.646  0.00  0.00    -0.219 NA
ENDBRANCH  36  43
ENDBRANCH   2  36
TORSDOF 12
