MODEL 2023
MODEL 1
REMARK VINA RESULT:    -5.565      0.000      0.000
REMARK INTER + INTRA:          -6.427
REMARK INTER:                  -6.215
REMARK INTRA:                  -0.212
REMARK UNBOUND:                -0.212
REMARK  Name = No_2023-gen_results/8p0m/2024-11-27-11-27-31/
REMARK  2 active torsions:
REMARK  status: ('A' for Active; 'I' for Inactive)
REMARK    1  A    between atoms: C_1  and  C_2
REMARK    2  A    between atoms: C_5  and  C_9
REMARK                            x       y       z     vdW  Elec       q    Type
REMARK                         _______ _______ _______ _____ _____    ______ ____
ROOT
ATOM      1  C   UNL A   1     -29.631 -10.834  30.195  0.00  0.00    +0.044 A 
ATOM      2  C   UNL A   1     -29.829 -10.155  31.288  0.00  0.00    +0.001 A 
ATOM      3  C   UNL A   1     -29.077 -10.299  32.559  0.00  0.00    +0.006 A 
ATOM      4  C   UNL A   1     -28.074 -11.309  32.590  0.00  0.00    +0.080 A 
ATOM      5  C   UNL A   1     -27.902 -12.067  31.459  0.00  0.00    +0.006 A 
ATOM      6  C   UNL A   1     -28.622 -11.914  30.323  0.00  0.00    +0.001 A 
ENDROOT
BRANCH   1   7
ATOM      7  C   UNL A   1     -30.228 -10.745  29.147  0.00  0.00    +0.341 C 
ATOM      8  F   UNL A   1     -30.648  -9.346  29.141  0.00  0.00    -0.193 F 
ATOM      9  F   UNL A   1     -29.535 -10.956  28.072  0.00  0.00    -0.193 F 
ENDBRANCH   1   7
BRANCH   4  10
ATOM     10  C   UNL A   1     -27.266 -11.525  33.757  0.00  0.00    +0.388 C 
ATOM     11  O   UNL A   1     -27.264 -10.881  34.772  0.00  0.00    -0.241 OA
ATOM     12  O   UNL A   1     -26.759 -12.836  33.866  0.00  0.00    -0.241 OA
ENDBRANCH   4  10
TORSDOF 2
ENDMDL
ENDMDL
