REMARK  Name = outputs/IAG933/test6/raw/output_2023_IAG933_linker_design_.xyz
REMARK  15 active torsions:
REMARK  status: ('A' for Active; 'I' for Inactive)
REMARK    1  A    between atoms: C_1  and  C_2
REMARK    2  A    between atoms: C_1  and  C_8
REMARK    3  A    between atoms: C_9  and  C_28
REMARK    4  A    between atoms: C_13  and  N_37
REMARK    5  A    between atoms: C_14  and  C_15
REMARK    6  A    between atoms: C_21  and  O_22
REMARK    7  A    between atoms: O_22  and  C_23
REMARK    8  A    between atoms: C_23  and  C_24
REMARK    9  A    between atoms: C_28  and  C_30
REMARK   10  A    between atoms: C_28  and  C_42
REMARK   11  A    between atoms: C_29  and  C_31
REMARK   12  A    between atoms: C_29  and  C_38
REMARK   13  A    between atoms: C_30  and  C_38
REMARK   14  A    between atoms: N_37  and  C_38
REMARK   15  A    between atoms: C_41  and  C_42
REMARK                            x       y       z     vdW  Elec       q    Type
REMARK                         _______ _______ _______ _____ _____    ______ ____
ROOT
ATOM      1  C   UNL A   1     -24.448   1.765  29.905  0.00  0.00    +0.025 C 
ENDROOT
BRANCH   1   2
ATOM      2  C   UNL A   1     -25.590   1.748  30.940  0.00  0.00    +0.008 C 
BRANCH   2   4
ATOM      3  C   UNL A   1     -25.387  -0.679  31.571  0.00  0.00    +0.077 C 
ATOM      4  C   UNL A   1     -25.189   0.773  32.028  0.00  0.00    +0.018 C 
ATOM      5  C   UNL A   1     -25.336   0.684  33.544  0.00  0.00    +0.020 C 
ATOM      6  C   UNL A   1     -24.829  -0.715  33.905  0.00  0.00    +0.089 C 
ATOM      7  N   UNL A   1     -24.758  -1.481  32.646  0.00  0.00    -0.219 NA
BRANCH   3   8
ATOM      8  C   UNL A   1     -24.855  -1.012  30.143  0.00  0.00    +0.044 C 
BRANCH   8   9
ATOM      9  C   UNL A   1     -24.973  -2.505  29.788  0.00  0.00    -0.021 C 
ATOM     10  C   UNL A   1     -23.906  -3.173  29.146  0.00  0.00    -0.004 C 
ATOM     11  C   UNL A   1     -23.989  -4.549  28.853  0.00  0.00    -0.000 C 
ATOM     12  C   UNL A   1     -25.137  -5.280  29.205  0.00  0.00    -0.000 C 
ATOM     13  C   UNL A   1     -26.232  -4.611  29.784  0.00  0.00    -0.000 C 
ATOM     14  C   UNL A   1     -26.155  -3.232  30.065  0.00  0.00    -0.004 C 
ENDBRANCH   8   9
ENDBRANCH   3   8
ENDBRANCH   2   4
BRANCH   2  15
ATOM     15  C   UNL A   1     -25.717   3.186  31.488  0.00  0.00    +0.026 C 
BRANCH  15  21
ATOM     16  C   UNL A   1     -26.597   3.823  33.886  0.00  0.00    +0.036 C 
ATOM     17  C   UNL A   1     -29.050   4.381  32.709  0.00  0.00    +0.232 C 
ATOM     18  C   UNL A   1     -27.610   4.427  34.642  0.00  0.00    +0.172 C 
ATOM     19  C   UNL A   1     -28.102   3.655  31.994  0.00  0.00    +0.017 C 
ATOM     20  O   UNL A   1     -28.763   4.738  34.015  0.00  0.00    -0.468 OA
ATOM     21  C   UNL A   1     -26.791   3.536  32.515  0.00  0.00    -0.020 C 
ENDBRANCH  15  21
ENDBRANCH   2  15
ENDBRANCH   1   2
BRANCH   1  22
ATOM     22  C   UNL A   1     -24.018   1.733  28.469  0.00  0.00    +0.130 C 
BRANCH  22  23
ATOM     23  C   UNL A   1     -22.624   1.163  28.163  0.00  0.00    +0.166 C 
ATOM     24  O   UNL A   1     -22.150   0.298  28.962  0.00  0.00    -0.295 OA
BRANCH  23  25
ATOM     25  C   UNL A   1     -21.881   1.738  27.005  0.00  0.00    +0.066 C 
ATOM     26  C   UNL A   1     -22.429   2.112  25.635  0.00  0.00    +0.008 C 
ENDBRANCH  23  25
ENDBRANCH  22  23
BRANCH  22  27
ATOM     27  N   UNL A   1     -24.956   1.067  27.486  0.00  0.00    -0.205 NA
BRANCH  27  28
ATOM     28  C   UNL A   1     -25.688   1.614  26.461  0.00  0.00    +0.143 C 
ATOM     29  C   UNL A   1     -26.250   2.920  26.395  0.00  0.00    +0.071 C 
ATOM     30  C   UNL A   1     -27.438   3.091  25.645  0.00  0.00    +0.103 C 
ATOM     31  N   UNL A   1     -28.075   2.089  25.003  0.00  0.00    -0.212 NA
ATOM     32  C   UNL A   1     -27.543   0.849  25.079  0.00  0.00    +0.236 C 
ATOM     33  C   UNL A   1     -26.354   0.576  25.777  0.00  0.00    +0.256 C 
ATOM     34  F   UNL A   1     -25.860  -0.681  25.795  0.00  0.00    -0.225 F 
BRANCH  29  35
ATOM     35  C   UNL A   1     -25.642   4.093  27.123  0.00  0.00    +0.264 C 
ATOM     36  N   UNL A   1     -25.614   5.252  26.449  0.00  0.00    -0.200 NA
ATOM     37  C   UNL A   1     -25.026   6.479  26.963  0.00  0.00    +0.139 C 
ATOM     38  O   UNL A   1     -25.143   3.966  28.243  0.00  0.00    -0.269 OA
ENDBRANCH  29  35
BRANCH  32  39
ATOM     39  O   UNL A   1     -28.193  -0.208  24.477  0.00  0.00    -0.459 OA
BRANCH  39  40
ATOM     40  C   UNL A   1     -29.460   0.005  23.866  0.00  0.00    +0.242 C 
BRANCH  40  41
ATOM     41  C   UNL A   1     -30.065  -1.377  23.573  0.00  0.00    +0.229 C 
ATOM     42  O   UNL A   1     -30.729  -1.878  24.721  0.00  0.00    -0.216 OA
ENDBRANCH  40  41
ENDBRANCH  39  40
ENDBRANCH  32  39
ENDBRANCH  27  28
ENDBRANCH  22  27
ENDBRANCH   1  22
TORSDOF 15
