MODEL 2024
MODEL 1
REMARK VINA RESULT:    -7.297      0.000      0.000
REMARK INTER + INTRA:         -11.203
REMARK INTER:                  -9.003
REMARK INTRA:                  -2.200
REMARK UNBOUND:                -2.200
REMARK  Name = No_2024-gen_results/8p0m/2024-11-27-11-27-31/
REMARK  4 active torsions:
REMARK  status: ('A' for Active; 'I' for Inactive)
REMARK    1  A    between atoms: C_3  and  C_13
REMARK    2  A    between atoms: C_4  and  C_5
REMARK    3  A    between atoms: C_13  and  C_14
REMARK    4  A    between atoms: C_16  and  C_21
REMARK                            x       y       z     vdW  Elec       q    Type
REMARK                         _______ _______ _______ _____ _____    ______ ____
ROOT
ATOM      1  C   UNL A   1     -23.373   1.231  27.484  0.00  0.00    -0.004 A 
ATOM      2  C   UNL A   1     -23.952   1.459  26.633  0.00  0.00    -0.000 A 
ATOM      3  C   UNL A   1     -23.695   0.061  28.206  0.00  0.00    -0.018 A 
ATOM      4  C   UNL A   1     -24.474  -0.706  27.851  0.00  0.00    -0.004 A 
ATOM      5  C   UNL A   1     -24.986   0.693  25.955  0.00  0.00    -0.000 A 
ATOM      6  C   UNL A   1     -25.296  -0.530  26.669  0.00  0.00    -0.000 A 
ENDROOT
BRANCH   4   7
ATOM      7  C   UNL A   1     -24.838  -2.022  28.589  0.00  0.00    -0.000 A 
ATOM      8  C   UNL A   1     -24.548  -3.075  28.306  0.00  0.00    -0.000 A 
ATOM      9  C   UNL A   1     -26.145  -1.938  29.228  0.00  0.00    -0.000 A 
ATOM     10  C   UNL A   1     -26.605  -3.060  30.020  0.00  0.00    -0.000 A 
ATOM     11  C   UNL A   1     -24.928  -4.364  28.989  0.00  0.00    -0.000 A 
ATOM     12  C   UNL A   1     -26.105  -4.329  29.795  0.00  0.00    -0.000 A 
ENDBRANCH   4   7
BRANCH   3  13
ATOM     13  C   UNL A   1     -22.827  -0.200  29.481  0.00  0.00    +0.045 C 
ATOM     14  C   UNL A   1     -21.421  -0.335  29.263  0.00  0.00    +0.009 C 
BRANCH  13  15
ATOM     15  C   UNL A   1     -23.433  -0.219  30.755  0.00  0.00    -0.018 A 
ATOM     16  C   UNL A   1     -24.259   0.761  31.129  0.00  0.00    +0.003 A 
ATOM     17  C   UNL A   1     -24.644   0.840  32.154  0.00  0.00    +0.080 A 
ATOM     18  C   UNL A   1     -23.117  -1.180  31.655  0.00  0.00    -0.004 A 
ATOM     19  C   UNL A   1     -23.627  -1.209  32.903  0.00  0.00    -0.000 A 
ATOM     20  C   UNL A   1     -24.432  -0.145  33.199  0.00  0.00    +0.007 A 
BRANCH  17  21
ATOM     21  C   UNL A   1     -25.668   1.970  32.689  0.00  0.00    +0.388 C 
ATOM     22  O   UNL A   1     -26.665   1.984  32.920  0.00  0.00    -0.241 OA
ATOM     23  O   UNL A   1     -25.014   3.214  32.678  0.00  0.00    -0.241 OA
ENDBRANCH  17  21
ENDBRANCH  13  15
ENDBRANCH   3  13
TORSDOF 4
ENDMDL
ENDMDL
