REMARK  Name = No_2024-gen_results/8p0m/2024-11-27-11-27-31/
REMARK  4 active torsions:
REMARK  status: ('A' for Active; 'I' for Inactive)
REMARK    1  A    between atoms: C_3  and  C_13
REMARK    2  A    between atoms: C_4  and  C_5
REMARK    3  A    between atoms: C_13  and  C_14
REMARK    4  A    between atoms: C_16  and  C_21
REMARK                            x       y       z     vdW  Elec       q    Type
REMARK                         _______ _______ _______ _____ _____    ______ ____
ROOT
ATOM      1  C   UNL A   1     -28.016  -0.814  28.878  0.00  0.00    -0.004 A 
ATOM      2  C   UNL A   1     -28.469  -0.785  29.829  0.00  0.00    -0.000 A 
ATOM      3  C   UNL A   1     -27.136   0.236  28.535  0.00  0.00    -0.018 A 
ATOM      4  C   UNL A   1     -26.805   1.051  29.276  0.00  0.00    -0.004 A 
ATOM      5  C   UNL A   1     -28.251   0.105  30.959  0.00  0.00    -0.000 A 
ATOM      6  C   UNL A   1     -27.318   1.165  30.628  0.00  0.00    -0.000 A 
ENDROOT
BRANCH   4   7
ATOM      7  C   UNL A   1     -25.815   2.203  28.959  0.00  0.00    -0.000 A 
ATOM      8  C   UNL A   1     -25.231   2.832  29.691  0.00  0.00    -0.000 A 
ATOM      9  C   UNL A   1     -26.201   2.930  27.756  0.00  0.00    -0.000 A 
ATOM     10  C   UNL A   1     -25.341   3.994  27.281  0.00  0.00    -0.000 A 
ATOM     11  C   UNL A   1     -24.299   3.981  29.400  0.00  0.00    -0.000 A 
ATOM     12  C   UNL A   1     -24.483   4.643  28.149  0.00  0.00    -0.000 A 
ENDBRANCH   4   7
BRANCH   3  13
ATOM     13  C   UNL A   1     -26.528   0.158  27.096  0.00  0.00    +0.045 C 
ATOM     14  C   UNL A   1     -25.172  -0.284  27.013  0.00  0.00    +0.009 C 
BRANCH  13  15
ATOM     15  C   UNL A   1     -27.333   0.447  25.974  0.00  0.00    -0.018 A 
ATOM     16  C   UNL A   1     -28.579   0.903  26.131  0.00  0.00    +0.003 A 
ATOM     17  C   UNL A   1     -29.270   1.015  25.285  0.00  0.00    +0.080 A 
ATOM     18  C   UNL A   1     -26.893   0.180  24.721  0.00  0.00    -0.004 A 
ATOM     19  C   UNL A   1     -27.647   0.387  23.622  0.00  0.00    -0.000 A 
ATOM     20  C   UNL A   1     -28.915   0.820  23.891  0.00  0.00    +0.007 A 
BRANCH  17  21
ATOM     21  C   UNL A   1     -30.779   1.585  25.374  0.00  0.00    +0.388 C 
ATOM     22  O   UNL A   1     -31.241   2.311  25.927  0.00  0.00    -0.241 OA
ATOM     23  O   UNL A   1     -31.618   0.765  24.599  0.00  0.00    -0.241 OA
ENDBRANCH  17  21
ENDBRANCH  13  15
ENDBRANCH   3  13
TORSDOF 4
