REMARK  Name = No_2025-gen_results/8p0m/2024-11-27-11-27-31/
REMARK  2 active torsions:
REMARK  status: ('A' for Active; 'I' for Inactive)
REMARK    1  A    between atoms: C_2  and  C_7
REMARK    2  A    between atoms: C_17  and  C_19
REMARK                            x       y       z     vdW  Elec       q    Type
REMARK                         _______ _______ _______ _____ _____    ______ ____
ROOT
ATOM      1  C   UNL A   1     -30.074  -0.836  29.861  0.00  0.00    +0.265 C 
ATOM      2  O   UNL A   1     -30.689  -1.655  30.223  0.00  0.00    -0.267 OA
ATOM      3  N   UNL A   1     -30.602   0.433  29.598  0.00  0.00    -0.273 N 
ATOM      4  C   UNL A   1     -31.626   0.721  29.296  0.00  0.00    +0.067 A 
ATOM      5  C   UNL A   1     -32.643   0.543  29.158  0.00  0.00    +0.018 A 
ATOM      6  C   UNL A   1     -33.800   1.312  28.714  0.00  0.00    +0.002 A 
ATOM      7  C   UNL A   1     -33.487   2.637  28.409  0.00  0.00    +0.000 A 
ATOM      8  C   UNL A   1     -32.240   3.113  28.462  0.00  0.00    +0.002 A 
ATOM      9  C   UNL A   1     -31.227   2.366  28.891  0.00  0.00    +0.018 A 
ATOM     10  C   UNL A   1     -29.506   1.624  29.448  0.00  0.00    +0.083 A 
ATOM     11  C   UNL A   1     -29.892   2.790  29.129  0.00  0.00    +0.019 A 
ENDROOT
BRANCH   1  13
ATOM     12  C   UNL A   1     -28.016  -0.814  28.878  0.00  0.00    +0.034 A 
ATOM     13  C   UNL A   1     -28.469  -0.785  29.829  0.00  0.00    +0.059 A 
ATOM     14  C   UNL A   1     -26.504  -0.778  28.877  0.00  0.00    +0.140 A 
ATOM     15  C   UNL A   1     -25.810  -0.853  30.103  0.00  0.00    +0.030 A 
ATOM     16  C   UNL A   1     -27.991  -0.892  31.226  0.00  0.00    +0.005 A 
ATOM     17  C   UNL A   1     -26.604  -0.868  31.265  0.00  0.00    +0.003 A 
ATOM     18  F   UNL A   1     -25.777  -0.744  27.773  0.00  0.00    -0.204 F 
ENDBRANCH   1  13
BRANCH  11  19
ATOM     19  C   UNL A   1     -29.311   4.019  28.943  0.00  0.00    +0.002 A 
ATOM     20  C   UNL A   1     -29.586   5.008  29.024  0.00  0.00    +0.000 A 
ATOM     21  C   UNL A   1     -29.321   6.176  29.110  0.00  0.00    +0.000 A 
ATOM     22  C   UNL A   1     -27.851   6.329  28.974  0.00  0.00    +0.000 A 
ATOM     23  C   UNL A   1     -27.080   5.187  28.772  0.00  0.00    +0.000 A 
ATOM     24  C   UNL A   1     -27.736   3.900  28.884  0.00  0.00    +0.000 A 
ENDBRANCH  11  19
TORSDOF 2
