MODEL 2025
MODEL 1
REMARK VINA RESULT:    -8.440      0.000      0.000
REMARK INTER + INTRA:          -9.515
REMARK INTER:                  -9.427
REMARK INTRA:                  -0.089
REMARK UNBOUND:                -0.089
REMARK  Name = No_2025-gen_results/8p0m/2024-11-27-11-27-31/
REMARK  2 active torsions:
REMARK  status: ('A' for Active; 'I' for Inactive)
REMARK    1  A    between atoms: C_2  and  C_7
REMARK    2  A    between atoms: C_17  and  C_19
REMARK                            x       y       z     vdW  Elec       q    Type
REMARK                         _______ _______ _______ _____ _____    ______ ____
ROOT
ATOM      1  C   UNL A   1     -25.551   1.782  26.020  0.00  0.00    +0.265 C 
ATOM      2  O   UNL A   1     -25.313   2.820  25.806  0.00  0.00    -0.267 OA
ATOM      3  N   UNL A   1     -24.812   1.021  26.932  0.00  0.00    -0.273 N 
ATOM      4  C   UNL A   1     -23.751   1.113  27.230  0.00  0.00    +0.067 A 
ATOM      5  C   UNL A   1     -22.837   1.610  27.285  0.00  0.00    +0.018 A 
ATOM      6  C   UNL A   1     -21.532   1.359  27.885  0.00  0.00    +0.002 A 
ATOM      7  C   UNL A   1     -21.480   0.155  28.587  0.00  0.00    +0.000 A 
ATOM      8  C   UNL A   1     -22.509  -0.695  28.637  0.00  0.00    +0.002 A 
ATOM      9  C   UNL A   1     -23.682  -0.402  28.083  0.00  0.00    +0.018 A 
ATOM     10  C   UNL A   1     -25.521  -0.357  27.422  0.00  0.00    +0.083 A 
ATOM     11  C   UNL A   1     -24.887  -1.148  28.186  0.00  0.00    +0.019 A 
ENDROOT
BRANCH   1  13
ATOM     12  C   UNL A   1     -26.828   0.360  24.775  0.00  0.00    +0.034 A 
ATOM     13  C   UNL A   1     -26.894   1.003  25.608  0.00  0.00    +0.059 A 
ATOM     14  C   UNL A   1     -28.110  -0.351  24.401  0.00  0.00    +0.140 A 
ATOM     15  C   UNL A   1     -29.306  -0.017  25.069  0.00  0.00    +0.030 A 
ATOM     16  C   UNL A   1     -27.995   1.541  26.438  0.00  0.00    +0.005 A 
ATOM     17  C   UNL A   1     -29.191   0.915  26.118  0.00  0.00    +0.003 A 
ATOM     18  F   UNL A   1     -28.191  -1.238  23.424  0.00  0.00    -0.204 F 
ENDBRANCH   1  13
BRANCH  11  19
ATOM     19  C   UNL A   1     -25.135  -2.339  28.820  0.00  0.00    +0.002 A 
ATOM     20  C   UNL A   1     -25.882  -2.749  29.398  0.00  0.00    +0.000 A 
ATOM     21  C   UNL A   1     -26.440  -3.690  29.894  0.00  0.00    +0.000 A 
ATOM     22  C   UNL A   1     -25.645  -4.908  29.600  0.00  0.00    +0.000 A 
ATOM     23  C   UNL A   1     -24.469  -4.773  28.866  0.00  0.00    +0.000 A 
ATOM     24  C   UNL A   1     -24.182  -3.479  28.281  0.00  0.00    +0.000 A 
ENDBRANCH  11  19
TORSDOF 2
ENDMDL
ENDMDL
