REMARK  Name = No_2026-gen_results/8p0m/2024-11-27-11-27-31/
REMARK  2 active torsions:
REMARK  status: ('A' for Active; 'I' for Inactive)
REMARK    1  A    between atoms: C_2  and  C_6
REMARK    2  A    between atoms: C_4  and  C_5
REMARK                            x       y       z     vdW  Elec       q    Type
REMARK                         _______ _______ _______ _____ _____    ______ ____
ROOT
ATOM      1  C   UNL A   1     -28.016  -0.814  28.878  0.00  0.00    +0.076 C 
ATOM      2  C   UNL A   1     -28.469  -0.785  29.829  0.00  0.00    +0.111 C 
ATOM      3  C   UNL A   1     -26.546  -0.876  28.850  0.00  0.00    +0.155 C 
ATOM      4  C   UNL A   1     -25.804  -1.032  30.057  0.00  0.00    +0.080 C 
ATOM      5  C   UNL A   1     -27.906  -1.010  31.185  0.00  0.00    +0.013 C 
ATOM      6  C   UNL A   1     -26.509  -1.120  31.269  0.00  0.00    +0.012 C 
ATOM      7  O   UNL A   1     -25.922  -0.591  27.679  0.00  0.00    -0.296 OA
ENDROOT
BRANCH   4   8
ATOM      8  C   UNL A   1     -24.370  -1.100  30.072  0.00  0.00    -0.015 A 
ATOM      9  C   UNL A   1     -23.717  -1.196  31.238  0.00  0.00    -0.004 A 
ATOM     10  C   UNL A   1     -23.566  -1.144  28.904  0.00  0.00    -0.004 A 
ATOM     11  C   UNL A   1     -22.173  -1.016  28.986  0.00  0.00    -0.000 A 
ATOM     12  C   UNL A   1     -22.246  -1.015  31.373  0.00  0.00    -0.000 A 
ATOM     13  C   UNL A   1     -21.542  -0.963  30.172  0.00  0.00    -0.000 A 
ENDBRANCH   4   8
BRANCH   2  14
ATOM     14  C   UNL A   1     -30.032  -0.774  29.854  0.00  0.00    +0.365 C 
ATOM     15  O   UNL A   1     -30.735  -1.550  30.338  0.00  0.00    -0.246 OA
ATOM     16  O   UNL A   1     -30.534   0.247  29.219  0.00  0.00    -0.246 OA
ENDBRANCH   2  14
TORSDOF 2
