MODEL 2026
MODEL 1
REMARK VINA RESULT:    -6.556      0.000      0.000
REMARK INTER + INTRA:          -7.724
REMARK INTER:                  -7.322
REMARK INTRA:                  -0.402
REMARK UNBOUND:                -0.402
REMARK  Name = No_2026-gen_results/8p0m/2024-11-27-11-27-31/
REMARK  2 active torsions:
REMARK  status: ('A' for Active; 'I' for Inactive)
REMARK    1  A    between atoms: C_2  and  C_6
REMARK    2  A    between atoms: C_4  and  C_5
REMARK                            x       y       z     vdW  Elec       q    Type
REMARK                         _______ _______ _______ _____ _____    ______ ____
ROOT
ATOM      1  C   UNL A   1     -23.643   1.086  28.428  0.00  0.00    +0.076 C 
ATOM      2  C   UNL A   1     -24.231   1.363  27.598  0.00  0.00    +0.111 C 
ATOM      3  C   UNL A   1     -23.830  -0.281  28.941  0.00  0.00    +0.155 C 
ATOM      4  C   UNL A   1     -24.664  -1.207  28.248  0.00  0.00    +0.080 C 
ATOM      5  C   UNL A   1     -25.085   0.553  26.693  0.00  0.00    +0.013 C 
ATOM      6  C   UNL A   1     -25.302  -0.782  27.071  0.00  0.00    +0.012 C 
ATOM      7  O   UNL A   1     -23.347  -0.565  30.177  0.00  0.00    -0.296 OA
ENDROOT
BRANCH   4   8
ATOM      8  C   UNL A   1     -24.870  -2.549  28.714  0.00  0.00    -0.015 A 
ATOM      9  C   UNL A   1     -23.954  -3.493  28.460  0.00  0.00    -0.004 A 
ATOM     10  C   UNL A   1     -25.974  -2.952  29.508  0.00  0.00    -0.004 A 
ATOM     11  C   UNL A   1     -26.216  -4.308  29.766  0.00  0.00    -0.000 A 
ATOM     12  C   UNL A   1     -24.192  -4.947  28.671  0.00  0.00    -0.000 A 
ATOM     13  C   UNL A   1     -25.355  -5.262  29.371  0.00  0.00    -0.000 A 
ENDBRANCH   4   8
BRANCH   2  14
ATOM     14  C   UNL A   1     -23.989   2.797  27.024  0.00  0.00    +0.365 C 
ATOM     15  O   UNL A   1     -24.209   3.808  27.534  0.00  0.00    -0.246 OA
ATOM     16  O   UNL A   1     -23.499   2.774  25.817  0.00  0.00    -0.246 OA
ENDBRANCH   2  14
TORSDOF 2
ENDMDL
ENDMDL
