MODEL 2028
MODEL 1
REMARK VINA RESULT:    -5.999      0.000      0.000
REMARK INTER + INTRA:          -6.789
REMARK INTER:                  -6.700
REMARK INTRA:                  -0.089
REMARK UNBOUND:                -0.089
REMARK  Name = No_2028-gen_results/8p0m/2024-11-27-11-27-31/
REMARK  2 active torsions:
REMARK  status: ('A' for Active; 'I' for Inactive)
REMARK    1  A    between atoms: C_2  and  C_7
REMARK    2  A    between atoms: N_9  and  C_11
REMARK                            x       y       z     vdW  Elec       q    Type
REMARK                         _______ _______ _______ _____ _____    ______ ____
ROOT
ATOM      1  C   UNL A   1     -24.515   0.272  29.430  0.00  0.00    +0.253 C 
ATOM      2  O   UNL A   1     -24.446   1.310  29.115  0.00  0.00    -0.270 OA
ATOM      3  N   UNL A   1     -24.890  -0.755  28.558  0.00  0.00    -0.253 N 
ATOM      4  C   UNL A   1     -25.215  -0.419  27.215  0.00  0.00    +0.120 C 
ENDROOT
BRANCH   1   6
ATOM      5  C   UNL A   1     -25.177  -0.108  31.579  0.00  0.00    +0.004 A 
ATOM      6  C   UNL A   1     -24.367  -0.286  30.929  0.00  0.00    +0.054 A 
ATOM      7  C   UNL A   1     -25.006  -0.632  32.988  0.00  0.00    +0.000 A 
ATOM      8  C   UNL A   1     -23.765  -1.177  33.377  0.00  0.00    +0.000 A 
ATOM      9  C   UNL A   1     -22.983  -0.786  31.084  0.00  0.00    +0.004 A 
ATOM     10  C   UNL A   1     -22.786  -1.271  32.369  0.00  0.00    +0.000 A 
ENDBRANCH   1   6
BRANCH   3  11
ATOM     11  C   UNL A   1     -24.966  -2.164  28.915  0.00  0.00    +0.054 A 
ATOM     12  C   UNL A   1     -26.241  -2.487  29.514  0.00  0.00    +0.015 A 
ATOM     13  C   UNL A   1     -26.372  -3.731  29.727  0.00  0.00    +0.001 A 
ATOM     14  C   UNL A   1     -25.416  -4.788  29.480  0.00  0.00    +0.000 A 
ATOM     15  C   UNL A   1     -24.231  -4.369  28.937  0.00  0.00    +0.001 A 
ATOM     16  C   UNL A   1     -24.135  -3.118  28.612  0.00  0.00    +0.015 A 
ENDBRANCH   3  11
TORSDOF 2
ENDMDL
ENDMDL
