MODEL 2029
MODEL 1
REMARK VINA RESULT:    -6.825      0.000      0.000
REMARK INTER + INTRA:          -9.909
REMARK INTER:                  -9.218
REMARK INTRA:                  -0.690
REMARK UNBOUND:                -0.690
REMARK  Name = No_2029-gen_results/8p0m/2024-11-27-11-27-31/
REMARK  6 active torsions:
REMARK  status: ('A' for Active; 'I' for Inactive)
REMARK    1  A    between atoms: C_3  and  C_4
REMARK    2  A    between atoms: C_4  and  C_8
REMARK    3  A    between atoms: C_10  and  C_17
REMARK    4  A    between atoms: C_17  and  C_18
REMARK    5  A    between atoms: C_18  and  N_19
REMARK    6  A    between atoms: N_19  and  C_20
REMARK                            x       y       z     vdW  Elec       q    Type
REMARK                         _______ _______ _______ _____ _____    ______ ____
ROOT
ATOM      1  C   UNL A   1     -24.097  -0.560  28.225  0.00  0.00    -0.015 A 
ATOM      2  C   UNL A   1     -24.784  -0.821  27.309  0.00  0.00    -0.008 A 
ATOM      3  C   UNL A   1     -24.941   0.141  26.200  0.00  0.00    -0.018 A 
ATOM      4  C   UNL A   1     -24.217   1.349  26.173  0.00  0.00    +0.038 A 
ATOM      5  C   UNL A   1     -23.407   0.764  28.266  0.00  0.00    +0.038 A 
ATOM      6  C   UNL A   1     -23.528   1.666  27.275  0.00  0.00    +0.195 A 
ATOM      7  O   UNL A   1     -22.954   2.882  27.324  0.00  0.00    -0.287 OA
ENDROOT
BRANCH   1   8
ATOM      8  C   UNL A   1     -23.870  -1.396  29.390  0.00  0.00    +0.053 C 
BRANCH   8  11
ATOM      9  C   UNL A   1     -24.303  -3.959  28.956  0.00  0.00    +0.026 A 
ATOM     10  C   UNL A   1     -25.069  -4.682  28.997  0.00  0.00    +0.140 A 
ATOM     11  C   UNL A   1     -24.678  -2.587  29.470  0.00  0.00    -0.009 A 
ATOM     12  C   UNL A   1     -26.379  -4.686  29.660  0.00  0.00    +0.030 A 
ATOM     13  C   UNL A   1     -26.781  -3.474  30.179  0.00  0.00    +0.009 A 
ATOM     14  C   UNL A   1     -25.942  -2.390  30.134  0.00  0.00    +0.031 A 
ATOM     15  F   UNL A   1     -24.730  -5.989  28.518  0.00  0.00    -0.204 F 
ATOM     16 BR   UNL A   1     -26.478  -0.796  30.842  0.00  0.00    -0.049 Br
ENDBRANCH   8  11
ENDBRANCH   1   8
BRANCH   3  17
ATOM     17  C   UNL A   1     -25.830  -0.330  24.998  0.00  0.00    +0.050 C 
BRANCH  17  18
ATOM     18  C   UNL A   1     -26.928   0.488  24.728  0.00  0.00    +0.117 C 
BRANCH  18  19
ATOM     19  N   UNL A   1     -28.019  -0.022  24.475  0.00  0.00    -0.236 NA
BRANCH  19  20
ATOM     20  C   UNL A   1     -28.898   0.141  23.662  0.00  0.00    +0.080 C 
ATOM     21  C   UNL A   1     -29.752   1.261  23.442  0.00  0.00    +0.019 C 
ENDBRANCH  19  20
ENDBRANCH  18  19
ENDBRANCH  17  18
ENDBRANCH   3  17
TORSDOF 6
ENDMDL
ENDMDL
