MODEL 202
MODEL 1
REMARK VINA RESULT:    -6.940      0.000      0.000
REMARK INTER + INTRA:          -9.989
REMARK INTER:                  -8.968
REMARK INTRA:                  -1.021
REMARK UNBOUND:                -1.021
REMARK  Name = No_202-gen_results/8p0m/2024-11-27-11-27-31/
REMARK  5 active torsions:
REMARK  status: ('A' for Active; 'I' for Inactive)
REMARK    1  A    between atoms: C_2  and  C_10
REMARK    2  A    between atoms: C_5  and  C_7
REMARK    3  A    between atoms: C_7  and  N_8
REMARK    4  A    between atoms: C_16  and  C_17
REMARK    5  A    between atoms: C_18  and  C_19
REMARK                            x       y       z     vdW  Elec       q    Type
REMARK                         _______ _______ _______ _____ _____    ______ ____
ROOT
ATOM      1  C   UNL A   1     -26.891   1.910  26.655  0.00  0.00    -0.000 A 
ATOM      2  C   UNL A   1     -27.046   1.144  25.732  0.00  0.00    -0.000 A 
ATOM      3  C   UNL A   1     -26.129   0.171  25.384  0.00  0.00    -0.000 A 
ATOM      4  C   UNL A   1     -24.959   0.041  26.184  0.00  0.00    -0.002 A 
ATOM      5  C   UNL A   1     -24.914   0.804  27.301  0.00  0.00    +0.011 A 
ATOM      6  C   UNL A   1     -25.859   1.682  27.577  0.00  0.00    -0.002 A 
ENDROOT
BRANCH   2   7
ATOM      7  C   UNL A   1     -28.245   1.320  24.708  0.00  0.00    -0.000 A 
ATOM      8  C   UNL A   1     -28.645   2.242  24.337  0.00  0.00    -0.000 A 
ATOM      9  C   UNL A   1     -29.797   2.374  23.382  0.00  0.00    +0.000 A 
ATOM     10  C   UNL A   1     -30.416   1.185  22.958  0.00  0.00    +0.000 A 
ATOM     11  C   UNL A   1     -29.945   0.014  23.475  0.00  0.00    +0.000 A 
ATOM     12  C   UNL A   1     -28.806  -0.044  24.362  0.00  0.00    -0.000 A 
ENDBRANCH   2   7
BRANCH   5  13
ATOM     13  C   UNL A   1     -23.705   0.633  28.134  0.00  0.00    +0.181 C 
ATOM     14 BR   UNL A   1     -22.159   1.442  27.670  0.00  0.00    -0.050 Br
BRANCH  13  15
ATOM     15  N   UNL A   1     -23.680  -0.319  28.871  0.00  0.00    -0.255 NA
ATOM     16  C   UNL A   1     -23.355  -1.353  28.845  0.00  0.00    +0.095 C 
BRANCH  16  17
ATOM     17  C   UNL A   1     -23.497  -2.346  29.057  0.00  0.00    +0.020 C 
ATOM     18  C   UNL A   1     -24.185  -3.472  28.416  0.00  0.00    +0.001 C 
BRANCH  18  19
ATOM     19  C   UNL A   1     -24.260  -4.786  28.800  0.00  0.00    -0.004 C 
ATOM     20  C   UNL A   1     -25.463  -5.194  29.406  0.00  0.00    -0.026 C 
ATOM     21  C   UNL A   1     -26.470  -4.393  29.679  0.00  0.00    +0.031 C 
ENDBRANCH  18  19
ENDBRANCH  16  17
ENDBRANCH  13  15
ENDBRANCH   5  13
TORSDOF 5
ENDMDL
ENDMDL
