MODEL 2030
MODEL 1
REMARK VINA RESULT:    -4.306      0.000      0.000
REMARK INTER + INTRA:          -4.306
REMARK INTER:                  -4.306
REMARK INTRA:                   0.000
REMARK UNBOUND:                 0.000
REMARK  Name = No_2030-gen_results/8p0m/2024-11-27-11-27-31/
REMARK  0 active torsions:
REMARK  status: ('A' for Active; 'I' for Inactive)
REMARK                            x       y       z     vdW  Elec       q    Type
REMARK                         _______ _______ _______ _____ _____    ______ ____
ROOT
ATOM      1  C   UNL A   1     -24.940  -5.403  28.972  0.00  0.00    +0.000 A 
ATOM      2  C   UNL A   1     -24.186  -4.720  28.700  0.00  0.00    +0.000 A 
ATOM      3  C   UNL A   1     -26.098  -4.775  29.607  0.00  0.00    +0.000 A 
ATOM      4  C   UNL A   1     -26.178  -3.417  29.800  0.00  0.00    +0.000 A 
ATOM      5  C   UNL A   1     -24.002  -3.271  28.774  0.00  0.00    +0.000 A 
ATOM      6  C   UNL A   1     -25.117  -2.653  29.387  0.00  0.00    +0.000 A 
ENDROOT
TORSDOF 0
ENDMDL
ENDMDL
