MODEL 2031
MODEL 1
REMARK VINA RESULT:    -6.570      0.000      0.000
REMARK INTER + INTRA:          -7.293
REMARK INTER:                  -6.954
REMARK INTRA:                  -0.339
REMARK UNBOUND:                -0.339
REMARK  Name = No_2031-gen_results/8p0m/2024-11-27-11-27-31/
REMARK  1 active torsions:
REMARK  status: ('A' for Active; 'I' for Inactive)
REMARK    1  A    between atoms: C_3  and  C_7
REMARK                            x       y       z     vdW  Elec       q    Type
REMARK                         _______ _______ _______ _____ _____    ______ ____
ROOT
ATOM      1  C   UNL A   1     -21.886  -0.076  28.907  0.00  0.00    +0.000 A 
ATOM      2  C   UNL A   1     -22.433  -1.105  29.233  0.00  0.00    +0.000 A 
ATOM      3  C   UNL A   1     -23.704  -1.474  28.794  0.00  0.00    +0.000 A 
ATOM      4  C   UNL A   1     -24.451  -0.564  27.948  0.00  0.00    +0.000 A 
ATOM      5  C   UNL A   1     -23.753   0.620  27.618  0.00  0.00    +0.000 A 
ATOM      6  C   UNL A   1     -22.559   0.883  28.085  0.00  0.00    +0.000 A 
ENDROOT
BRANCH   3   7
ATOM      7  C   UNL A   1     -24.432  -2.723  29.142  0.00  0.00    +0.000 A 
ATOM      8  C   UNL A   1     -23.995  -3.900  28.772  0.00  0.00    +0.000 A 
ATOM      9  C   UNL A   1     -24.758  -5.051  29.004  0.00  0.00    +0.000 A 
ATOM     10  C   UNL A   1     -25.982  -4.923  29.490  0.00  0.00    +0.000 A 
ATOM     11  C   UNL A   1     -25.774  -2.713  29.669  0.00  0.00    +0.000 A 
ATOM     12  C   UNL A   1     -26.529  -3.800  29.881  0.00  0.00    +0.000 A 
ENDBRANCH   3   7
TORSDOF 1
ENDMDL
ENDMDL
