MODEL 2032
MODEL 1
REMARK VINA RESULT:    -5.127      0.000      0.000
REMARK INTER + INTRA:          -5.564
REMARK INTER:                  -5.427
REMARK INTRA:                  -0.137
REMARK UNBOUND:                -0.137
REMARK  Name = No_2032-gen_results/8p0m/2024-11-27-11-27-31/
REMARK  1 active torsions:
REMARK  status: ('A' for Active; 'I' for Inactive)
REMARK    1  A    between atoms: C_4  and  C_8
REMARK                            x       y       z     vdW  Elec       q    Type
REMARK                         _______ _______ _______ _____ _____    ______ ____
ROOT
ATOM      1  C   UNL A   1     -23.976  -4.466  28.601  0.00  0.00    +0.030 A 
ATOM      2  C   UNL A   1     -24.865  -4.985  28.828  0.00  0.00    +0.140 A 
ATOM      3  C   UNL A   1     -23.949  -3.031  28.925  0.00  0.00    +0.006 A 
ATOM      4  C   UNL A   1     -25.027  -2.429  29.638  0.00  0.00    +0.072 A 
ATOM      5  C   UNL A   1     -26.082  -4.617  29.603  0.00  0.00    +0.030 A 
ATOM      6  C   UNL A   1     -26.098  -3.290  29.913  0.00  0.00    +0.006 A 
ATOM      7  F   UNL A   1     -24.893  -6.394  28.528  0.00  0.00    -0.204 F 
ENDROOT
BRANCH   4   8
ATOM      8  C   UNL A   1     -25.035  -1.039  29.971  0.00  0.00    +0.419 C 
ATOM      9  F   UNL A   1     -26.058  -0.558  30.228  0.00  0.00    -0.166 F 
ATOM     10  F   UNL A   1     -24.185  -0.797  31.077  0.00  0.00    -0.166 F 
ATOM     11  F   UNL A   1     -24.380  -0.258  28.984  0.00  0.00    -0.166 F 
ENDBRANCH   4   8
TORSDOF 1
ENDMDL
ENDMDL
