MODEL 2033
MODEL 1
REMARK VINA RESULT:    -6.607      0.000      0.000
REMARK INTER + INTRA:          -7.810
REMARK INTER:                  -7.379
REMARK INTRA:                  -0.431
REMARK UNBOUND:                -0.431
REMARK  Name = No_2033-gen_results/8p0m/2024-11-27-11-27-31/
REMARK  2 active torsions:
REMARK  status: ('A' for Active; 'I' for Inactive)
REMARK    1  A    between atoms: C_3  and  C_7
REMARK    2  A    between atoms: C_6  and  C_13
REMARK                            x       y       z     vdW  Elec       q    Type
REMARK                         _______ _______ _______ _____ _____    ______ ____
ROOT
ATOM      1  C   UNL A   1     -29.413 -10.215  32.434  0.00  0.00    +0.007 A 
ATOM      2  C   UNL A   1     -29.752 -10.141  31.276  0.00  0.00    +0.000 A 
ATOM      3  C   UNL A   1     -29.279 -10.992  30.278  0.00  0.00    +0.000 A 
ATOM      4  C   UNL A   1     -28.282 -11.990  30.616  0.00  0.00    +0.000 A 
ATOM      5  C   UNL A   1     -27.905 -12.027  31.958  0.00  0.00    +0.007 A 
ATOM      6  C   UNL A   1     -28.397 -11.174  32.835  0.00  0.00    +0.080 A 
ENDROOT
BRANCH   3   7
ATOM      7  C   UNL A   1     -29.650 -10.972  28.827  0.00  0.00    +0.000 A 
ATOM      8  C   UNL A   1     -30.688 -10.314  28.396  0.00  0.00    +0.000 A 
ATOM      9  C   UNL A   1     -31.084 -10.371  27.026  0.00  0.00    +0.000 A 
ATOM     10  C   UNL A   1     -30.579 -11.351  26.297  0.00  0.00    +0.000 A 
ATOM     11  C   UNL A   1     -29.086 -11.919  27.869  0.00  0.00    +0.000 A 
ATOM     12  C   UNL A   1     -29.524 -12.066  26.587  0.00  0.00    +0.000 A 
ENDBRANCH   3   7
BRANCH   6  13
ATOM     13  C   UNL A   1     -27.902 -11.224  34.243  0.00  0.00    +0.388 C 
ATOM     14  O   UNL A   1     -27.802 -10.344  34.884  0.00  0.00    -0.241 OA
ATOM     15  O   UNL A   1     -27.224 -12.377  34.528  0.00  0.00    -0.241 OA
ENDBRANCH   6  13
TORSDOF 2
ENDMDL
ENDMDL
