REMARK  Name = outputs/IAG933/test6/raw/output_2034_IAG933_linker_design_.xyz
REMARK  14 active torsions:
REMARK  status: ('A' for Active; 'I' for Inactive)
REMARK    1  A    between atoms: C_1  and  C_2
REMARK    2  A    between atoms: C_1  and  C_8
REMARK    3  A    between atoms: C_1  and  C_35
REMARK    4  A    between atoms: C_14  and  C_15
REMARK    5  A    between atoms: C_15  and  O_18
REMARK    6  A    between atoms: O_18  and  C_31
REMARK    7  A    between atoms: C_21  and  O_22
REMARK    8  A    between atoms: O_22  and  C_23
REMARK    9  A    between atoms: C_23  and  C_24
REMARK   10  A    between atoms: C_30  and  O_38
REMARK   11  A    between atoms: C_31  and  C_39
REMARK   12  A    between atoms: C_31  and  C_46
REMARK   13  A    between atoms: S_34  and  C_37
REMARK   14  A    between atoms: C_36  and  C_46
REMARK                            x       y       z     vdW  Elec       q    Type
REMARK                         _______ _______ _______ _____ _____    ______ ____
ROOT
ATOM      1  C   UNL A   1     -25.109   3.171  29.337  0.00  0.00    +0.174 C 
ENDROOT
BRANCH   1   4
ATOM      2  C   UNL A   1     -25.437   4.177  31.816  0.00  0.00    +0.129 C 
ATOM      3  C   UNL A   1     -27.160   5.959  31.998  0.00  0.00    +0.087 C 
ATOM      4  C   UNL A   1     -25.821   4.282  30.309  0.00  0.00    +0.065 C 
ATOM      5  C   UNL A   1     -27.301   4.533  29.904  0.00  0.00    +0.013 C 
ATOM      6  N   UNL A   1     -26.061   5.391  32.476  0.00  0.00    -0.268 NA
ATOM      7  C   UNL A   1     -27.895   5.208  31.060  0.00  0.00    +0.053 C 
BRANCH   3   9
ATOM      8  O   UNL A   1     -28.490   7.379  33.747  0.00  0.00    -0.166 OA
ATOM      9  S   UNL A   1     -27.502   7.617  32.679  0.00  0.00    -0.039 S 
ATOM     10  C   UNL A   1     -28.144   8.451  31.282  0.00  0.00    +0.086 C 
ATOM     11  C   UNL A   1     -26.277   8.495  33.445  0.00  0.00    +0.086 C 
ENDBRANCH   3   9
ENDBRANCH   1   4
BRANCH   1  12
ATOM     12  O   UNL A   1     -25.143   3.966  28.243  0.00  0.00    -0.464 OA
BRANCH  12  13
ATOM     13  C   UNL A   1     -25.642   4.093  27.123  0.00  0.00    +0.222 C 
ATOM     14  N   UNL A   1     -25.614   5.252  26.449  0.00  0.00    -0.236 NA
ATOM     15  C   UNL A   1     -25.026   6.479  26.963  0.00  0.00    +0.155 C 
BRANCH  13  17
ATOM     16  C   UNL A   1     -25.688   1.614  26.461  0.00  0.00    +0.041 C 
ATOM     17  C   UNL A   1     -26.250   2.920  26.395  0.00  0.00    +0.074 C 
ATOM     18  C   UNL A   1     -27.438   3.091  25.645  0.00  0.00    +0.107 C 
ATOM     19  N   UNL A   1     -28.075   2.089  25.003  0.00  0.00    -0.208 NA
ATOM     20  C   UNL A   1     -27.543   0.849  25.079  0.00  0.00    +0.253 C 
ATOM     21  C   UNL A   1     -26.354   0.576  25.777  0.00  0.00    +0.193 C 
ATOM     22  F   UNL A   1     -25.860  -0.681  25.795  0.00  0.00    -0.199 F 
BRANCH  20  23
ATOM     23  O   UNL A   1     -28.193  -0.208  24.477  0.00  0.00    -0.456 OA
BRANCH  23  24
ATOM     24  C   UNL A   1     -29.460   0.005  23.866  0.00  0.00    +0.243 C 
BRANCH  24  25
ATOM     25  C   UNL A   1     -30.065  -1.377  23.573  0.00  0.00    +0.229 C 
ATOM     26  O   UNL A   1     -30.729  -1.878  24.721  0.00  0.00    -0.216 OA
ENDBRANCH  24  25
ENDBRANCH  23  24
ENDBRANCH  20  23
ENDBRANCH  13  17
ENDBRANCH  12  13
ENDBRANCH   1  12
BRANCH   1  27
ATOM     27  C   UNL A   1     -24.602   1.955  29.376  0.00  0.00    +0.071 C 
BRANCH  27  32
ATOM     28  C   UNL A   1     -22.661   1.429  27.928  0.00  0.00    +0.308 C 
ATOM     29  C   UNL A   1     -22.382  -0.707  29.715  0.00  0.00    +0.036 C 
ATOM     30  C   UNL A   1     -21.377  -0.198  28.860  0.00  0.00    +0.175 C 
ATOM     31  C   UNL A   1     -23.671  -0.201  29.620  0.00  0.00    -0.016 C 
ATOM     32  C   UNL A   1     -23.728   1.118  28.975  0.00  0.00    +0.025 C 
ATOM     33  O   UNL A   1     -21.500   0.763  27.946  0.00  0.00    -0.446 OA
BRANCH  28  34
ATOM     34  O   UNL A   1     -22.856   2.342  26.918  0.00  0.00    -0.315 OA
ATOM     35  C   UNL A   1     -21.821   2.256  25.871  0.00  0.00    +0.178 C 
ENDBRANCH  28  34
BRANCH  31  36
ATOM     36  C   UNL A   1     -24.855  -1.012  30.143  0.00  0.00    +0.060 C 
BRANCH  36  37
ATOM     37  C   UNL A   1     -24.973  -2.505  29.788  0.00  0.00    -0.017 C 
ATOM     38  C   UNL A   1     -23.906  -3.173  29.146  0.00  0.00    -0.004 C 
ATOM     39  C   UNL A   1     -23.989  -4.549  28.853  0.00  0.00    -0.000 C 
ATOM     40  C   UNL A   1     -25.137  -5.280  29.205  0.00  0.00    -0.000 C 
ATOM     41  C   UNL A   1     -26.232  -4.611  29.784  0.00  0.00    -0.000 C 
ATOM     42  C   UNL A   1     -26.155  -3.232  30.065  0.00  0.00    -0.004 C 
ENDBRANCH  36  37
BRANCH  36  43
ATOM     43  C   UNL A   1     -25.387  -0.679  31.571  0.00  0.00    +0.081 C 
ATOM     44  C   UNL A   1     -25.189   0.773  32.028  0.00  0.00    +0.019 C 
ATOM     45  C   UNL A   1     -25.336   0.684  33.544  0.00  0.00    +0.020 C 
ATOM     46  C   UNL A   1     -24.829  -0.715  33.905  0.00  0.00    +0.089 C 
ATOM     47  N   UNL A   1     -24.758  -1.481  32.646  0.00  0.00    -0.219 NA
ENDBRANCH  36  43
ENDBRANCH  31  36
ENDBRANCH  27  32
ENDBRANCH   1  27
TORSDOF 14
