MODEL 2034
MODEL 1
REMARK VINA RESULT:    -6.633      0.000      0.000
REMARK INTER + INTRA:          -7.997
REMARK INTER:                  -7.409
REMARK INTRA:                  -0.588
REMARK UNBOUND:                -0.588
REMARK  Name = No_2034-gen_results/8p0m/2024-11-27-11-27-31/
REMARK  2 active torsions:
REMARK  status: ('A' for Active; 'I' for Inactive)
REMARK    1  A    between atoms: C_1  and  C_2
REMARK    2  A    between atoms: C_3  and  C_10
REMARK                            x       y       z     vdW  Elec       q    Type
REMARK                         _______ _______ _______ _____ _____    ______ ____
ROOT
ATOM      1  C   UNL A   1     -23.496  -0.407  30.086  0.00  0.00    -0.006 A 
ATOM      2  C   UNL A   1     -24.163  -1.157  29.138  0.00  0.00    -0.002 A 
ATOM      3  C   UNL A   1     -24.278  -0.712  27.823  0.00  0.00    +0.011 A 
ATOM      4  C   UNL A   1     -23.919   0.643  27.430  0.00  0.00    +0.058 A 
ATOM      5  C   UNL A   1     -23.298   1.417  28.423  0.00  0.00    +0.011 A 
ATOM      6  C   UNL A   1     -23.055   0.862  29.643  0.00  0.00    -0.002 A 
ATOM      7 CL   UNL A   1     -24.294   1.254  25.903  0.00  0.00    -0.082 Cl
ENDROOT
BRANCH   2   8
ATOM      8  C   UNL A   1     -24.493  -2.550  29.322  0.00  0.00    -0.000 A 
ATOM      9  C   UNL A   1     -23.864  -3.438  28.743  0.00  0.00    -0.000 A 
ATOM     10  C   UNL A   1     -25.838  -2.872  29.831  0.00  0.00    -0.000 A 
ATOM     11  C   UNL A   1     -26.377  -4.127  29.773  0.00  0.00    -0.000 A 
ATOM     12  C   UNL A   1     -24.252  -4.816  28.723  0.00  0.00    -0.000 A 
ATOM     13  C   UNL A   1     -25.505  -5.117  29.280  0.00  0.00    -0.000 A 
ENDBRANCH   2   8
BRANCH   1  14
ATOM     14  C   UNL A   1     -22.954  -0.883  31.057  0.00  0.00    +0.121 C 
ATOM     15 CL   UNL A   1     -23.580  -0.767  32.332  0.00  0.00    -0.108 Cl
ENDBRANCH   1  14
TORSDOF 2
ENDMDL
ENDMDL
